REMARK  Name = ZINC14515149
REMARK  7 active torsions:
REMARK  status: ('A' for Active; 'I' for Inactive)
REMARK    1  A    between atoms: C_1  and  C_2
REMARK    2  A    between atoms: C_7  and  C_9
REMARK    3  A    between atoms: C_7  and  C_28
REMARK    4  A    between atoms: C_7  and  N_64
REMARK    5  A    between atoms: C_9  and  N_10
REMARK    6  A    between atoms: C_11  and  C_13
REMARK    7  A    between atoms: C_19  and  C_21
REMARK                            x       y       z     vdW  Elec       q    Type
REMARK                         _______ _______ _______ _____ _____    ______ ____
ROOT
ATOM      1  N   UNL     1       6.067  -1.599  -2.457  0.00  0.00    -0.316 N 
ATOM      2  C   UNL     1       6.151  -2.258  -3.630  0.00  0.00    +0.216 C 
ATOM      3  O   UNL     1       6.548  -1.683  -4.621  0.00  0.00    -0.276 OA
ATOM      4  H   UNL     1       5.749  -2.059  -1.664  0.00  0.00    +0.149 HD
ENDROOT
BRANCH   2   5
ATOM      5  C   UNL     1       5.751  -3.709  -3.710  0.00  0.00    +0.078 C 
ATOM      6  C   UNL     1       6.624  -4.531  -2.759  0.00  0.00    +0.032 C 
ATOM      7  C   UNL     1       6.192  -6.000  -2.817  0.00  0.00    +0.109 C 
ATOM      8  N   UNL     1       6.233  -6.450  -4.215  0.00  0.00    -0.297 N 
ATOM      9  C   UNL     1       5.501  -5.677  -5.228  0.00  0.00    +0.109 C 
ATOM     10  C   UNL     1       5.941  -4.212  -5.143  0.00  0.00    +0.032 C 
ATOM     11  C   UNL     1       6.928  -7.551  -4.562  0.00  0.00    +0.247 C 
ATOM     12  O   UNL     1       7.605  -8.128  -3.733  0.00  0.00    -0.270 OA
BRANCH  11  13
ATOM     13  C   UNL     1       6.867  -8.057  -5.949  0.00  0.00    +0.037 A 
ATOM     14  C   UNL     1       5.675  -7.979  -6.672  0.00  0.00    +0.014 A 
ATOM     15  C   UNL     1       5.626  -8.447  -7.968  0.00  0.00    +0.021 A 
ATOM     16  C   UNL     1       6.753  -9.005  -8.549  0.00  0.00    +0.041 A 
ATOM     17  C   UNL     1       7.937  -9.091  -7.835  0.00  0.00    +0.021 A 
ATOM     18  C   UNL     1       8.000  -8.620  -6.540  0.00  0.00    +0.014 A 
ATOM     19 CL   UNL     1       6.682  -9.598 -10.179  0.00  0.00    -0.084 Cl
ENDBRANCH  11  13
ENDBRANCH   2   5
BRANCH   1  20
ATOM     20  C   UNL     1       6.456  -0.189  -2.379  0.00  0.00    +0.094 C 
BRANCH  20  21
ATOM     21  C   UNL     1       6.382   0.281  -0.925  0.00  0.00    -0.013 C 
BRANCH  21  28
ATOM     22  C   UNL     1       1.038   0.311   1.103  0.00  0.00    +0.007 C 
ATOM     23  C   UNL     1       2.403   0.750   0.568  0.00  0.00    -0.018 C 
ATOM     24  C   UNL     1       2.620   0.156  -0.827  0.00  0.00    -0.015 C 
ATOM     25  C   UNL     1       4.010   0.547  -1.332  0.00  0.00    -0.078 C 
ATOM     26  C   UNL     1       4.870   0.637   0.932  0.00  0.00    -0.078 C 
ATOM     27  C   UNL     1       3.505   0.248   1.504  0.00  0.00    -0.015 C 
ATOM     28  N   UNL     1       5.027   0.015  -0.400  0.00  0.00    +0.386 N 
ATOM     29  H   UNL     1       4.897  -1.000  -0.310  0.00  0.00    -0.081 HD
ENDBRANCH  21  28
BRANCH  21  30
ATOM     30  C   UNL     1       6.697   1.753  -0.856  0.00  0.00    -0.022 A 
ATOM     31  C   UNL     1       7.858   2.363  -0.514  0.00  0.00    +0.009 A 
ATOM     32  C   UNL     1       7.917   3.744  -0.521  0.00  0.00    +0.008 A 
ATOM     33  C   UNL     1       6.813   4.447  -0.870  0.00  0.00    +0.045 A 
ATOM     34  S   UNL     1       5.637   3.147  -1.205  0.00  0.00    -0.103 S 
ENDBRANCH  21  30
ENDBRANCH  20  21
ENDBRANCH   1  20
TORSDOF 6
