REMARK  Name = ZINC12508896
REMARK  6 active torsions:
REMARK  status: ('A' for Active; 'I' for Inactive)
REMARK    1  A    between atoms: C_5  and  C_7
REMARK    2  A    between atoms: C_7  and  C_8
REMARK    3  A    between atoms: C_8  and  N_60
REMARK    4  A    between atoms: C_9  and  N_60
REMARK    5  A    between atoms: N_20  and  C_23
REMARK    6  A    between atoms: C_23  and  C_24
REMARK                            x       y       z     vdW  Elec       q    Type
REMARK                         _______ _______ _______ _____ _____    ______ ____
ROOT
ATOM      1  C   UNL     1      -1.164  -6.495  -4.927  0.00  0.00    -0.067 C 
ATOM      2  C   UNL     1      -2.025  -5.234  -5.052  0.00  0.00    -0.011 C 
ATOM      3  C   UNL     1      -1.539  -4.173  -4.065  0.00  0.00    +0.035 C 
ATOM      4  C   UNL     1      -1.474  -4.790  -2.670  0.00  0.00    -0.023 A 
ATOM      5  C   UNL     1      -1.449  -6.130  -2.510  0.00  0.00    -0.006 A 
ATOM      6  S   UNL     1      -1.376  -6.381  -0.757  0.00  0.00    -0.073 S 
ATOM      7  C   UNL     1      -1.381  -4.682  -0.244  0.00  0.00    +0.116 A 
ATOM      8  C   UNL     1      -1.439  -3.976  -1.456  0.00  0.00    +0.076 A 
ATOM      9  C   UNL     1      -1.461  -2.547  -1.341  0.00  0.00    +0.262 A 
ATOM     10  O   UNL     1      -1.515  -1.847  -2.337  0.00  0.00    -0.267 OA
ATOM     11  N   UNL     1      -1.416  -1.993  -0.116  0.00  0.00    -0.298 N 
ATOM     12  C   UNL     1      -1.362  -2.759   1.005  0.00  0.00    +0.203 A 
ATOM     13  N   UNL     1      -1.345  -4.063   0.932  0.00  0.00    -0.230 NA
ATOM     14  C   UNL     1      -1.476  -7.173  -3.585  0.00  0.00    +0.027 C 
ENDROOT
BRANCH   1  15
ATOM     15  N   UNL     1      -1.484  -7.415  -6.034  0.00  0.00    +0.381 N 
ATOM     16  H   UNL     1      -2.300  -7.983  -5.777  0.00  0.00    -0.086 HD
ATOM     17  H   UNL     1      -1.698  -6.870  -6.877  0.00  0.00    -0.086 HD
BRANCH  15  18
ATOM     18  C   UNL     1      -0.339  -8.304  -6.308  0.00  0.00    -0.077 C 
BRANCH  18  19
ATOM     19  C   UNL     1      -0.700  -9.246  -7.458  0.00  0.00    +0.019 C 
BRANCH  19  24
ATOM     20  C   UNL     1       1.536 -12.288  -7.517  0.00  0.00    +0.000 A 
ATOM     21  C   UNL     1       2.603 -11.834  -8.271  0.00  0.00    +0.003 A 
ATOM     22  C   UNL     1       2.602 -10.542  -8.762  0.00  0.00    +0.038 A 
ATOM     23  C   UNL     1       1.530  -9.704  -8.503  0.00  0.00    +0.126 A 
ATOM     24  C   UNL     1       0.465 -10.158  -7.745  0.00  0.00    -0.014 A 
ATOM     25  C   UNL     1       0.468 -11.451  -7.254  0.00  0.00    +0.006 A 
ATOM     26  F   UNL     1       1.526  -8.443  -8.988  0.00  0.00    -0.205 F 
ENDBRANCH  19  24
ENDBRANCH  18  19
ENDBRANCH  15  18
ENDBRANCH   1  15
BRANCH  11  27
ATOM     27  C   UNL     1      -1.433  -0.534   0.013  0.00  0.00    +0.129 C 
BRANCH  27  28
ATOM     28  C   UNL     1       0.002  -0.004   0.002  0.00  0.00    +0.009 C 
ATOM     29  C   UNL     1      -0.019   1.526   0.010  0.00  0.00    +0.005 C 
ATOM     30  C   UNL     1       1.417   2.055  -0.000  0.00  0.00    +0.000 C 
ATOM     31  C   UNL     1       2.157   1.548   1.239  0.00  0.00    +0.000 C 
ATOM     32  C   UNL     1       2.178   0.019   1.231  0.00  0.00    +0.000 C 
ATOM     33  C   UNL     1       0.742  -0.511   1.242  0.00  0.00    +0.005 C 
ENDBRANCH  27  28
ENDBRANCH  11  27
TORSDOF 6
