REMARK  Name = ZINC09672049
REMARK  8 active torsions:
REMARK  status: ('A' for Active; 'I' for Inactive)
REMARK    1  A    between atoms: C_1  and  N_2
REMARK    2  A    between atoms: N_2  and  C_3
REMARK    3  A    between atoms: N_2  and  S_24
REMARK    4  A    between atoms: C_3  and  C_4
REMARK    5  A    between atoms: C_11  and  C_12
REMARK    6  A    between atoms: C_11  and  C_18
REMARK    7  A    between atoms: C_11  and  N_59
REMARK    8  A    between atoms: S_24  and  C_27
REMARK                            x       y       z     vdW  Elec       q    Type
REMARK                         _______ _______ _______ _____ _____    ______ ____
ROOT
ATOM      1  C   UNL     1       0.392   3.712  -2.415  0.00  0.00    +0.231 C 
ATOM      2  O   UNL     1       0.741   2.551  -2.463  0.00  0.00    -0.274 OA
ATOM      3  N   UNL     1       0.951   4.619  -3.240  0.00  0.00    -0.304 N 
ATOM      4  C   UNL     1       0.538   6.030  -3.202  0.00  0.00    +0.089 C 
ATOM      5  C   UNL     1       1.799   6.899  -3.076  0.00  0.00    -0.058 C 
ATOM      6  C   UNL     1       3.188   5.162  -4.044  0.00  0.00    -0.058 C 
ATOM      7  C   UNL     1       1.988   4.223  -4.205  0.00  0.00    +0.089 C 
ATOM      8  N   UNL     1       2.720   6.558  -4.182  0.00  0.00    +0.389 N 
ATOM      9  H   UNL     1       2.220   6.655  -5.073  0.00  0.00    -0.080 HD
ENDROOT
BRANCH   1  10
ATOM     10  C   UNL     1      -0.669   4.139  -1.433  0.00  0.00    +0.205 C 
BRANCH  10  12
ATOM     11  C   UNL     1      -2.159   2.100  -1.190  0.00  0.00    +0.132 C 
ATOM     12  N   UNL     1      -1.114   2.978  -0.658  0.00  0.00    -0.170 NA
BRANCH  12  13
ATOM     13  S   UNL     1      -0.435   2.659   0.818  0.00  0.00    +0.067 S 
ATOM     14  O   UNL     1      -1.385   1.889   1.544  0.00  0.00    -0.152 OA
ATOM     15  O   UNL     1       0.078   3.891   1.305  0.00  0.00    -0.152 OA
BRANCH  13  16
ATOM     16  C   UNL     1       0.953   1.611   0.538  0.00  0.00    +0.143 A 
ATOM     17  C   UNL     1       2.243   1.949   0.295  0.00  0.00    +0.036 A 
ATOM     18  C   UNL     1       3.174   0.947   0.097  0.00  0.00    +0.010 A 
ATOM     19  C   UNL     1       2.769  -0.346   0.152  0.00  0.00    +0.047 A 
ATOM     20  S   UNL     1       1.025  -0.172   0.491  0.00  0.00    -0.077 S 
ENDBRANCH  13  16
ENDBRANCH  12  13
ENDBRANCH  10  12
ENDBRANCH   1  10
BRANCH   8  21
ATOM     21  C   UNL     1       3.876   7.479  -4.178  0.00  0.00    -0.007 C 
BRANCH  21  22
ATOM     22  C   UNL     1       4.793   7.117  -5.317  0.00  0.00    -0.057 A 
ATOM     23  C   UNL     1       4.267   6.809  -6.558  0.00  0.00    +0.002 A 
ATOM     24  C   UNL     1       5.109   6.482  -7.604  0.00  0.00    +0.000 A 
ATOM     25  C   UNL     1       6.477   6.452  -7.407  0.00  0.00    +0.000 A 
ATOM     26  C   UNL     1       7.003   6.755  -6.165  0.00  0.00    +0.000 A 
ATOM     27  C   UNL     1       6.161   7.087  -5.120  0.00  0.00    +0.002 A 
ENDBRANCH  21  22
BRANCH  21  28
ATOM     28  C   UNL     1       3.376   8.889  -4.364  0.00  0.00    -0.057 A 
ATOM     29  C   UNL     1       2.399   9.158  -5.305  0.00  0.00    +0.002 A 
ATOM     30  C   UNL     1       1.938  10.450  -5.472  0.00  0.00    +0.000 A 
ATOM     31  C   UNL     1       2.460  11.475  -4.706  0.00  0.00    +0.000 A 
ATOM     32  C   UNL     1       3.440  11.207  -3.769  0.00  0.00    +0.000 A 
ATOM     33  C   UNL     1       3.898   9.914  -3.598  0.00  0.00    +0.002 A 
ENDBRANCH  21  28
ENDBRANCH   8  21
TORSDOF 7
