REMARK  Name = ZINC48684727
REMARK  8 active torsions:
REMARK  status: ('A' for Active; 'I' for Inactive)
REMARK    1  A    between atoms: C_1  and  C_2
REMARK    2  A    between atoms: C_7  and  N_12
REMARK    3  A    between atoms: C_9  and  C_11
REMARK    4  A    between atoms: C_13  and  C_15
REMARK    5  A    between atoms: N_17  and  C_18
REMARK    6  A    between atoms: C_23  and  N_24
REMARK    7  A    between atoms: N_24  and  C_25
REMARK    8  A    between atoms: N_24  and  C_26
REMARK                            x       y       z     vdW  Elec       q    Type
REMARK                         _______ _______ _______ _____ _____    ______ ____
ROOT
ATOM      1  C   UNL     1       1.931  -4.250   4.115  0.00  0.00    +0.303 C 
ATOM      2  O   UNL     1       2.752  -3.543   4.663  0.00  0.00    -0.265 OA
ATOM      3  N   UNL     1       1.665  -5.477   4.605  0.00  0.00    -0.276 N 
ATOM      4  H   UNL     1       0.953  -6.011   4.216  0.00  0.00    +0.155 HD
ENDROOT
BRANCH   3   5
ATOM      5  C   UNL     1       2.413  -5.982   5.673  0.00  0.00    +0.056 A 
ATOM      6  C   UNL     1       3.700  -5.516   5.902  0.00  0.00    +0.025 A 
ATOM      7  C   UNL     1       4.439  -6.016   6.958  0.00  0.00    +0.003 A 
ATOM      8  C   UNL     1       3.900  -6.981   7.789  0.00  0.00    +0.022 A 
ATOM      9  C   UNL     1       2.618  -7.452   7.569  0.00  0.00    +0.064 A 
ATOM     10  C   UNL     1       1.867  -6.951   6.514  0.00  0.00    +0.069 A 
ATOM     11 CL   UNL     1       1.946  -8.664   8.615  0.00  0.00    -0.082 Cl
BRANCH  10  12
ATOM     12  N   UNL     1       0.568  -7.422   6.292  0.00  0.00    -0.333 N 
ATOM     13  C   UNL     1       0.347  -8.580   5.423  0.00  0.00    +0.129 C 
ATOM     14  C   UNL     1      -0.571  -6.756   6.929  0.00  0.00    +0.129 C 
ENDBRANCH  10  12
ENDBRANCH   3   5
BRANCH   1  16
ATOM     15  N   UNL     1       1.484  -2.534   2.408  0.00  0.00    -0.304 N 
ATOM     16  C   UNL     1       1.218  -3.761   2.898  0.00  0.00    +0.300 C 
ATOM     17  O   UNL     1       0.397  -4.468   2.350  0.00  0.00    -0.265 OA
ATOM     18  H   UNL     1       2.140  -1.969   2.846  0.00  0.00    +0.149 HD
BRANCH  15  24
ATOM     19  C   UNL     1       0.008   1.508  -0.026  0.00  0.00    +0.008 C 
ATOM     20  C   UNL     1       0.030  -0.022  -0.029  0.00  0.00    -0.009 C 
ATOM     21  C   UNL     1       0.756  -0.519  -1.281  0.00  0.00    +0.003 C 
ATOM     22  C   UNL     1       0.778  -2.049  -1.284  0.00  0.00    +0.002 C 
ATOM     23  C   UNL     1       1.510  -2.550  -0.037  0.00  0.00    +0.022 C 
ATOM     24  C   UNL     1       0.784  -2.053   1.215  0.00  0.00    +0.076 C 
ATOM     25  C   UNL     1       0.762  -0.523   1.218  0.00  0.00    +0.009 C 
ATOM     26  C   UNL     1       0.036  -0.026   2.470  0.00  0.00    +0.009 C 
ENDBRANCH  15  24
ENDBRANCH   1  16
TORSDOF 4
