REMARK  Name = ZINC63141038
REMARK  7 active torsions:
REMARK  status: ('A' for Active; 'I' for Inactive)
REMARK    1  A    between atoms: C_1  and  C_2
REMARK    2  A    between atoms: C_2  and  O_3
REMARK    3  A    between atoms: O_3  and  C_4
REMARK    4  A    between atoms: C_4  and  C_5
REMARK    5  A    between atoms: C_5  and  C_6
REMARK    6  A    between atoms: C_6  and  N_7
REMARK    7  A    between atoms: C_27  and  C_29
REMARK                            x       y       z     vdW  Elec       q    Type
REMARK                         _______ _______ _______ _____ _____    ______ ____
ROOT
ATOM      1  N   UNL     1       2.259  -4.151  -3.917  0.00  0.00    -0.291 N 
ATOM      2  C   UNL     1       1.537  -4.347  -5.188  0.00  0.00    +0.203 C 
ATOM      3  C   UNL     1       2.288  -3.621  -6.284  0.00  0.00    +0.234 C 
ATOM      4  O   UNL     1       1.710  -2.950  -7.112  0.00  0.00    -0.274 OA
ATOM      5  N   UNL     1       3.655  -3.758  -6.297  0.00  0.00    -0.279 N 
ATOM      6  C   UNL     1       4.199  -4.653  -5.298  0.00  0.00    +0.167 C 
ATOM      7  C   UNL     1       3.615  -4.317  -3.950  0.00  0.00    +0.237 C 
ATOM      8  O   UNL     1       4.303  -4.205  -2.957  0.00  0.00    -0.274 OA
ATOM      9  C   UNL     1       5.694  -4.840  -5.244  0.00  0.00    +0.065 C 
ATOM     10  C   UNL     1       6.367  -3.841  -6.144  0.00  0.00    -0.034 C 
ATOM     11  C   UNL     1       7.464  -3.110  -5.997  0.00  0.00    -0.001 A 
ATOM     12  C   UNL     1       8.457  -3.038  -4.913  0.00  0.00    +0.010 A 
ATOM     13  C   UNL     1       9.474  -2.153  -5.089  0.00  0.00    +0.001 A 
ATOM     14  C   UNL     1       9.601  -1.342  -6.221  0.00  0.00    +0.002 A 
ATOM     15  C   UNL     1       8.738  -1.345  -7.267  0.00  0.00    +0.026 A 
ATOM     16  C   UNL     1       7.628  -2.238  -7.200  0.00  0.00    +0.043 A 
ATOM     17  N   UNL     1       6.670  -2.451  -8.050  0.00  0.00    -0.375 N 
ATOM     18  C   UNL     1       5.790  -3.499  -7.516  0.00  0.00    +0.131 C 
ATOM     19  C   UNL     1       4.390  -2.960  -7.268  0.00  0.00    +0.133 C 
ATOM     20  H   UNL     1       6.553  -1.994  -8.898  0.00  0.00    +0.160 HD
ENDROOT
BRANCH  19  21
ATOM     21  C   UNL     1       4.532  -1.556  -6.741  0.00  0.00    -0.025 A 
ATOM     22  C   UNL     1       4.806  -1.344  -5.403  0.00  0.00    +0.006 A 
ATOM     23  C   UNL     1       4.937  -0.056  -4.919  0.00  0.00    +0.015 A 
ATOM     24  C   UNL     1       4.795   1.022  -5.775  0.00  0.00    +0.018 A 
ATOM     25  C   UNL     1       4.522   0.810  -7.114  0.00  0.00    +0.015 A 
ATOM     26  C   UNL     1       4.396  -0.479  -7.598  0.00  0.00    +0.006 A 
ATOM     27 BR   UNL     1       4.975   2.784  -5.114  0.00  0.00    -0.050 Br
ENDBRANCH  19  21
BRANCH   1  28
ATOM     28  C   UNL     1       1.558  -3.789  -2.683  0.00  0.00    +0.110 C 
BRANCH  28  29
ATOM     29  C   UNL     1       1.478  -2.265  -2.569  0.00  0.00    +0.047 C 
BRANCH  29  30
ATOM     30  C   UNL     1       0.746  -1.888  -1.280  0.00  0.00    +0.161 C 
BRANCH  30  31
ATOM     31  O   UNL     1       0.671  -0.465  -1.174  0.00  0.00    -0.380 OA
BRANCH  31  33
ATOM     32  C   UNL     1      -0.019   1.526   0.010  0.00  0.00    +0.034 C 
ATOM     33  C   UNL     1       0.002  -0.004   0.002  0.00  0.00    +0.156 C 
ENDBRANCH  31  33
ENDBRANCH  30  31
ENDBRANCH  29  30
ENDBRANCH  28  29
ENDBRANCH   1  28
TORSDOF 6
