REMARK  Name = ZINC42652446
REMARK  3 active torsions:
REMARK  status: ('A' for Active; 'I' for Inactive)
REMARK    1  A    between atoms: C_2  and  C_10
REMARK    2  A    between atoms: C_6  and  C_7
REMARK    3  A    between atoms: C_16  and  C_18
REMARK                            x       y       z     vdW  Elec       q    Type
REMARK                         _______ _______ _______ _____ _____    ______ ____
ROOT
ATOM      1  C   UNL     1       1.822   3.236  -0.434  0.00  0.00    +0.082 A 
ATOM      2  C   UNL     1       3.130   3.534  -0.174  0.00  0.00    +0.077 A 
ATOM      3  S   UNL     1       3.033   5.305   0.031  0.00  0.00    -0.060 S 
ATOM      4  C   UNL     1       1.380   5.483  -0.228  0.00  0.00    +0.165 A 
ATOM      5  N   UNL     1       0.973   4.255  -0.457  0.00  0.00    -0.225 NA
ATOM      6  N   UNL     1       0.626   6.650  -0.210  0.00  0.00    -0.264 N 
ATOM      7  C   UNL     1       1.222   7.833   0.039  0.00  0.00    +0.222 C 
ATOM      8  O   UNL     1       2.416   7.879   0.247  0.00  0.00    -0.275 OA
ATOM      9  H   UNL     1      -0.329   6.614  -0.377  0.00  0.00    +0.157 HD
ENDROOT
BRANCH   7  10
ATOM     10  C   UNL     1       0.405   9.099   0.058  0.00  0.00    +0.079 C 
ATOM     11  C   UNL     1       1.173  10.226   0.787  0.00  0.00    +0.016 C 
ATOM     12  C   UNL     1       1.359  11.337  -0.292  0.00  0.00    -0.010 C 
ATOM     13  C   UNL     1       2.409  10.747  -1.282  0.00  0.00    +0.004 C 
ATOM     14  C   UNL     1       1.659   9.612  -2.016  0.00  0.00    +0.004 C 
ATOM     15  C   UNL     1       0.196   9.634  -1.391  0.00  0.00    +0.001 C 
ATOM     16  C   UNL     1       0.031  11.171  -1.111  0.00  0.00    +0.008 C 
ENDBRANCH   7  10
BRANCH   1  18
ATOM     17  C   UNL     1       0.060   1.427  -0.966  0.00  0.00    +0.042 A 
ATOM     18  C   UNL     1       1.375   1.841  -0.685  0.00  0.00    +0.019 A 
ATOM     19  C   UNL     1       2.165   0.728  -0.685  0.00  0.00    +0.093 A 
ATOM     20  N   UNL     1       1.389  -0.350  -0.954  0.00  0.00    -0.356 N 
ATOM     21  H   UNL     1       1.698  -1.268  -1.014  0.00  0.00    +0.165 HD
ATOM     22  C   UNL     1       0.090   0.070  -1.129  0.00  0.00    +0.102 A 
BRANCH  22  23
ATOM     23  C   UNL     1      -1.060  -0.788  -1.435  0.00  0.00    +0.258 C 
ATOM     24  O   UNL     1      -2.166  -0.298  -1.567  0.00  0.00    -0.269 OA
ATOM     25  N   UNL     1      -0.891  -2.118  -1.571  0.00  0.00    -0.324 N 
ATOM     26  H   UNL     1      -0.010  -2.508  -1.466  0.00  0.00    +0.145 HD
ATOM     27  H   UNL     1      -1.652  -2.685  -1.774  0.00  0.00    +0.145 HD
ENDBRANCH  22  23
ENDBRANCH   1  18
TORSDOF 3
