REMARK  Name = ZINC59364438
REMARK  8 active torsions:
REMARK  status: ('A' for Active; 'I' for Inactive)
REMARK    1  A    between atoms: C_1  and  C_2
REMARK    2  A    between atoms: C_2  and  C_3
REMARK    3  A    between atoms: C_4  and  C_26
REMARK    4  A    between atoms: C_5  and  C_25
REMARK    5  A    between atoms: C_8  and  C_9
REMARK    6  A    between atoms: N_11  and  N_12
REMARK    7  A    between atoms: C_13  and  C_15
REMARK    8  A    between atoms: C_26  and  C_28
REMARK                            x       y       z     vdW  Elec       q    Type
REMARK                         _______ _______ _______ _____ _____    ______ ____
ROOT
ATOM      1  C   UNL     1       2.932  -0.781  -0.006  0.00  0.00    +0.277 C 
ATOM      2  O   UNL     1       2.596  -0.381   1.093  0.00  0.00    -0.267 OA
ATOM      3  N   UNL     1       4.185  -1.236  -0.202  0.00  0.00    -0.229 N 
ATOM      4  H   UNL     1       4.454  -1.556  -1.078  0.00  0.00    +0.173 HD
ENDROOT
BRANCH   1  10
ATOM      5  C   UNL     1       0.682  -0.336  -1.052  0.00  0.00    -0.007 A 
ATOM      6  C   UNL     1       0.127  -0.495  -2.344  0.00  0.00    +0.041 A 
ATOM      7  C   UNL     1       1.120  -1.031  -3.148  0.00  0.00    +0.024 A 
ATOM      8  N   UNL     1       2.224  -1.196  -2.404  0.00  0.00    -0.354 N 
ATOM      9  H   UNL     1       3.067  -1.554  -2.722  0.00  0.00    +0.166 HD
ATOM     10  C   UNL     1       1.973  -0.769  -1.117  0.00  0.00    +0.107 A 
ATOM     11  C   UNL     1       0.984  -1.372  -4.610  0.00  0.00    +0.064 C 
BRANCH   6  12
ATOM     12  C   UNL     1      -1.240  -0.157  -2.754  0.00  0.00    +0.162 C 
ATOM     13  O   UNL     1      -1.473   0.925  -3.251  0.00  0.00    -0.292 OA
ATOM     14  C   UNL     1      -2.353  -1.152  -2.558  0.00  0.00    +0.091 C 
ENDBRANCH   6  12
BRANCH   5  16
ATOM     15  C   UNL     1       0.173   1.729   0.222  0.00  0.00    +0.009 C 
ATOM     16  C   UNL     1      -0.018   0.212   0.165  0.00  0.00    +0.035 C 
ENDBRANCH   5  16
ENDBRANCH   1  10
BRANCH   3  17
ATOM     17  N   UNL     1       5.101  -1.248   0.858  0.00  0.00    -0.230 N 
ATOM     18  C   UNL     1       6.354  -1.704   0.662  0.00  0.00    +0.267 C 
ATOM     19  O   UNL     1       6.691  -2.104  -0.437  0.00  0.00    -0.268 OA
ATOM     20  H   UNL     1       4.832  -0.929   1.734  0.00  0.00    +0.173 HD
BRANCH  18  21
ATOM     21  C   UNL     1       7.312  -1.716   1.772  0.00  0.00    +0.076 A 
ATOM     22  C   UNL     1       8.629  -2.131   1.781  0.00  0.00    +0.024 A 
ATOM     23  C   UNL     1       9.313  -2.033   2.990  0.00  0.00    -0.036 A 
ATOM     24  C   UNL     1       8.614  -1.538   4.044  0.00  0.00    -0.006 A 
ATOM     25  S   UNL     1       7.084  -1.193   3.460  0.00  0.00    -0.088 S 
ATOM     26  C   UNL     1       9.094  -1.332   5.450  0.00  0.00    +0.043 C 
ATOM     27  C   UNL     1      10.604  -1.071   5.441  0.00  0.00    +0.005 C 
ATOM     28  C   UNL     1      11.329  -2.409   5.544  0.00  0.00    +0.001 C 
ATOM     29  C   UNL     1      10.980  -3.302   4.356  0.00  0.00    +0.005 C 
ATOM     30  C   UNL     1      10.773  -2.461   3.101  0.00  0.00    +0.036 C 
ENDBRANCH  18  21
ENDBRANCH   3  17
TORSDOF 5
