REMARK  Name = ZINC21713760
REMARK  10 active torsions:
REMARK  status: ('A' for Active; 'I' for Inactive)
REMARK    1  A    between atoms: C_1  and  C_2
REMARK    2  A    between atoms: C_2  and  N_3
REMARK    3  A    between atoms: N_10  and  C_27
REMARK    4  A    between atoms: N_13  and  C_14
REMARK    5  A    between atoms: C_14  and  C_15
REMARK    6  A    between atoms: N_17  and  C_18
REMARK    7  A    between atoms: C_19  and  C_26
REMARK    8  A    between atoms: C_21  and  C_25
REMARK    9  A    between atoms: C_23  and  C_24
REMARK   10  A    between atoms: C_27  and  C_28
REMARK                            x       y       z     vdW  Elec       q    Type
REMARK                         _______ _______ _______ _____ _____    ______ ____
ROOT
ATOM      1  N   UNL     1      -7.863   1.238   1.261  0.00  0.00    -0.269 N 
ATOM      2  C   UNL     1      -6.885   2.141   0.985  0.00  0.00    +0.135 A 
ATOM      3  C   UNL     1      -6.768   2.196  -0.361  0.00  0.00    +0.097 A 
ATOM      4  C   UNL     1      -7.729   1.277  -0.866  0.00  0.00    +0.173 A 
ATOM      5  N   UNL     1      -8.340   0.749   0.169  0.00  0.00    -0.164 NA
ATOM      6  C   UNL     1      -7.831   1.123  -2.328  0.00  0.00    +0.285 A 
ATOM      7  O   UNL     1      -8.633   0.353  -2.818  0.00  0.00    -0.265 OA
ATOM      8  N   UNL     1      -7.011   1.857  -3.111  0.00  0.00    -0.255 N 
ATOM      9  C   UNL     1      -6.121   2.715  -2.590  0.00  0.00    +0.333 A 
ATOM     10  O   UNL     1      -5.414   3.351  -3.349  0.00  0.00    -0.246 OA
ATOM     11  N   UNL     1      -5.974   2.900  -1.266  0.00  0.00    -0.281 N 
ENDROOT
BRANCH   1  13
ATOM     12  C   UNL     1      -9.824   1.085   2.715  0.00  0.00    +0.029 C 
ATOM     13  C   UNL     1      -8.312   0.875   2.607  0.00  0.00    +0.140 C 
ENDBRANCH   1  13
BRANCH  11  14
ATOM     14  C   UNL     1      -4.976   3.852  -0.771  0.00  0.00    +0.223 C 
BRANCH  14  15
ATOM     15  C   UNL     1      -3.665   3.141  -0.558  0.00  0.00    +0.237 C 
ATOM     16  O   UNL     1      -3.572   1.955  -0.796  0.00  0.00    -0.274 OA
ATOM     17  N   UNL     1      -2.595   3.822  -0.102  0.00  0.00    -0.284 N 
ATOM     18  H   UNL     1      -2.700   4.877   0.194  0.00  0.00    +0.155 HD
BRANCH  17  19
ATOM     19  C   UNL     1      -1.351   3.188  -0.005  0.00  0.00    +0.039 A 
ATOM     20  C   UNL     1      -0.700   2.755  -1.153  0.00  0.00    -0.029 A 
ATOM     21  C   UNL     1       0.525   2.125  -1.054  0.00  0.00    +0.008 A 
ATOM     22  C   UNL     1       1.108   1.935   0.186  0.00  0.00    -0.050 A 
ATOM     23  C   UNL     1       0.464   2.369   1.330  0.00  0.00    +0.008 A 
ATOM     24  C   UNL     1      -0.764   2.995   1.238  0.00  0.00    -0.029 A 
ATOM     25  C   UNL     1      -1.464   3.469   2.485  0.00  0.00    +0.045 C 
ATOM     26  C   UNL     1       2.447   1.252   0.290  0.00  0.00    +0.044 C 
ATOM     27  C   UNL     1      -1.332   2.968  -2.505  0.00  0.00    +0.045 C 
ENDBRANCH  17  19
ENDBRANCH  14  15
ENDBRANCH  11  14
BRANCH   8  28
ATOM     28  C   UNL     1      -7.100   1.716  -4.566  0.00  0.00    +0.165 C 
BRANCH  28  29
ATOM     29  C   UNL     1      -8.100   2.705  -5.107  0.00  0.00    -0.028 A 
ATOM     30  C   UNL     1      -9.430   2.348  -5.229  0.00  0.00    +0.005 A 
ATOM     31  C   UNL     1     -10.348   3.257  -5.720  0.00  0.00    +0.000 A 
ATOM     32  C   UNL     1      -9.934   4.520  -6.100  0.00  0.00    +0.000 A 
ATOM     33  C   UNL     1      -8.603   4.876  -5.983  0.00  0.00    +0.000 A 
ATOM     34  C   UNL     1      -7.686   3.968  -5.487  0.00  0.00    +0.005 A 
ENDBRANCH  28  29
ENDBRANCH   8  28
TORSDOF 6
