REMARK  Name = ZINC03356023
REMARK  6 active torsions:
REMARK  status: ('A' for Active; 'I' for Inactive)
REMARK    1  A    between atoms: C_4  and  N_18
REMARK    2  A    between atoms: C_6  and  C_7
REMARK    3  A    between atoms: N_9  and  O_17
REMARK    4  A    between atoms: N_10  and  C_14
REMARK    5  A    between atoms: C_14  and  C_15
REMARK    6  A    between atoms: C_15  and  N_16
REMARK                            x       y       z     vdW  Elec       q    Type
REMARK                         _______ _______ _______ _____ _____    ______ ____
ROOT
ATOM      1  C   UNL     1      -1.179  -0.732   0.010  0.00  0.00    +0.045 C 
ATOM      2  C   UNL     1      -2.481  -0.032   0.139  0.00  0.00    +0.129 C 
ATOM      3  N   UNL     1      -3.702  -0.571   0.261  0.00  0.00    -0.158 N 
ATOM      4  N   UNL     1      -4.796   0.261   0.369  0.00  0.00    -0.181 N 
ATOM      5  C   UNL     1      -4.544   1.593   0.342  0.00  0.00    +0.300 C 
ATOM      6  O   UNL     1      -5.323   2.522   0.417  0.00  0.00    -0.261 OA
ATOM      7  S   UNL     1      -2.769   1.624   0.172  0.00  0.00    -0.008 S 
ENDROOT
BRANCH   1  13
ATOM      8  C   UNL     1       0.004   1.409   0.442  0.00  0.00    +0.009 A 
ATOM      9  C   UNL     1       1.187   2.080   0.489  0.00  0.00    +0.023 A 
ATOM     10  C   UNL     1       2.386   1.437   0.192  0.00  0.00    +0.071 A 
ATOM     11  C   UNL     1       2.430   0.092  -0.165  0.00  0.00    +0.145 A 
ATOM     12  C   UNL     1       1.292  -0.650  -0.237  0.00  0.00    +0.042 A 
ATOM     13  C   UNL     1       0.005  -0.011   0.070  0.00  0.00    -0.020 A 
ATOM     14 CL   UNL     1       3.867   2.338   0.268  0.00  0.00    -0.081 Cl
BRANCH  11  15
ATOM     15  N   UNL     1       3.733  -0.540  -0.472  0.00  0.00    +0.058 N 
ATOM     16  O   UNL     1       3.785  -1.812  -0.811  0.00  0.00    -0.126 OA
ATOM     17  O   UNL     1       4.840   0.170  -0.406  0.00  0.00    -0.126 OA
ENDBRANCH  11  15
ENDBRANCH   1  13
BRANCH   3  18
ATOM     18  O   UNL     1      -3.866  -1.977   0.280  0.00  0.00    -0.268 OA
ATOM     19  H   UNL     1      -3.039  -2.471   0.198  0.00  0.00    +0.246 HD
ENDBRANCH   3  18
BRANCH   4  20
ATOM     20  C   UNL     1      -6.157  -0.265   0.505  0.00  0.00    +0.117 C 
BRANCH  20  21
ATOM     21  C   UNL     1      -6.533  -0.328   1.987  0.00  0.00    -0.065 C 
BRANCH  21  22
ATOM     22  N   UNL     1      -7.897  -0.855   2.124  0.00  0.00    +0.379 N 
ATOM     23  H   UNL     1      -8.542  -0.250   1.639  0.00  0.00    -0.090 HD
ATOM     24  H   UNL     1      -7.941  -1.781   1.726  0.00  0.00    -0.090 HD
ATOM     25  H   UNL     1      -8.145  -0.897   3.101  0.00  0.00    -0.090 HD
ENDBRANCH  21  22
ENDBRANCH  20  21
ENDBRANCH   4  20
TORSDOF 6
