REMARK  Name = ZINC21264793
REMARK  5 active torsions:
REMARK  status: ('A' for Active; 'I' for Inactive)
REMARK    1  A    between atoms: C_1  and  C_2
REMARK    2  A    between atoms: N_7  and  C_9
REMARK    3  A    between atoms: C_9  and  C_10
REMARK    4  A    between atoms: N_12  and  C_13
REMARK    5  A    between atoms: C_18  and  N_22
REMARK                            x       y       z     vdW  Elec       q    Type
REMARK                         _______ _______ _______ _____ _____    ______ ____
ROOT
ATOM      1  C   UNL     1      -0.892   1.408  -3.600  0.00  0.00    +0.232 C 
ATOM      2  O   UNL     1      -2.007   1.863  -3.454  0.00  0.00    -0.273 OA
ATOM      3  N   UNL     1      -0.463   1.058  -4.829  0.00  0.00    -0.188 NA
ENDROOT
BRANCH   3   4
ATOM      4  C   UNL     1      -1.295   1.218  -5.925  0.00  0.00    +0.197 A 
ATOM      5  N   UNL     1      -2.522   1.682  -5.967  0.00  0.00    -0.221 NA
ATOM      6  C   UNL     1      -3.220   1.786  -7.118  0.00  0.00    +0.081 A 
ATOM      7  C   UNL     1      -4.537   2.270  -7.300  0.00  0.00    +0.031 A 
ATOM      8  C   UNL     1      -5.104   2.303  -8.547  0.00  0.00    +0.035 A 
ATOM      9  C   UNL     1      -4.414   1.868  -9.670  0.00  0.00    +0.127 A 
ATOM     10  C   UNL     1      -3.124   1.390  -9.528  0.00  0.00    +0.050 A 
ATOM     11  C   UNL     1      -2.548   1.352  -8.283  0.00  0.00    +0.043 A 
ATOM     12  S   UNL     1      -0.973   0.837  -7.642  0.00  0.00    -0.048 S 
BRANCH   9  13
ATOM     13  N   UNL     1      -5.052   1.916 -11.005  0.00  0.00    +0.056 N 
ATOM     14  O   UNL     1      -4.440   1.532 -11.986  0.00  0.00    -0.126 OA
ATOM     15  O   UNL     1      -6.188   2.339 -11.122  0.00  0.00    -0.126 OA
ENDBRANCH   9  13
ENDBRANCH   3   4
BRANCH   1  16
ATOM     16  C   UNL     1       0.013   1.235  -2.408  0.00  0.00    +0.024 C 
BRANCH  16  22
ATOM     17  C   UNL     1      -1.639   5.358  -0.296  0.00  0.00    +0.005 C 
ATOM     18  C   UNL     1      -1.535   3.837  -0.170  0.00  0.00    -0.031 C 
ATOM     19  C   UNL     1      -0.817   3.480   1.135  0.00  0.00    -0.001 C 
ATOM     20  C   UNL     1      -0.665   1.959   1.224  0.00  0.00    -0.018 C 
ATOM     21  C   UNL     1       0.104   1.455   0.001  0.00  0.00    -0.078 C 
ATOM     22  N   UNL     1      -0.623   1.821  -1.221  0.00  0.00    +0.386 N 
ATOM     23  C   UNL     1      -0.741   3.279  -1.353  0.00  0.00    -0.075 C 
ATOM     24  H   UNL     1      -1.640   1.409  -1.142  0.00  0.00    -0.081 HD
ENDBRANCH  16  22
ENDBRANCH   1  16
TORSDOF 4
