REMARK  Name = ZINC38650738
REMARK  11 active torsions:
REMARK  status: ('A' for Active; 'I' for Inactive)
REMARK    1  A    between atoms: C_1  and  C_2
REMARK    2  A    between atoms: C_2  and  C_3
REMARK    3  A    between atoms: C_3  and  O_4
REMARK    4  A    between atoms: O_4  and  C_5
REMARK    5  A    between atoms: C_8  and  C_11
REMARK    6  A    between atoms: C_16  and  O_25
REMARK    7  A    between atoms: C_20  and  N_24
REMARK    8  A    between atoms: C_21  and  C_22
REMARK    9  A    between atoms: O_25  and  C_26
REMARK   10  A    between atoms: C_26  and  C_28
REMARK   11  A    between atoms: C_32  and  N_34
REMARK                            x       y       z     vdW  Elec       q    Type
REMARK                         _______ _______ _______ _____ _____    ______ ____
ROOT
ATOM      1  C   UNL     1       3.283  -4.380  -5.668  0.00  0.00    +0.098 C 
ATOM      2  C   UNL     1       4.414  -5.238  -5.168  0.00  0.00    +0.008 A 
ATOM      3  C   UNL     1       5.633  -4.653  -4.873  0.00  0.00    +0.012 A 
ATOM      4  C   UNL     1       6.682  -5.424  -4.413  0.00  0.00    +0.047 A 
ATOM      5  C   UNL     1       6.516  -6.792  -4.245  0.00  0.00    +0.135 A 
ATOM      6  C   UNL     1       5.297  -7.380  -4.539  0.00  0.00    +0.093 A 
ATOM      7  C   UNL     1       4.242  -6.603  -5.001  0.00  0.00    +0.138 A 
ATOM      8  O   UNL     1       3.055  -7.194  -5.284  0.00  0.00    -0.441 OA
ATOM      9  C   UNL     1       2.168  -6.571  -6.076  0.00  0.00    +0.199 C 
ATOM     10  C   UNL     1       2.222  -5.239  -6.298  0.00  0.00    +0.098 C 
ENDROOT
BRANCH   1  14
ATOM     11  C   UNL     1       1.591  -2.216  -2.394  0.00  0.00    +0.121 A 
ATOM     12  C   UNL     1       2.144  -1.532  -3.467  0.00  0.00    +0.046 A 
ATOM     13  C   UNL     1       2.690  -2.234  -4.524  0.00  0.00    +0.008 A 
ATOM     14  C   UNL     1       2.686  -3.617  -4.513  0.00  0.00    -0.034 A 
ATOM     15  C   UNL     1       2.136  -4.300  -3.445  0.00  0.00    +0.008 A 
ATOM     16  C   UNL     1       1.594  -3.603  -2.383  0.00  0.00    +0.046 A 
BRANCH  11  17
ATOM     17  O   UNL     1       1.054  -1.528  -1.353  0.00  0.00    -0.492 OA
BRANCH  17  18
ATOM     18  C   UNL     1       1.086  -0.101  -1.432  0.00  0.00    +0.229 C 
BRANCH  18  20
ATOM     19  C   UNL     1       0.475   2.021  -0.264  0.00  0.00    +0.007 C 
ATOM     20  C   UNL     1       0.441   0.494  -0.179  0.00  0.00    +0.038 C 
ENDBRANCH  18  20
ENDBRANCH  17  18
ENDBRANCH  11  17
ENDBRANCH   1  14
BRANCH   9  21
ATOM     21  N   UNL     1       1.178  -7.308  -6.677  0.00  0.00    -0.328 N 
ATOM     22  H   UNL     1       1.127  -8.265  -6.527  0.00  0.00    +0.145 HD
ATOM     23  H   UNL     1       0.530  -6.872  -7.252  0.00  0.00    +0.145 HD
ENDBRANCH   9  21
BRANCH  10  24
ATOM     24  C   UNL     1       1.245  -4.634  -7.152  0.00  0.00    +0.101 C 
ATOM     25  N   UNL     1       0.470  -4.154  -7.830  0.00  0.00    -0.191 NA
ENDBRANCH  10  24
BRANCH   5  26
ATOM     26  O   UNL     1       7.547  -7.552  -3.793  0.00  0.00    -0.422 OA
BRANCH  26  27
ATOM     27  C   UNL     1       7.936  -7.394  -2.512  0.00  0.00    +0.345 C 
ATOM     28  O   UNL     1       7.304  -6.668  -1.771  0.00  0.00    -0.245 OA
BRANCH  27  29
ATOM     29  C   UNL     1       9.131  -8.103  -2.010  0.00  0.00    +0.062 A 
ATOM     30  C   UNL     1       9.863  -8.933  -2.862  0.00  0.00    +0.015 A 
ATOM     31  C   UNL     1      10.978  -9.592  -2.386  0.00  0.00    +0.003 A 
ATOM     32  C   UNL     1      11.371  -9.431  -1.069  0.00  0.00    +0.033 A 
ATOM     33  C   UNL     1      10.650  -8.610  -0.221  0.00  0.00    +0.127 A 
ATOM     34  C   UNL     1       9.537  -7.941  -0.684  0.00  0.00    +0.047 A 
BRANCH  33  35
ATOM     35  N   UNL     1      11.078  -8.445   1.187  0.00  0.00    +0.056 N 
ATOM     36  O   UNL     1      12.057  -9.027   1.593  0.00  0.00    -0.126 OA
ATOM     37  O   UNL     1      10.449  -7.728   1.930  0.00  0.00    -0.126 OA
ENDBRANCH  33  35
ENDBRANCH  27  29
ENDBRANCH  26  27
ENDBRANCH   5  26
TORSDOF 10
