REMARK  Name = ZINC36493124
REMARK  17 active torsions:
REMARK  status: ('A' for Active; 'I' for Inactive)
REMARK    1  A    between atoms: C_1  and  C_2
REMARK    2  A    between atoms: C_2  and  C_3
REMARK    3  A    between atoms: N_5  and  C_6
REMARK    4  A    between atoms: N_5  and  C_12
REMARK    5  A    between atoms: C_12  and  C_14
REMARK    6  A    between atoms: C_12  and  C_23
REMARK    7  A    between atoms: C_15  and  O_22
REMARK    8  A    between atoms: C_17  and  O_21
REMARK    9  A    between atoms: C_19  and  O_20
REMARK   10  A    between atoms: N_25  and  C_26
REMARK   11  A    between atoms: C_26  and  C_27
REMARK   12  A    between atoms: C_26  and  C_28
REMARK   13  A    between atoms: C_26  and  C_29
REMARK   14  A    between atoms: C_29  and  C_30
REMARK   15  A    between atoms: C_30  and  C_31
REMARK   16  A    between atoms: C_30  and  C_32
REMARK   17  A    between atoms: C_30  and  C_33
REMARK                            x       y       z     vdW  Elec       q    Type
REMARK                         _______ _______ _______ _____ _____    ______ ____
ROOT
ATOM      1  C   UNL     1       1.685  -1.647  -1.321  0.00  0.00    +0.199 C 
ENDROOT
BRANCH   1   2
ATOM      2  C   UNL     1       2.737  -1.292  -2.340  0.00  0.00    +0.065 A 
ATOM      3  C   UNL     1       3.287  -0.019  -2.355  0.00  0.00    +0.129 A 
ATOM      4  C   UNL     1       4.255   0.307  -3.293  0.00  0.00    +0.091 A 
ATOM      5  C   UNL     1       4.674  -0.640  -4.216  0.00  0.00    +0.124 A 
ATOM      6  C   UNL     1       4.125  -1.913  -4.200  0.00  0.00    +0.091 A 
ATOM      7  C   UNL     1       3.160  -2.241  -3.260  0.00  0.00    +0.129 A 
BRANCH   7   8
ATOM      8  O   UNL     1       2.625  -3.490  -3.242  0.00  0.00    -0.506 OA
ATOM      9  H   UNL     1       1.839  -3.589  -3.797  0.00  0.00    +0.292 HD
ENDBRANCH   7   8
BRANCH   5  10
ATOM     10  O   UNL     1       5.622  -0.319  -5.135  0.00  0.00    -0.507 OA
ATOM     11  H   UNL     1       6.527  -0.492  -4.843  0.00  0.00    +0.292 HD
ENDBRANCH   5  10
BRANCH   3  12
ATOM     12  O   UNL     1       2.877   0.908  -1.450  0.00  0.00    -0.506 OA
ATOM     13  H   UNL     1       3.438   0.966  -0.664  0.00  0.00    +0.292 HD
ENDBRANCH   3  12
ENDBRANCH   1   2
BRANCH   1  14
ATOM     14  C   UNL     1       2.220  -1.387   0.064  0.00  0.00    +0.239 C 
ATOM     15  O   UNL     1       1.776  -0.471   0.723  0.00  0.00    -0.273 OA
ATOM     16  N   UNL     1       3.191  -2.172   0.570  0.00  0.00    -0.308 N 
ATOM     17  H   UNL     1       3.546  -2.905   0.043  0.00  0.00    +0.149 HD
BRANCH  16  18
ATOM     18  C   UNL     1       3.710  -1.919   1.916  0.00  0.00    +0.030 C 
ATOM     19  C   UNL     1       4.455  -0.583   1.933  0.00  0.00    +0.031 C 
ATOM     20  C   UNL     1       2.548  -1.867   2.910  0.00  0.00    +0.031 C 
BRANCH  18  21
ATOM     21  C   UNL     1       4.670  -3.043   2.312  0.00  0.00    +0.031 C 
BRANCH  21  22
ATOM     22  C   UNL     1       3.883  -4.341   2.505  0.00  0.00    -0.036 C 
ATOM     23  C   UNL     1       2.825  -4.464   1.407  0.00  0.00    +0.010 C 
ATOM     24  C   UNL     1       4.840  -5.533   2.428  0.00  0.00    +0.010 C 
ATOM     25  C   UNL     1       3.199  -4.324   3.873  0.00  0.00    +0.010 C 
ENDBRANCH  21  22
ENDBRANCH  18  21
ENDBRANCH  16  18
ENDBRANCH   1  14
BRANCH   1  28
ATOM     26  C   UNL     1      -0.627  -1.057  -0.831  0.00  0.00    +0.216 C 
ATOM     27  O   UNL     1      -1.653  -0.472  -1.105  0.00  0.00    -0.276 OA
ATOM     28  N   UNL     1       0.492  -0.828  -1.546  0.00  0.00    -0.283 N 
BRANCH  28  29
ATOM     29  C   UNL     1       0.514   0.240  -2.549  0.00  0.00    +0.077 C 
ATOM     30  C   UNL     1       0.131   1.566  -1.890  0.00  0.00    +0.022 C 
ATOM     31  C   UNL     1       0.155   2.681  -2.937  0.00  0.00    +0.002 C 
ATOM     32  C   UNL     1      -0.844   2.357  -4.050  0.00  0.00    +0.000 C 
ATOM     33  C   UNL     1      -0.461   1.031  -4.709  0.00  0.00    +0.002 C 
ATOM     34  C   UNL     1      -0.484  -0.084  -3.661  0.00  0.00    +0.022 C 
ENDBRANCH  28  29
BRANCH  26  36
ATOM     35  C   UNL     1      -1.972  -2.060   0.996  0.00  0.00    +0.013 C 
ATOM     36  C   UNL     1      -0.604  -2.041   0.311  0.00  0.00    +0.092 C 
ENDBRANCH  26  36
ENDBRANCH   1  28
TORSDOF 11
