REMARK  Name = ZINC13570998
REMARK  8 active torsions:
REMARK  status: ('A' for Active; 'I' for Inactive)
REMARK    1  A    between atoms: C_4  and  C_7
REMARK    2  A    between atoms: C_7  and  C_8
REMARK    3  A    between atoms: C_8  and  C_10
REMARK    4  A    between atoms: C_8  and  N_22
REMARK    5  A    between atoms: N_12  and  C_13
REMARK    6  A    between atoms: C_13  and  C_14
REMARK    7  A    between atoms: C_14  and  C_15
REMARK    8  A    between atoms: C_27  and  O_35
REMARK                            x       y       z     vdW  Elec       q    Type
REMARK                         _______ _______ _______ _____ _____    ______ ____
ROOT
ATOM      1  C   UNL     1      -2.945   0.711   1.462  0.00  0.00    +0.165 C 
ENDROOT
BRANCH   1   2
ATOM      2  N   UNL     1      -3.249   1.981   2.126  0.00  0.00    -0.287 N 
ATOM      3  C   UNL     1      -2.260   2.700   2.692  0.00  0.00    +0.308 C 
ATOM      4  O   UNL     1      -1.114   2.294   2.652  0.00  0.00    -0.252 OA
ATOM      5  N   UNL     1      -2.540   3.868   3.302  0.00  0.00    -0.245 N 
ATOM      6  C   UNL     1      -3.914   4.393   3.364  0.00  0.00    +0.210 C 
ATOM      7  C   UNL     1      -3.886   5.879   3.142  0.00  0.00    +0.206 C 
ATOM      8  N   UNL     1      -2.847   6.591   3.443  0.00  0.00    -0.214 NA
ATOM      9  C   UNL     1      -1.715   6.030   3.970  0.00  0.00    +0.089 A 
ATOM     10  C   UNL     1      -1.533   4.641   3.901  0.00  0.00    +0.064 A 
ATOM     11  C   UNL     1      -0.390   4.062   4.415  0.00  0.00    +0.026 A 
ATOM     12  C   UNL     1       0.578   4.858   5.003  0.00  0.00    +0.002 A 
ATOM     13  C   UNL     1       0.403   6.228   5.079  0.00  0.00    +0.002 A 
ATOM     14  C   UNL     1      -0.736   6.819   4.567  0.00  0.00    +0.030 A 
ATOM     15  H   UNL     1      -4.163   2.305   2.158  0.00  0.00    +0.151 HD
BRANCH   7  16
ATOM     16  O   UNL     1      -4.968   6.485   2.613  0.00  0.00    -0.494 OA
ATOM     17  H   UNL     1      -4.868   7.440   2.499  0.00  0.00    +0.293 HD
ENDBRANCH   7  16
ENDBRANCH   1   2
BRANCH   1  18
ATOM     18  C   UNL     1      -4.172  -0.164   1.465  0.00  0.00    +0.234 C 
ATOM     19  O   UNL     1      -5.200   0.234   1.972  0.00  0.00    -0.274 OA
ATOM     20  N   UNL     1      -4.127  -1.389   0.905  0.00  0.00    -0.313 N 
ATOM     21  H   UNL     1      -3.306  -1.708   0.500  0.00  0.00    +0.149 HD
BRANCH  20  22
ATOM     22  C   UNL     1      -5.320  -2.240   0.908  0.00  0.00    +0.109 C 
BRANCH  22  23
ATOM     23  C   UNL     1      -5.002  -3.567   0.215  0.00  0.00    +0.054 C 
BRANCH  23  24
ATOM     24  C   UNL     1      -6.229  -4.441   0.218  0.00  0.00    -0.046 A 
ATOM     25  C   UNL     1      -6.453  -5.314   1.267  0.00  0.00    +0.005 A 
ATOM     26  C   UNL     1      -7.581  -6.113   1.273  0.00  0.00    +0.020 A 
ATOM     27  C   UNL     1      -8.481  -6.047   0.224  0.00  0.00    +0.041 A 
ATOM     28  C   UNL     1      -8.253  -5.177  -0.828  0.00  0.00    +0.020 A 
ATOM     29  C   UNL     1      -7.128  -4.375  -0.830  0.00  0.00    +0.005 A 
ATOM     30 CL   UNL     1      -9.894  -7.054   0.227  0.00  0.00    -0.084 Cl
ENDBRANCH  23  24
ENDBRANCH  22  23
ENDBRANCH  20  22
ENDBRANCH   1  18
BRANCH   1  31
ATOM     31  C   UNL     1      -2.514   0.980   0.019  0.00  0.00    +0.067 C 
BRANCH  31  35
ATOM     32  C   UNL     1       1.156   3.165   0.008  0.00  0.00    +0.000 A 
ATOM     33  C   UNL     1       1.175   1.783   0.000  0.00  0.00    +0.000 A 
ATOM     34  C   UNL     1      -0.013   1.076   0.008  0.00  0.00    +0.004 A 
ATOM     35  C   UNL     1      -1.219   1.751   0.017  0.00  0.00    -0.045 A 
ATOM     36  C   UNL     1      -1.238   3.133   0.030  0.00  0.00    +0.004 A 
ATOM     37  C   UNL     1      -0.050   3.840   0.022  0.00  0.00    +0.000 A 
ENDBRANCH  31  35
ENDBRANCH   1  31
TORSDOF 8
