REMARK  Name = ZINC15537229
REMARK  4 active torsions:
REMARK  status: ('A' for Active; 'I' for Inactive)
REMARK    1  A    between atoms: C_3  and  C_10
REMARK    2  A    between atoms: C_5  and  N_7
REMARK    3  A    between atoms: N_12  and  N_13
REMARK    4  A    between atoms: C_14  and  C_16
REMARK                            x       y       z     vdW  Elec       q    Type
REMARK                         _______ _______ _______ _____ _____    ______ ____
ROOT
ATOM      1  C   UNL     1       3.657   2.160  -0.022  0.00  0.00    +0.260 C 
ATOM      2  O   UNL     1       4.716   1.564  -0.035  0.00  0.00    -0.269 OA
ATOM      3  N   UNL     1       3.642   3.508  -0.015  0.00  0.00    -0.230 N 
ATOM      4  H   UNL     1       2.797   3.984  -0.004  0.00  0.00    +0.173 HD
ENDROOT
BRANCH   1   7
ATOM      5  C   UNL     1      -0.017   1.379   0.010  0.00  0.00    +0.003 A 
ATOM      6  C   UNL     1       1.167   2.088   0.002  0.00  0.00    +0.013 A 
ATOM      7  C   UNL     1       2.385   1.407  -0.013  0.00  0.00    +0.040 A 
ATOM      8  C   UNL     1       2.397   0.011  -0.021  0.00  0.00    +0.045 A 
ATOM      9  C   UNL     1       1.206  -0.686  -0.013  0.00  0.00    +0.127 A 
ATOM     10  C   UNL     1       0.002  -0.004   0.002  0.00  0.00    +0.033 A 
BRANCH   9  11
ATOM     11  N   UNL     1       1.217  -2.166  -0.022  0.00  0.00    +0.056 N 
ATOM     12  O   UNL     1       2.268  -2.763  -0.035  0.00  0.00    -0.126 OA
ATOM     13  O   UNL     1       0.174  -2.778  -0.015  0.00  0.00    -0.126 OA
ENDBRANCH   9  11
ENDBRANCH   1   7
BRANCH   3  14
ATOM     14  N   UNL     1       4.848   4.222  -0.023  0.00  0.00    -0.230 N 
ATOM     15  C   UNL     1       4.833   5.569  -0.016  0.00  0.00    +0.267 C 
ATOM     16  O   UNL     1       3.772   6.166  -0.003  0.00  0.00    -0.268 OA
ATOM     17  H   UNL     1       5.693   3.746  -0.034  0.00  0.00    +0.173 HD
BRANCH  15  18
ATOM     18  C   UNL     1       6.093   6.316  -0.025  0.00  0.00    +0.076 A 
ATOM     19  C   UNL     1       6.297   7.688  -0.014  0.00  0.00    +0.022 A 
ATOM     20  C   UNL     1       7.608   8.097  -0.025  0.00  0.00    +0.024 A 
ATOM     21  C   UNL     1       8.591   7.161  -0.046  0.00  0.00    +0.056 A 
ATOM     22  S   UNL     1       7.765   5.697  -0.043  0.00  0.00    -0.077 S 
ATOM     23 BR   UNL     1      10.461   7.439  -0.066  0.00  0.00    -0.043 Br
ENDBRANCH  15  18
ENDBRANCH   3  14
TORSDOF 4
