REMARK  Name = ZINC40687339
REMARK  4 active torsions:
REMARK  status: ('A' for Active; 'I' for Inactive)
REMARK    1  A    between atoms: C_1  and  C_2
REMARK    2  A    between atoms: C_9  and  N_12
REMARK    3  A    between atoms: C_14  and  N_28
REMARK    4  A    between atoms: C_15  and  N_19
REMARK                            x       y       z     vdW  Elec       q    Type
REMARK                         _______ _______ _______ _____ _____    ______ ____
ROOT
ATOM      1  N   UNL     1       0.053  -1.960   3.624  0.00  0.00    -0.298 N 
ATOM      2  C   UNL     1      -0.042  -2.641   4.832  0.00  0.00    +0.126 A 
ATOM      3  C   UNL     1      -0.161  -1.941   6.034  0.00  0.00    +0.104 A 
ATOM      4  C   UNL     1      -0.254  -2.674   7.218  0.00  0.00    +0.151 A 
ATOM      5  N   UNL     1      -0.225  -4.004   7.157  0.00  0.00    -0.220 NA
ATOM      6  C   UNL     1      -0.111  -4.626   6.001  0.00  0.00    +0.200 A 
ATOM      7  N   UNL     1      -0.026  -3.972   4.860  0.00  0.00    -0.333 N 
ATOM      8  H   UNL     1       0.126  -0.993   3.617  0.00  0.00    +0.154 HD
ATOM      9  H   UNL     1       0.052  -4.467   4.030  0.00  0.00    +0.168 HD
ENDROOT
BRANCH   1  18
ATOM     10  C   UNL     1      -4.522  -3.962   3.280  0.00  0.00    +0.065 C 
ATOM     11  C   UNL     1      -3.303  -4.001   2.394  0.00  0.00    +0.039 A 
ATOM     12  C   UNL     1      -3.354  -4.720   1.202  0.00  0.00    +0.023 A 
ATOM     13  C   UNL     1      -2.259  -4.766   0.387  0.00  0.00    +0.012 A 
ATOM     14  C   UNL     1      -1.101  -4.073   0.790  0.00  0.00    +0.002 A 
ATOM     15  C   UNL     1       0.062  -4.075   0.003  0.00  0.00    +0.010 A 
ATOM     16  C   UNL     1       1.166  -3.395   0.419  0.00  0.00    +0.003 A 
ATOM     17  C   UNL     1       1.163  -2.693   1.621  0.00  0.00    +0.025 A 
ATOM     18  C   UNL     1       0.042  -2.667   2.421  0.00  0.00    +0.059 A 
ATOM     19  C   UNL     1      -1.119  -3.362   2.015  0.00  0.00    +0.092 A 
ATOM     20  N   UNL     1      -2.225  -3.353   2.763  0.00  0.00    -0.250 NA
ENDBRANCH   1  18
BRANCH   4  21
ATOM     21  N   UNL     1      -0.373  -2.026   8.442  0.00  0.00    -0.283 N 
ATOM     22  C   UNL     1      -1.635  -1.571   9.031  0.00  0.00    +0.117 C 
ATOM     23  C   UNL     1      -1.245  -0.925  10.371  0.00  0.00    +0.056 C 
ATOM     24  C   UNL     1       0.259  -1.069  10.438  0.00  0.00    -0.025 A 
ATOM     25  C   UNL     1       0.691  -1.720   9.293  0.00  0.00    +0.038 A 
ATOM     26  C   UNL     1       2.054  -1.975   9.132  0.00  0.00    +0.024 A 
ATOM     27  C   UNL     1       2.953  -1.587  10.103  0.00  0.00    +0.002 A 
ATOM     28  C   UNL     1       2.511  -0.942  11.243  0.00  0.00    +0.000 A 
ATOM     29  C   UNL     1       1.164  -0.678  11.406  0.00  0.00    +0.005 A 
ENDBRANCH   4  21
BRANCH   3  30
ATOM     30  N   UNL     1      -0.187  -0.537   6.051  0.00  0.00    -0.353 N 
ATOM     31  H   UNL     1      -0.197  -0.042   5.217  0.00  0.00    +0.143 HD
ATOM     32  H   UNL     1      -0.196  -0.063   6.897  0.00  0.00    +0.143 HD
ENDBRANCH   3  30
TORSDOF 3
