REMARK  Name = ZINC36249263
REMARK  10 active torsions:
REMARK  status: ('A' for Active; 'I' for Inactive)
REMARK    1  A    between atoms: C_1  and  N_2
REMARK    2  A    between atoms: N_2  and  C_3
REMARK    3  A    between atoms: N_2  and  C_4
REMARK    4  A    between atoms: C_4  and  C_5
REMARK    5  A    between atoms: C_5  and  N_6
REMARK    6  A    between atoms: N_6  and  C_7
REMARK    7  A    between atoms: C_7  and  C_8
REMARK    8  A    between atoms: C_9  and  C_19
REMARK    9  A    between atoms: C_12  and  N_13
REMARK   10  A    between atoms: C_26  and  C_28
REMARK                            x       y       z     vdW  Elec       q    Type
REMARK                         _______ _______ _______ _____ _____    ______ ____
ROOT
ATOM      1  C   UNL     1      -3.275  -3.675  -2.152  0.00  0.00    +0.059 A 
ATOM      2  C   UNL     1      -2.427  -3.574  -3.275  0.00  0.00    +0.120 A 
ATOM      3  N   UNL     1      -2.195  -4.788  -3.717  0.00  0.00    -0.076 NA
ATOM      4  O   UNL     1      -2.892  -5.698  -2.886  0.00  0.00    -0.339 OA
ATOM      5  C   UNL     1      -3.534  -4.990  -1.941  0.00  0.00    +0.226 A 
ENDROOT
BRANCH   2   6
ATOM      6  C   UNL     1      -1.891  -2.316  -3.854  0.00  0.00    +0.004 A 
ATOM      7  C   UNL     1      -2.742  -1.238  -4.090  0.00  0.00    +0.013 A 
ATOM      8  C   UNL     1      -2.240  -0.071  -4.628  0.00  0.00    +0.039 A 
ATOM      9  C   UNL     1      -0.892   0.030  -4.933  0.00  0.00    +0.123 A 
ATOM     10  C   UNL     1      -0.043  -1.040  -4.701  0.00  0.00    +0.039 A 
ATOM     11  C   UNL     1      -0.536  -2.209  -4.157  0.00  0.00    +0.013 A 
ATOM     12  F   UNL     1      -0.405   1.175  -5.460  0.00  0.00    -0.205 F 
ENDBRANCH   2   6
BRANCH   5  13
ATOM     13  N   UNL     1      -4.324  -5.511  -0.932  0.00  0.00    -0.295 N 
ATOM     14  C   UNL     1      -5.783  -5.316  -0.935  0.00  0.00    +0.136 C 
ATOM     15  C   UNL     1      -6.453  -6.681  -0.737  0.00  0.00    +0.179 C 
ATOM     16  O   UNL     1      -5.899  -7.314   0.419  0.00  0.00    -0.377 OA
ATOM     17  C   UNL     1      -4.501  -7.594   0.320  0.00  0.00    +0.179 C 
ATOM     18  C   UNL     1      -3.731  -6.281   0.172  0.00  0.00    +0.136 C 
ENDBRANCH   5  13
BRANCH   1  19
ATOM     19  C   UNL     1      -3.797  -2.526  -1.329  0.00  0.00    +0.150 C 
BRANCH  19  20
ATOM     20  N   UNL     1      -2.775  -2.113  -0.364  0.00  0.00    -0.292 N 
ATOM     21  C   UNL     1      -2.822  -2.566   0.904  0.00  0.00    +0.282 C 
ATOM     22  O   UNL     1      -3.672  -3.375   1.229  0.00  0.00    -0.267 OA
BRANCH  21  23
ATOM     23  C   UNL     1      -1.851  -2.086   1.892  0.00  0.00    +0.189 A 
ATOM     24  C   UNL     1      -1.737  -2.518   3.182  0.00  0.00    +0.054 A 
ATOM     25  C   UNL     1      -0.683  -1.793   3.759  0.00  0.00    +0.042 A 
ATOM     26  C   UNL     1      -0.206  -0.960   2.808  0.00  0.00    +0.196 A 
ATOM     27  O   UNL     1      -0.908  -1.143   1.683  0.00  0.00    -0.458 OA
ENDBRANCH  21  23
BRANCH  20  28
ATOM     28  C   UNL     1      -1.701  -1.206  -0.778  0.00  0.00    +0.090 C 
BRANCH  28  29
ATOM     29  C   UNL     1      -2.085   0.233  -0.428  0.00  0.00    -0.060 C 
BRANCH  29  31
ATOM     30  C   UNL     1      -1.426   2.532  -0.618  0.00  0.00    -0.097 C 
ATOM     31  N   UNL     1      -1.008   1.142  -0.843  0.00  0.00    +0.377 N 
ATOM     32  C   UNL     1       0.201   0.860  -0.057  0.00  0.00    -0.097 C 
ATOM     33  H   UNL     1      -0.811   1.005  -1.823  0.00  0.00    -0.083 HD
ENDBRANCH  29  31
ENDBRANCH  28  29
ENDBRANCH  20  28
ENDBRANCH  19  20
ENDBRANCH   1  19
TORSDOF 8
