REMARK  Name = ZINC20581844
REMARK  5 active torsions:
REMARK  status: ('A' for Active; 'I' for Inactive)
REMARK    1  A    between atoms: C_1  and  C_2
REMARK    2  A    between atoms: C_5  and  N_9
REMARK    3  A    between atoms: C_11  and  C_16
REMARK    4  A    between atoms: C_22  and  C_24
REMARK    5  A    between atoms: C_25  and  C_26
REMARK                            x       y       z     vdW  Elec       q    Type
REMARK                         _______ _______ _______ _____ _____    ______ ____
ROOT
ATOM      1  C   UNL     1       3.846  10.420   0.024  0.00  0.00    +0.109 A 
ATOM      2  N   UNL     1       2.651   9.865   0.046  0.00  0.00    -0.144 NA
ATOM      3  N   UNL     1       2.491   8.614   0.045  0.00  0.00    -0.126 NA
ATOM      4  C   UNL     1       3.520   7.777   0.021  0.00  0.00    +0.188 A 
ATOM      5  S   UNL     1       4.872   8.952   0.005  0.00  0.00    -0.035 S 
ATOM      6  N   UNL     1       3.543   6.388   0.016  0.00  0.00    -0.260 N 
ATOM      7  C   UNL     1       2.387   5.695   0.037  0.00  0.00    +0.243 C 
ATOM      8  O   UNL     1       1.323   6.286   0.061  0.00  0.00    -0.270 OA
ATOM      9  H   UNL     1       4.504   5.854  -0.005  0.00  0.00    +0.157 HD
ENDROOT
BRANCH   1  12
ATOM     10  N   UNL     1       3.333  13.938   0.839  0.00  0.00    -0.271 N 
ATOM     11  C   UNL     1       3.712  12.592   1.283  0.00  0.00    +0.124 C 
ATOM     12  C   UNL     1       4.239  11.875   0.021  0.00  0.00    +0.073 C 
ATOM     13  C   UNL     1       3.508  12.642  -1.106  0.00  0.00    +0.108 C 
ATOM     14  C   UNL     1       3.206  13.994  -0.498  0.00  0.00    +0.220 C 
ATOM     15  O   UNL     1       2.894  14.984  -1.125  0.00  0.00    -0.275 OA
BRANCH  10  20
ATOM     16  C   UNL     1       2.509  18.342   4.321  0.00  0.00    +0.045 C 
ATOM     17  C   UNL     1       2.727  17.172   3.396  0.00  0.00    -0.032 A 
ATOM     18  C   UNL     1       2.965  15.914   3.919  0.00  0.00    +0.006 A 
ATOM     19  C   UNL     1       3.166  14.841   3.074  0.00  0.00    +0.024 A 
ATOM     20  C   UNL     1       3.129  15.025   1.698  0.00  0.00    +0.038 A 
ATOM     21  C   UNL     1       2.895  16.290   1.175  0.00  0.00    +0.043 A 
ATOM     22  C   UNL     1       2.690  17.360   2.026  0.00  0.00    +0.046 A 
ATOM     23 CL   UNL     1       2.391  18.941   1.374  0.00  0.00    -0.083 Cl
ENDBRANCH  10  20
ENDBRANCH   1  12
BRANCH   7  24
ATOM     24  C   UNL     1       2.411   4.232   0.032  0.00  0.00    +0.068 C 
ATOM     25  C   UNL     1       1.254   3.538   0.053  0.00  0.00    +0.013 C 
BRANCH  25  26
ATOM     26  C   UNL     1       1.278   2.067   0.048  0.00  0.00    -0.025 A 
ATOM     27  C   UNL     1       0.081   1.345   0.070  0.00  0.00    +0.009 A 
ATOM     28  C   UNL     1       0.111  -0.033   0.065  0.00  0.00    +0.020 A 
ATOM     29  C   UNL     1       1.324  -0.703   0.039  0.00  0.00    +0.041 A 
ATOM     30  C   UNL     1       2.514   0.006   0.017  0.00  0.00    +0.020 A 
ATOM     31  C   UNL     1       2.499   1.385   0.022  0.00  0.00    +0.009 A 
ATOM     32 CL   UNL     1       1.353  -2.439   0.034  0.00  0.00    -0.084 Cl
ENDBRANCH  25  26
ENDBRANCH   7  24
TORSDOF 4
