REMARK  Name = ZINC13773880
REMARK  8 active torsions:
REMARK  status: ('A' for Active; 'I' for Inactive)
REMARK    1  A    between atoms: C_1  and  C_2
REMARK    2  A    between atoms: C_2  and  C_3
REMARK    3  A    between atoms: C_3  and  O_4
REMARK    4  A    between atoms: O_4  and  C_5
REMARK    5  A    between atoms: C_10  and  N_11
REMARK    6  A    between atoms: C_17  and  C_26
REMARK    7  A    between atoms: C_17  and  C_27
REMARK    8  A    between atoms: C_23  and  C_25
REMARK                            x       y       z     vdW  Elec       q    Type
REMARK                         _______ _______ _______ _____ _____    ______ ____
ROOT
ATOM      1  N   UNL     1       0.848  -4.692  -1.408  0.00  0.00    -0.236 NA
ATOM      2  C   UNL     1       0.815  -6.014  -1.529  0.00  0.00    +0.117 A 
ATOM      3  C   UNL     1       0.182  -6.925  -0.632  0.00  0.00    +0.029 A 
ATOM      4  C   UNL     1       0.125  -8.285  -0.780  0.00  0.00    +0.030 A 
ATOM      5  S   UNL     1       0.946  -8.831  -2.143  0.00  0.00    -0.052 S 
ATOM      6  S   UNL     1       1.550  -6.969  -2.848  0.00  0.00    -0.032 S 
ATOM      7  C   UNL     1      -0.617  -9.205   0.169  0.00  0.00    +0.059 C 
ATOM      8  N   UNL     1      -0.657  -8.584   1.498  0.00  0.00    -0.334 N 
ATOM      9  C   UNL     1      -0.907  -7.213   1.607  0.00  0.00    +0.036 A 
ATOM     10  C   UNL     1      -0.501  -6.349   0.589  0.00  0.00    +0.006 A 
ATOM     11  C   UNL     1      -0.720  -4.984   0.686  0.00  0.00    +0.011 A 
ATOM     12  C   UNL     1      -1.360  -4.481   1.806  0.00  0.00    +0.004 A 
ATOM     13  C   UNL     1      -1.776  -5.335   2.812  0.00  0.00    -0.049 A 
ATOM     14  C   UNL     1      -1.553  -6.698   2.720  0.00  0.00    +0.027 A 
ATOM     15  C   UNL     1      -2.478  -4.774   4.021  0.00  0.00    +0.044 C 
ATOM     16  C   UNL     1      -2.043  -9.422  -0.339  0.00  0.00    +0.037 C 
ATOM     17  C   UNL     1       0.111 -10.548   0.252  0.00  0.00    +0.037 C 
ATOM     18  H   UNL     1      -0.512  -9.120   2.294  0.00  0.00    +0.147 HD
ENDROOT
BRANCH   1  24
ATOM     19  C   UNL     1       2.357  -2.953  -2.083  0.00  0.00    +0.146 A 
ATOM     20  C   UNL     1       2.915  -2.190  -3.092  0.00  0.00    +0.048 A 
ATOM     21  C   UNL     1       2.526  -2.385  -4.406  0.00  0.00    +0.004 A 
ATOM     22  C   UNL     1       1.578  -3.342  -4.721  0.00  0.00    +0.002 A 
ATOM     23  C   UNL     1       1.011  -4.113  -3.726  0.00  0.00    +0.031 A 
ATOM     24  C   UNL     1       1.400  -3.929  -2.397  0.00  0.00    +0.107 A 
BRANCH  19  25
ATOM     25  O   UNL     1       2.738  -2.761  -0.792  0.00  0.00    -0.490 OA
BRANCH  25  26
ATOM     26  C   UNL     1       3.717  -1.749  -0.548  0.00  0.00    +0.229 C 
BRANCH  26  28
ATOM     27  C   UNL     1       5.065  -0.596   1.212  0.00  0.00    +0.007 C 
ATOM     28  C   UNL     1       4.017  -1.680   0.951  0.00  0.00    +0.038 C 
ENDBRANCH  26  28
ENDBRANCH  25  26
ENDBRANCH  19  25
ENDBRANCH   1  24
TORSDOF 4
