REMARK  Name = ZINC35855287
REMARK  3 active torsions:
REMARK  status: ('A' for Active; 'I' for Inactive)
REMARK    1  A    between atoms: C_1  and  C_2
REMARK    2  A    between atoms: C_2  and  C_3
REMARK    3  A    between atoms: N_25  and  C_28
REMARK                            x       y       z     vdW  Elec       q    Type
REMARK                         _______ _______ _______ _____ _____    ______ ____
ROOT
ATOM      1  C   UNL     1      -1.412  -0.526   0.013  0.00  0.00    -0.026 A 
ATOM      2  C   UNL     1      -2.011  -0.863   1.209  0.00  0.00    +0.005 A 
ATOM      3  C   UNL     1      -3.308  -1.341   1.229  0.00  0.00    +0.001 A 
ATOM      4  C   UNL     1      -4.008  -1.484   0.044  0.00  0.00    +0.004 A 
ATOM      5  C   UNL     1      -3.413  -1.150  -1.152  0.00  0.00    -0.027 A 
ATOM      6  C   UNL     1      -2.111  -0.661  -1.184  0.00  0.00    +0.039 A 
ATOM      7  N   UNL     1      -1.730  -0.387  -2.499  0.00  0.00    -0.286 N 
ATOM      8  C   UNL     1      -2.711  -0.660  -3.380  0.00  0.00    +0.212 C 
ATOM      9  O   UNL     1      -2.663  -0.522  -4.584  0.00  0.00    -0.277 OA
ATOM     10  C   UNL     1      -3.876  -1.184  -2.582  0.00  0.00    +0.053 C 
ATOM     11  C   UNL     1      -5.114  -0.305  -2.793  0.00  0.00    +0.089 C 
ATOM     12  C   UNL     1      -6.309  -1.297  -2.779  0.00  0.00    +0.074 C 
ATOM     13  C   UNL     1      -5.680  -2.683  -2.543  0.00  0.00    -0.054 C 
ATOM     14  N   UNL     1      -4.257  -2.545  -2.994  0.00  0.00    +0.395 N 
ATOM     15  C   UNL     1      -4.310  -2.610  -4.474  0.00  0.00    -0.076 C 
ATOM     16  C   UNL     1      -5.398  -3.655  -4.793  0.00  0.00    -0.020 C 
ATOM     17  C   UNL     1      -6.316  -3.700  -3.508  0.00  0.00    -0.016 C 
ATOM     18  C   UNL     1      -6.851  -1.210  -4.187  0.00  0.00    +0.229 C 
ATOM     19  O   UNL     1      -7.799  -1.835  -4.613  0.00  0.00    -0.275 OA
ATOM     20  N   UNL     1      -6.123  -0.335  -4.891  0.00  0.00    -0.207 N 
ATOM     21  C   UNL     1      -5.115   0.245  -4.201  0.00  0.00    +0.229 C 
ATOM     22  O   UNL     1      -4.336   1.069  -4.633  0.00  0.00    -0.275 OA
ATOM     23  H   UNL     1      -0.859  -0.040  -2.750  0.00  0.00    +0.155 HD
ATOM     24  H   UNL     1      -3.658  -3.251  -2.592  0.00  0.00    -0.079 HD
ENDROOT
BRANCH  20  25
ATOM     25  C   UNL     1      -6.387  -0.037  -6.236  0.00  0.00    +0.079 A 
ATOM     26  C   UNL     1      -7.248   1.001  -6.563  0.00  0.00    +0.027 A 
ATOM     27  C   UNL     1      -7.506   1.292  -7.888  0.00  0.00    +0.002 A 
ATOM     28  C   UNL     1      -6.907   0.551  -8.891  0.00  0.00    +0.003 A 
ATOM     29  C   UNL     1      -6.048  -0.483  -8.570  0.00  0.00    +0.040 A 
ATOM     30  C   UNL     1      -5.781  -0.777  -7.245  0.00  0.00    +0.145 A 
ATOM     31  F   UNL     1      -4.937  -1.785  -6.932  0.00  0.00    -0.204 F 
ENDBRANCH  20  25
BRANCH   1  33
ATOM     32  C   UNL     1      -0.019   1.526   0.010  0.00  0.00    +0.009 C 
ATOM     33  C   UNL     1       0.002  -0.004   0.002  0.00  0.00    +0.033 C 
ENDBRANCH   1  33
TORSDOF 2
