REMARK  Name = ZINC39995167
REMARK  7 active torsions:
REMARK  status: ('A' for Active; 'I' for Inactive)
REMARK    1  A    between atoms: C_1  and  C_2
REMARK    2  A    between atoms: C_6  and  N_12
REMARK    3  A    between atoms: C_9  and  C_11
REMARK    4  A    between atoms: C_13  and  C_15
REMARK    5  A    between atoms: C_15  and  S_16
REMARK    6  A    between atoms: S_16  and  C_17
REMARK    7  A    between atoms: N_22  and  C_23
REMARK                            x       y       z     vdW  Elec       q    Type
REMARK                         _______ _______ _______ _____ _____    ______ ____
ROOT
ATOM      1  S   UNL     1       6.253  -0.038  -6.136  0.00  0.00    -0.108 S 
ENDROOT
BRANCH   1   2
ATOM      2  C   UNL     1       6.957   1.509  -6.769  0.00  0.00    +0.240 C 
ATOM      3  N   UNL     1       7.315   2.408  -5.657  0.00  0.00    -0.259 N 
ATOM      4  N   UNL     1       6.538   3.561  -5.823  0.00  0.00    -0.283 N 
ATOM      5  C   UNL     1       5.780   3.475  -6.862  0.00  0.00    +0.183 C 
ATOM      6  N   UNL     1       5.946   2.265  -7.527  0.00  0.00    -0.244 N 
ATOM      7  N   UNL     1       4.903   4.471  -7.270  0.00  0.00    -0.303 N 
ATOM      8  C   UNL     1       3.459   4.343  -7.026  0.00  0.00    +0.108 C 
ATOM      9  C   UNL     1       2.971   5.595  -6.292  0.00  0.00    +0.019 C 
ATOM     10  C   UNL     1       3.365   6.838  -7.092  0.00  0.00    +0.003 C 
ATOM     11  C   UNL     1       4.890   6.910  -7.207  0.00  0.00    +0.019 C 
ATOM     12  C   UNL     1       5.401   5.676  -7.947  0.00  0.00    +0.108 C 
ATOM     13  H   UNL     1       7.959   2.235  -4.953  0.00  0.00    +0.169 HD
ATOM     14  H   UNL     1       6.566   4.328  -5.230  0.00  0.00    +0.187 HD
BRANCH   6  15
ATOM     15  C   UNL     1       5.286   1.848  -8.686  0.00  0.00    +0.039 A 
ATOM     16  C   UNL     1       4.452   2.725  -9.367  0.00  0.00    +0.023 A 
ATOM     17  C   UNL     1       3.801   2.309 -10.512  0.00  0.00    +0.002 A 
ATOM     18  C   UNL     1       3.980   1.021 -10.981  0.00  0.00    +0.000 A 
ATOM     19  C   UNL     1       4.810   0.145 -10.306  0.00  0.00    +0.002 A 
ATOM     20  C   UNL     1       5.468   0.556  -9.163  0.00  0.00    +0.023 A 
ENDBRANCH   6  15
ENDBRANCH   1   2
BRANCH   1  21
ATOM     21  C   UNL     1       4.849   0.502  -5.122  0.00  0.00    +0.168 C 
BRANCH  21  23
ATOM     22  N   UNL     1       3.088  -0.544  -3.734  0.00  0.00    -0.285 N 
ATOM     23  C   UNL     1       4.165  -0.703  -4.529  0.00  0.00    +0.225 C 
ATOM     24  O   UNL     1       4.585  -1.816  -4.766  0.00  0.00    -0.275 OA
ATOM     25  H   UNL     1       2.753   0.347  -3.544  0.00  0.00    +0.151 HD
BRANCH  22  30
ATOM     26  C   UNL     1      -0.325   0.684  -0.522  0.00  0.00    +0.030 C 
ATOM     27  C   UNL     1      -0.221  -0.838  -0.647  0.00  0.00    +0.099 C 
ATOM     28  C   UNL     1       0.586  -1.189  -1.868  0.00  0.00    -0.011 C 
ATOM     29  C   UNL     1       1.912  -1.396  -1.789  0.00  0.00    +0.065 C 
ATOM     30  C   UNL     1       2.424  -1.715  -3.157  0.00  0.00    +0.243 C 
ATOM     31  O   UNL     1       1.261  -2.066  -3.938  0.00  0.00    -0.347 OA
ATOM     32  C   UNL     1       0.171  -1.371  -3.296  0.00  0.00    +0.146 C 
ATOM     33  C   UNL     1      -0.052  -0.011  -3.958  0.00  0.00    +0.043 C 
ATOM     34  C   UNL     1       2.596  -1.299  -0.489  0.00  0.00    +0.258 C 
ATOM     35  O   UNL     1       3.807  -1.333  -0.393  0.00  0.00    -0.269 OA
ATOM     36  N   UNL     1       1.790  -1.168   0.594  0.00  0.00    -0.247 N 
ATOM     37  N   UNL     1       0.448  -1.385   0.540  0.00  0.00    -0.233 NA
ATOM     38  H   UNL     1       2.186  -0.910   1.441  0.00  0.00    +0.169 HD
ATOM     39  H   UNL     1       0.235  -2.364   0.656  0.00  0.00    +0.145 HD
ENDBRANCH  22  30
ENDBRANCH  21  23
ENDBRANCH   1  21
TORSDOF 5
