REMARK  Name = ZINC30859865
REMARK  6 active torsions:
REMARK  status: ('A' for Active; 'I' for Inactive)
REMARK    1  A    between atoms: C_4  and  S_7
REMARK    2  A    between atoms: S_7  and  N_10
REMARK    3  A    between atoms: N_21  and  C_22
REMARK    4  A    between atoms: C_22  and  C_23
REMARK    5  A    between atoms: C_23  and  C_25
REMARK    6  A    between atoms: C_23  and  O_32
REMARK                            x       y       z     vdW  Elec       q    Type
REMARK                         _______ _______ _______ _____ _____    ______ ____
ROOT
ATOM      1  N   UNL     1       3.470   0.538   3.452  0.00  0.00    -0.197 N 
ATOM      2  C   UNL     1       4.133   1.349   2.543  0.00  0.00    +0.179 A 
ATOM      3  C   UNL     1       3.452   1.821   1.395  0.00  0.00    +0.161 A 
ATOM      4  N   UNL     1       4.071   2.587   0.521  0.00  0.00    -0.227 NA
ATOM      5  C   UNL     1       5.351   2.932   0.726  0.00  0.00    +0.091 A 
ATOM      6  C   UNL     1       6.031   3.751  -0.189  0.00  0.00    +0.030 A 
ATOM      7  C   UNL     1       7.333   4.083   0.037  0.00  0.00    +0.002 A 
ATOM      8  C   UNL     1       8.002   3.619   1.167  0.00  0.00    +0.002 A 
ATOM      9  C   UNL     1       7.373   2.822   2.075  0.00  0.00    +0.030 A 
ATOM     10  C   UNL     1       6.031   2.460   1.873  0.00  0.00    +0.091 A 
ATOM     11  N   UNL     1       5.391   1.676   2.753  0.00  0.00    -0.226 NA
ATOM     12  N   UNL     1       2.127   1.469   1.186  0.00  0.00    -0.324 N 
ATOM     13  H   UNL     1       2.419   0.263   3.280  0.00  0.00    +0.175 HD
ATOM     14  H   UNL     1       1.607   0.826   1.911  0.00  0.00    +0.148 HD
ENDROOT
BRANCH   1  15
ATOM     15  S   UNL     1       4.261  -0.016   4.797  0.00  0.00    +0.074 S 
ATOM     16  O   UNL     1       3.321  -0.786   5.533  0.00  0.00    -0.150 OA
ATOM     17  O   UNL     1       5.500  -0.550   4.349  0.00  0.00    -0.150 OA
BRANCH  15  21
ATOM     18  C   UNL     1       5.256   3.590   7.346  0.00  0.00    +0.000 A 
ATOM     19  C   UNL     1       4.057   2.926   7.527  0.00  0.00    +0.002 A 
ATOM     20  C   UNL     1       3.753   1.825   6.748  0.00  0.00    +0.029 A 
ATOM     21  C   UNL     1       4.649   1.388   5.790  0.00  0.00    +0.109 A 
ATOM     22  C   UNL     1       5.850   2.049   5.613  0.00  0.00    +0.029 A 
ATOM     23  C   UNL     1       6.151   3.153   6.388  0.00  0.00    +0.002 A 
ENDBRANCH  15  21
ENDBRANCH   1  15
BRANCH  12  24
ATOM     24  C   UNL     1       1.418   1.954  -0.001  0.00  0.00    +0.139 C 
BRANCH  24  25
ATOM     25  C   UNL     1      -0.017   1.425   0.010  0.00  0.00    +0.161 C 
BRANCH  25  26
ATOM     26  C   UNL     1      -0.746   1.924  -1.211  0.00  0.00    -0.018 A 
ATOM     27  C   UNL     1      -0.638   1.241  -2.408  0.00  0.00    +0.007 A 
ATOM     28  C   UNL     1      -1.311   1.695  -3.526  0.00  0.00    +0.020 A 
ATOM     29  C   UNL     1      -2.083   2.840  -3.451  0.00  0.00    +0.041 A 
ATOM     30  C   UNL     1      -2.187   3.527  -2.255  0.00  0.00    +0.020 A 
ATOM     31  C   UNL     1      -1.518   3.068  -1.135  0.00  0.00    +0.007 A 
ATOM     32 CL   UNL     1      -2.924   3.415  -4.857  0.00  0.00    -0.084 Cl
ENDBRANCH  25  26
BRANCH  25  33
ATOM     33  O   UNL     1       0.002  -0.004   0.002  0.00  0.00    -0.386 OA
ATOM     34  H   UNL     1      -0.943  -0.567   0.008  0.00  0.00    +0.210 HD
ENDBRANCH  25  33
ENDBRANCH  24  25
ENDBRANCH  12  24
TORSDOF 6
