REMARK  Name = ZINC10014439
REMARK  5 active torsions:
REMARK  status: ('A' for Active; 'I' for Inactive)
REMARK    1  A    between atoms: C_1  and  N_2
REMARK    2  A    between atoms: C_3  and  C_23
REMARK    3  A    between atoms: C_6  and  S_7
REMARK    4  A    between atoms: S_7  and  C_8
REMARK    5  A    between atoms: C_8  and  C_9
REMARK                            x       y       z     vdW  Elec       q    Type
REMARK                         _______ _______ _______ _____ _____    ______ ____
ROOT
ATOM      1  C   UNL     1      -6.622  -3.938   0.264  0.00  0.00    +0.121 A 
ATOM      2  N   UNL     1      -6.990  -5.227   0.042  0.00  0.00    -0.310 N 
ATOM      3  H   UNL     1      -6.321  -5.880  -0.216  0.00  0.00    +0.170 HD
ATOM      4  C   UNL     1      -8.282  -5.608   0.178  0.00  0.00    +0.259 A 
ATOM      5  O   UNL     1      -8.626  -6.759  -0.017  0.00  0.00    -0.267 OA
ATOM      6  C   UNL     1      -9.254  -4.576   0.572  0.00  0.00    +0.067 A 
ATOM      7  C   UNL     1     -10.607  -4.865   0.740  0.00  0.00    +0.030 A 
ATOM      8  C   UNL     1     -11.475  -3.860   1.109  0.00  0.00    +0.020 A 
ATOM      9  C   UNL     1     -11.011  -2.566   1.316  0.00  0.00    +0.032 A 
ATOM     10  C   UNL     1      -9.677  -2.261   1.155  0.00  0.00    +0.045 A 
ATOM     11  C   UNL     1      -8.778  -3.263   0.781  0.00  0.00    +0.092 A 
ATOM     12  N   UNL     1      -7.456  -3.008   0.617  0.00  0.00    -0.232 NA
ATOM     13 BR   UNL     1      -9.066  -0.495   1.442  0.00  0.00    -0.048 Br
ATOM     14 BR   UNL     1     -13.312  -4.245   1.338  0.00  0.00    -0.050 Br
ENDROOT
BRANCH   1  15
ATOM     15  C   UNL     1      -5.170  -3.570   0.097  0.00  0.00    +0.151 C 
BRANCH  15  16
ATOM     16  S   UNL     1      -4.950  -1.808   0.449  0.00  0.00    -0.078 S 
BRANCH  16  22
ATOM     17  C   UNL     1      -2.949   0.814   0.687  0.00  0.00    +0.153 C 
ATOM     18  N   UNL     1      -2.470  -0.519   0.311  0.00  0.00    -0.303 N 
ATOM     19  C   UNL     1      -1.177  -0.884   0.009  0.00  0.00    +0.200 A 
ATOM     20  N   UNL     1      -1.196  -2.168  -0.276  0.00  0.00    -0.125 NA
ATOM     21  N   UNL     1      -2.393  -2.623  -0.167  0.00  0.00    -0.122 NA
ATOM     22  C   UNL     1      -3.214  -1.659   0.186  0.00  0.00    +0.192 A 
BRANCH  19  23
ATOM     23  C   UNL     1       0.002  -0.004   0.002  0.00  0.00    +0.172 A 
ATOM     24  C   UNL     1       1.303  -0.409  -0.013  0.00  0.00    +0.053 A 
ATOM     25  C   UNL     1       2.091   0.758  -0.014  0.00  0.00    +0.042 A 
ATOM     26  C   UNL     1       1.245   1.807  -0.000  0.00  0.00    +0.196 A 
ATOM     27  O   UNL     1      -0.016   1.343   0.009  0.00  0.00    -0.460 OA
ENDBRANCH  19  23
ENDBRANCH  16  22
ENDBRANCH  15  16
ENDBRANCH   1  15
TORSDOF 4
