REMARK  Name = ZINC09439136
REMARK  5 active torsions:
REMARK  status: ('A' for Active; 'I' for Inactive)
REMARK    1  A    between atoms: C_4  and  O_28
REMARK    2  A    between atoms: C_5  and  C_7
REMARK    3  A    between atoms: N_9  and  N_10
REMARK    4  A    between atoms: N_10  and  C_11
REMARK    5  A    between atoms: N_17  and  C_20
REMARK                            x       y       z     vdW  Elec       q    Type
REMARK                         _______ _______ _______ _____ _____    ______ ____
ROOT
ATOM      1  C   UNL     1      -0.965  -5.172   0.863  0.00  0.00    +0.106 C 
ATOM      2  C   UNL     1      -0.977  -6.441   0.306  0.00  0.00    +0.116 C 
ATOM      3  C   UNL     1       0.248  -7.062  -0.217  0.00  0.00    +0.276 C 
ATOM      4  O   UNL     1       1.428  -6.408  -0.169  0.00  0.00    -0.268 OA
ATOM      5  N   UNL     1       0.169  -8.275  -0.736  0.00  0.00    -0.153 NA
ATOM      6  C   UNL     1      -0.980  -8.943  -0.796  0.00  0.00    +0.171 C 
ATOM      7  N   UNL     1      -2.145  -8.457  -0.345  0.00  0.00    -0.216 N 
ATOM      8  C   UNL     1      -2.218  -7.231   0.217  0.00  0.00    +0.263 C 
ATOM      9  O   UNL     1      -3.274  -6.792   0.632  0.00  0.00    -0.269 OA
ATOM     10  S   UNL     1      -0.970 -10.509  -1.489  0.00  0.00    -0.016 S 
ENDROOT
BRANCH   7  11
ATOM     11  C   UNL     1      -3.304  -9.236  -0.452  0.00  0.00    +0.045 A 
ATOM     12  C   UNL     1      -4.121  -9.117  -1.569  0.00  0.00    +0.024 A 
ATOM     13  C   UNL     1      -5.264  -9.886  -1.672  0.00  0.00    +0.003 A 
ATOM     14  C   UNL     1      -5.596 -10.774  -0.665  0.00  0.00    +0.020 A 
ATOM     15  C   UNL     1      -4.784 -10.895   0.449  0.00  0.00    +0.043 A 
ATOM     16  C   UNL     1      -3.636 -10.132   0.555  0.00  0.00    +0.044 A 
ATOM     17 CL   UNL     1      -5.204 -12.010   1.712  0.00  0.00    -0.083 Cl
ENDBRANCH   7  11
BRANCH   1  18
ATOM     18  N   UNL     1       0.168  -4.443   0.853  0.00  0.00    -0.271 N 
ATOM     19  H   UNL     1       0.949  -4.767   0.379  0.00  0.00    +0.169 HD
BRANCH  18  22
ATOM     20  C   UNL     1       1.350  -2.487   1.518  0.00  0.00    +0.264 C 
ATOM     21  O   UNL     1       2.330  -2.893   0.924  0.00  0.00    -0.269 OA
ATOM     22  N   UNL     1       0.217  -3.216   1.528  0.00  0.00    -0.233 N 
ATOM     23  H   UNL     1      -0.565  -2.892   2.002  0.00  0.00    +0.173 HD
BRANCH  20  28
ATOM     24  C   UNL     1       0.333   0.484   3.574  0.00  0.00    +0.001 A 
ATOM     25  C   UNL     1       1.498   1.234   3.565  0.00  0.00    +0.004 A 
ATOM     26  C   UNL     1       2.615   0.780   2.893  0.00  0.00    +0.046 A 
ATOM     27  C   UNL     1       2.578  -0.433   2.222  0.00  0.00    +0.129 A 
ATOM     28  C   UNL     1       1.402  -1.195   2.229  0.00  0.00    +0.079 A 
ATOM     29  C   UNL     1       0.278  -0.723   2.913  0.00  0.00    +0.017 A 
BRANCH  27  30
ATOM     30  O   UNL     1       3.675  -0.880   1.561  0.00  0.00    -0.506 OA
ATOM     31  H   UNL     1       4.266  -1.423   2.101  0.00  0.00    +0.292 HD
ENDBRANCH  27  30
ENDBRANCH  20  28
ENDBRANCH  18  22
ENDBRANCH   1  18
TORSDOF 5
