REMARK  Name = ZINC32944363
REMARK  11 active torsions:
REMARK  status: ('A' for Active; 'I' for Inactive)
REMARK    1  A    between atoms: C_1  and  C_2
REMARK    2  A    between atoms: C_2  and  C_3
REMARK    3  A    between atoms: C_2  and  C_4
REMARK    4  A    between atoms: C_4  and  N_5
REMARK    5  A    between atoms: C_6  and  C_8
REMARK    6  A    between atoms: C_15  and  S_26
REMARK    7  A    between atoms: N_16  and  C_19
REMARK    8  A    between atoms: C_19  and  C_20
REMARK    9  A    between atoms: S_26  and  C_27
REMARK   10  A    between atoms: C_27  and  C_28
REMARK   11  A    between atoms: C_28  and  C_30
REMARK                            x       y       z     vdW  Elec       q    Type
REMARK                         _______ _______ _______ _____ _____    ______ ____
ROOT
ATOM      1  C   UNL     1       2.439   0.933  -0.016  0.00  0.00    +0.039 A 
ATOM      2  C   UNL     1       2.452  -0.468  -0.018  0.00  0.00    +0.014 A 
ATOM      3  C   UNL     1       3.633  -1.152  -0.038  0.00  0.00    +0.016 A 
ATOM      4  C   UNL     1       4.840  -0.454  -0.046  0.00  0.00    +0.065 A 
ATOM      5  C   UNL     1       4.845   0.959  -0.039  0.00  0.00    +0.080 A 
ATOM      6  C   UNL     1       3.629   1.649  -0.024  0.00  0.00    +0.041 A 
ATOM      7  N   UNL     1       6.029   1.616  -0.047  0.00  0.00    -0.223 NA
ATOM      8  C   UNL     1       7.170   0.972  -0.061  0.00  0.00    +0.173 A 
ATOM      9  N   UNL     1       7.256  -0.391  -0.069  0.00  0.00    -0.285 N 
ATOM     10  C   UNL     1       6.136  -1.151  -0.062  0.00  0.00    +0.262 A 
ATOM     11  O   UNL     1       6.199  -2.366  -0.069  0.00  0.00    -0.267 OA
ENDROOT
BRANCH   1  13
ATOM     12  N   UNL     1      -0.011   0.966   0.007  0.00  0.00    -0.311 N 
ATOM     13  C   UNL     1       1.147   1.655   0.000  0.00  0.00    +0.244 C 
ATOM     14  O   UNL     1       1.130   2.871   0.007  0.00  0.00    -0.270 OA
ATOM     15  H   UNL     1       0.004  -0.134   0.006  0.00  0.00    +0.149 HD
BRANCH  12  16
ATOM     16  C   UNL     1      -1.290   1.681   0.017  0.00  0.00    +0.107 C 
BRANCH  16  18
ATOM     17  C   UNL     1      -2.413  -0.131   1.320  0.00  0.00    +0.009 C 
ATOM     18  C   UNL     1      -2.439   0.671   0.017  0.00  0.00    -0.000 C 
ATOM     19  C   UNL     1      -3.771   1.415  -0.098  0.00  0.00    +0.009 C 
ENDBRANCH  16  18
ENDBRANCH  12  16
ENDBRANCH   1  13
BRANCH   9  20
ATOM     20  C   UNL     1       8.571  -1.036  -0.085  0.00  0.00    +0.159 C 
BRANCH  20  21
ATOM     21  C   UNL     1       9.015  -1.254  -1.532  0.00  0.00    +0.138 C 
ATOM     22  C   UNL     1      10.346  -2.035  -1.560  0.00  0.00    +0.035 C 
ATOM     23  C   UNL     1      11.113  -1.340  -2.718  0.00  0.00    +0.031 C 
ATOM     24  C   UNL     1      10.619   0.120  -2.562  0.00  0.00    +0.160 C 
ATOM     25  O   UNL     1       9.243   0.011  -2.166  0.00  0.00    -0.375 OA
ENDBRANCH  20  21
ENDBRANCH   9  20
BRANCH   8  26
ATOM     26  S   UNL     1       8.663   1.908  -0.072  0.00  0.00    -0.080 S 
BRANCH  26  27
ATOM     27  C   UNL     1       7.982   3.585  -0.056  0.00  0.00    +0.157 C 
BRANCH  27  28
ATOM     28  C   UNL     1       9.110   4.585  -0.063  0.00  0.00    +0.173 C 
ATOM     29  O   UNL     1      10.260   4.201  -0.076  0.00  0.00    -0.291 OA
BRANCH  28  30
ATOM     30  C   UNL     1       8.815   6.026  -0.052  0.00  0.00    +0.018 A 
ATOM     31  C   UNL     1       7.489   6.472  -0.043  0.00  0.00    +0.013 A 
ATOM     32  C   UNL     1       7.221   7.824  -0.027  0.00  0.00    +0.020 A 
ATOM     33  C   UNL     1       8.260   8.740  -0.034  0.00  0.00    +0.041 A 
ATOM     34  C   UNL     1       9.576   8.305  -0.049  0.00  0.00    +0.020 A 
ATOM     35  C   UNL     1       9.860   6.957  -0.058  0.00  0.00    +0.013 A 
ATOM     36 CL   UNL     1       7.912  10.441  -0.021  0.00  0.00    -0.084 Cl
ENDBRANCH  28  30
ENDBRANCH  27  28
ENDBRANCH  26  27
ENDBRANCH   8  26
TORSDOF 9
