REMARK  Name = ZINC34758658
REMARK  11 active torsions:
REMARK  status: ('A' for Active; 'I' for Inactive)
REMARK    1  A    between atoms: C_1  and  C_2
REMARK    2  A    between atoms: C_2  and  C_3
REMARK    3  A    between atoms: C_3  and  C_4
REMARK    4  A    between atoms: C_4  and  S_5
REMARK    5  A    between atoms: S_5  and  C_6
REMARK    6  A    between atoms: C_10  and  C_16
REMARK    7  A    between atoms: C_11  and  C_15
REMARK    8  A    between atoms: N_20  and  C_23
REMARK    9  A    between atoms: C_23  and  C_24
REMARK   10  A    between atoms: N_26  and  C_27
REMARK   11  A    between atoms: N_26  and  C_28
REMARK                            x       y       z     vdW  Elec       q    Type
REMARK                         _______ _______ _______ _____ _____    ______ ____
ROOT
ATOM      1  C   UNL     1      -2.951  -4.378  -0.391  0.00  0.00    +0.191 A 
ATOM      2  N   UNL     1      -4.034  -5.145  -0.437  0.00  0.00    -0.206 NA
ATOM      3  C   UNL     1      -3.959  -6.464  -0.491  0.00  0.00    +0.134 A 
ATOM      4  C   UNL     1      -2.681  -7.089  -0.502  0.00  0.00    +0.051 A 
ATOM      5  C   UNL     1      -2.340  -8.501  -0.558  0.00  0.00    -0.028 A 
ATOM      6  C   UNL     1      -1.049  -8.863  -0.559  0.00  0.00    -0.008 A 
ATOM      7  S   UNL     1      -0.180  -7.308  -0.482  0.00  0.00    -0.073 S 
ATOM      8  C   UNL     1      -1.575  -6.213  -0.452  0.00  0.00    +0.115 A 
ATOM      9  N   UNL     1      -1.734  -4.905  -0.404  0.00  0.00    -0.215 NA
ATOM     10  C   UNL     1      -0.470 -10.253  -0.611  0.00  0.00    +0.052 C 
ATOM     11  C   UNL     1      -3.424  -9.546  -0.615  0.00  0.00    +0.045 C 
ATOM     12  N   UNL     1      -5.111  -7.228  -0.537  0.00  0.00    -0.318 N 
ATOM     13  C   UNL     1      -5.843  -7.567   0.693  0.00  0.00    +0.088 C 
ATOM     14  C   UNL     1      -7.321  -7.216   0.492  0.00  0.00    -0.059 C 
ATOM     15  N   UNL     1      -7.822  -7.885  -0.715  0.00  0.00    +0.387 N 
ATOM     16  C   UNL     1      -7.127  -7.365  -1.900  0.00  0.00    -0.059 C 
ATOM     17  C   UNL     1      -5.643  -7.719  -1.818  0.00  0.00    +0.088 C 
ATOM     18  H   UNL     1      -7.659  -8.878  -0.640  0.00  0.00    -0.081 HD
ENDROOT
BRANCH   1  19
ATOM     19  S   UNL     1      -3.134  -2.627  -0.320  0.00  0.00    -0.086 S 
BRANCH  19  20
ATOM     20  C   UNL     1      -1.429  -2.009  -0.281  0.00  0.00    +0.077 C 
BRANCH  20  21
ATOM     21  C   UNL     1      -1.442  -0.480  -0.218  0.00  0.00    +0.011 C 
BRANCH  21  23
ATOM     22  C   UNL     1      -0.018   1.570  -0.122  0.00  0.00    +0.004 C 
ATOM     23  C   UNL     1      -0.004   0.041  -0.185  0.00  0.00    -0.003 C 
ENDBRANCH  21  23
ENDBRANCH  20  21
ENDBRANCH  19  20
ENDBRANCH   1  19
BRANCH  15  24
ATOM     24  C   UNL     1      -9.264  -7.638  -0.847  0.00  0.00    +0.019 C 
BRANCH  24  25
ATOM     25  C   UNL     1      -9.803  -8.422  -2.015  0.00  0.00    +0.199 C 
ATOM     26  O   UNL     1      -9.060  -9.119  -2.673  0.00  0.00    -0.278 OA
ATOM     27  N   UNL     1     -11.112  -8.350  -2.329  0.00  0.00    -0.309 N 
ATOM     28  C   UNL     1     -11.637  -9.113  -3.464  0.00  0.00    +0.131 C 
ATOM     29  C   UNL     1     -12.010  -7.508  -1.534  0.00  0.00    +0.131 C 
ENDBRANCH  24  25
ENDBRANCH  15  24
TORSDOF 6
