REMARK  Name = ZINC42809642
REMARK  5 active torsions:
REMARK  status: ('A' for Active; 'I' for Inactive)
REMARK    1  A    between atoms: C_1  and  C_2
REMARK    2  A    between atoms: C_2  and  C_4
REMARK    3  A    between atoms: C_2  and  N_12
REMARK    4  A    between atoms: N_15  and  N_16
REMARK    5  A    between atoms: C_17  and  C_19
REMARK                            x       y       z     vdW  Elec       q    Type
REMARK                         _______ _______ _______ _____ _____    ______ ____
ROOT
ATOM      1  N   UNL     1      -1.367  -0.518  -0.080  0.00  0.00    -0.292 N 
ATOM      2  C   UNL     1      -1.943  -0.714  -1.283  0.00  0.00    +0.316 C 
ATOM      3  O   UNL     1      -1.325  -0.464  -2.300  0.00  0.00    -0.251 OA
ATOM      4  N   UNL     1      -3.202  -1.187  -1.358  0.00  0.00    -0.218 N 
ATOM      5  H   UNL     1      -1.860  -0.718   0.732  0.00  0.00    +0.151 HD
ATOM      6  H   UNL     1      -3.616  -1.328  -2.224  0.00  0.00    +0.174 HD
ENDROOT
BRANCH   4   7
ATOM      7  N   UNL     1      -3.914  -1.476  -0.186  0.00  0.00    -0.228 N 
ATOM      8  C   UNL     1      -5.173  -1.949  -0.262  0.00  0.00    +0.279 C 
ATOM      9  O   UNL     1      -5.692  -2.126  -1.346  0.00  0.00    -0.267 OA
ATOM     10  H   UNL     1      -3.499  -1.335   0.679  0.00  0.00    +0.173 HD
BRANCH   8  11
ATOM     11  C   UNL     1      -5.926  -2.254   0.979  0.00  0.00    +0.127 A 
ATOM     12  C   UNL     1      -7.234  -2.752   0.881  0.00  0.00    +0.034 A 
ATOM     13  C   UNL     1      -7.938  -3.037   2.016  0.00  0.00    +0.012 A 
ATOM     14  C   UNL     1      -7.315  -2.818   3.259  0.00  0.00    +0.000 A 
ATOM     15  C   UNL     1      -7.980  -3.089   4.465  0.00  0.00    +0.010 A 
ATOM     16  C   UNL     1      -7.346  -2.866   5.649  0.00  0.00    +0.001 A 
ATOM     17  C   UNL     1      -6.043  -2.369   5.681  0.00  0.00    +0.002 A 
ATOM     18  C   UNL     1      -5.368  -2.095   4.533  0.00  0.00    +0.028 A 
ATOM     19  C   UNL     1      -5.989  -2.312   3.288  0.00  0.00    +0.072 A 
ATOM     20  N   UNL     1      -5.349  -2.057   2.148  0.00  0.00    -0.242 NA
ENDBRANCH   8  11
ENDBRANCH   4   7
BRANCH   1  22
ATOM     21  C   UNL     1      -0.026   1.526  -0.016  0.00  0.00    +0.033 C 
ATOM     22  C   UNL     1       0.002  -0.004   0.002  0.00  0.00    +0.104 C 
BRANCH  22  23
ATOM     23  C   UNL     1       0.641  -0.479   1.281  0.00  0.00    +0.008 A 
ATOM     24  C   UNL     1      -0.144  -0.766   2.381  0.00  0.00    +0.011 A 
ATOM     25  C   UNL     1       0.440  -1.202   3.555  0.00  0.00    +0.039 A 
ATOM     26  C   UNL     1       1.815  -1.353   3.630  0.00  0.00    +0.126 A 
ATOM     27  C   UNL     1       2.603  -1.066   2.529  0.00  0.00    +0.077 A 
ATOM     28  C   UNL     1       2.015  -0.634   1.352  0.00  0.00    +0.131 A 
ATOM     29  F   UNL     1       2.783  -0.360   0.275  0.00  0.00    -0.205 F 
ATOM     30  F   UNL     1       2.387  -1.779   4.778  0.00  0.00    -0.205 F 
ENDBRANCH  22  23
ENDBRANCH   1  22
TORSDOF 4
