REMARK  Name = ZINC22457533
REMARK  9 active torsions:
REMARK  status: ('A' for Active; 'I' for Inactive)
REMARK    1  A    between atoms: C_1  and  C_2
REMARK    2  A    between atoms: C_2  and  N_3
REMARK    3  A    between atoms: N_6  and  C_9
REMARK    4  A    between atoms: C_9  and  C_11
REMARK    5  A    between atoms: C_9  and  C_16
REMARK    6  A    between atoms: C_16  and  C_18
REMARK    7  A    between atoms: C_16  and  N_19
REMARK    8  A    between atoms: N_19  and  S_20
REMARK    9  A    between atoms: S_20  and  C_23
REMARK                            x       y       z     vdW  Elec       q    Type
REMARK                         _______ _______ _______ _____ _____    ______ ____
ROOT
ATOM      1  C   UNL     1       3.479  -2.434  -3.607  0.00  0.00    +0.112 C 
ENDROOT
BRANCH   1   5
ATOM      2  N   UNL     1       2.266  -0.419  -0.095  0.00  0.00    +0.381 N 
ATOM      3  C   UNL     1       2.236  -1.887  -0.094  0.00  0.00    -0.063 C 
ATOM      4  C   UNL     1       3.139  -2.417  -1.209  0.00  0.00    +0.066 C 
ATOM      5  N   UNL     1       2.670  -1.902  -2.503  0.00  0.00    -0.297 NA
ATOM      6  C   UNL     1       2.671  -0.432  -2.510  0.00  0.00    +0.066 C 
ATOM      7  C   UNL     1       1.771   0.082  -1.384  0.00  0.00    -0.063 C 
ATOM      8  H   UNL     1       3.214  -0.102   0.047  0.00  0.00    -0.082 HD
BRANCH   2  10
ATOM      9  C   UNL     1       1.999  -0.329   2.338  0.00  0.00    -0.017 C 
ATOM     10  C   UNL     1       1.413   0.089   0.988  0.00  0.00    -0.082 C 
ENDBRANCH   2  10
ENDBRANCH   1   5
BRANCH   1  11
ATOM     11  C   UNL     1       2.963  -1.891  -4.915  0.00  0.00    +0.008 A 
ATOM     12  C   UNL     1       3.660  -1.467  -5.997  0.00  0.00    +0.013 A 
ATOM     13  C   UNL     1       2.969  -1.004  -7.101  0.00  0.00    +0.008 A 
ATOM     14  C   UNL     1       1.614  -0.988  -7.068  0.00  0.00    +0.045 A 
ATOM     15  S   UNL     1       1.276  -1.647  -5.444  0.00  0.00    -0.100 S 
ENDBRANCH   1  11
BRANCH   1  16
ATOM     16  C   UNL     1       3.386  -3.962  -3.617  0.00  0.00    +0.095 C 
ATOM     17  C   UNL     1       1.916  -4.383  -3.686  0.00  0.00    +0.027 C 
BRANCH  16  18
ATOM     18  N   UNL     1       4.100  -4.487  -4.783  0.00  0.00    -0.185 NA
ATOM     19  H   UNL     1       4.094  -3.993  -5.618  0.00  0.00    +0.148 HD
BRANCH  18  20
ATOM     20  S   UNL     1       4.916  -5.923  -4.676  0.00  0.00    +0.059 S 
ATOM     21  O   UNL     1       5.473  -6.171  -5.960  0.00  0.00    -0.153 OA
ATOM     22  O   UNL     1       5.713  -5.851  -3.502  0.00  0.00    -0.153 OA
BRANCH  20  23
ATOM     23  C   UNL     1       3.718  -7.184  -4.395  0.00  0.00    +0.105 A 
ATOM     24  C   UNL     1       3.360  -7.521  -3.103  0.00  0.00    +0.029 A 
ATOM     25  C   UNL     1       2.419  -8.510  -2.882  0.00  0.00    +0.017 A 
ATOM     26  C   UNL     1       1.837  -9.162  -3.954  0.00  0.00    +0.018 A 
ATOM     27  C   UNL     1       2.196  -8.825  -5.247  0.00  0.00    +0.017 A 
ATOM     28  C   UNL     1       3.133  -7.832  -5.467  0.00  0.00    +0.029 A 
ATOM     29 BR   UNL     1       0.551 -10.516  -3.652  0.00  0.00    -0.050 Br
ENDBRANCH  20  23
ENDBRANCH  18  20
ENDBRANCH  16  18
ENDBRANCH   1  16
TORSDOF 7
