REMARK  Name = ZINC39528218
REMARK  6 active torsions:
REMARK  status: ('A' for Active; 'I' for Inactive)
REMARK    1  A    between atoms: C_4  and  C_7
REMARK    2  A    between atoms: C_7  and  C_8
REMARK    3  A    between atoms: C_13  and  N_14
REMARK    4  A    between atoms: C_18  and  S_21
REMARK    5  A    between atoms: S_21  and  O_24
REMARK    6  A    between atoms: O_24  and  C_25
REMARK                            x       y       z     vdW  Elec       q    Type
REMARK                         _______ _______ _______ _____ _____    ______ ____
ROOT
ATOM      1  N   UNL     1       2.992  -3.294   0.667  0.00  0.00    -0.331 N 
ATOM      2  C   UNL     1       3.331  -4.390  -0.254  0.00  0.00    +0.086 C 
ATOM      3  C   UNL     1       2.439  -4.276  -1.494  0.00  0.00    -0.061 C 
ATOM      4  N   UNL     1       1.030  -4.245  -1.082  0.00  0.00    +0.398 N 
ATOM      5  C   UNL     1       0.767  -3.035  -0.293  0.00  0.00    +0.133 C 
ATOM      6  C   UNL     1       1.577  -3.091   1.012  0.00  0.00    +0.115 C 
ATOM      7  H   UNL     1       0.441  -4.246  -1.901  0.00  0.00    -0.083 HD
ATOM      8  H   UNL     1       0.827  -5.060  -0.523  0.00  0.00    -0.083 HD
ENDROOT
BRANCH   1  14
ATOM      9  C   UNL     1       4.448  -1.377   0.485  0.00  0.00    -0.019 A 
ATOM     10  C   UNL     1       5.428  -0.563   1.020  0.00  0.00    +0.044 A 
ATOM     11  C   UNL     1       5.955  -0.842   2.269  0.00  0.00    +0.124 A 
ATOM     12  C   UNL     1       5.502  -1.937   2.985  0.00  0.00    +0.040 A 
ATOM     13  C   UNL     1       4.523  -2.754   2.454  0.00  0.00    +0.026 A 
ATOM     14  C   UNL     1       3.988  -2.472   1.204  0.00  0.00    +0.033 A 
ATOM     15  F   UNL     1       6.913  -0.045   2.790  0.00  0.00    -0.205 F 
BRANCH   9  16
ATOM     16  C   UNL     1       3.874  -1.072  -0.875  0.00  0.00    +0.072 C 
BRANCH  16  20
ATOM     17  C   UNL     1       6.009   2.186  -2.627  0.00  0.00    +0.000 A 
ATOM     18  C   UNL     1       6.454   0.890  -2.809  0.00  0.00    +0.000 A 
ATOM     19  C   UNL     1       5.763  -0.164  -2.242  0.00  0.00    +0.004 A 
ATOM     20  C   UNL     1       4.628   0.077  -1.492  0.00  0.00    -0.043 A 
ATOM     21  C   UNL     1       4.183   1.373  -1.309  0.00  0.00    +0.004 A 
ATOM     22  C   UNL     1       4.873   2.428  -1.877  0.00  0.00    +0.000 A 
ENDBRANCH  16  20
ENDBRANCH   9  16
ENDBRANCH   1  14
BRANCH   5  23
ATOM     23  S   UNL     1      -1.002  -2.941   0.099  0.00  0.00    +0.109 S 
ATOM     24  O   UNL     1      -1.753  -2.699  -1.083  0.00  0.00    -0.138 OA
ATOM     25  O   UNL     1      -1.363  -3.991   0.985  0.00  0.00    -0.138 OA
BRANCH  23  26
ATOM     26  O   UNL     1      -1.153  -1.669   0.921  0.00  0.00    -0.347 OA
BRANCH  26  27
ATOM     27  C   UNL     1      -1.094  -0.526   0.189  0.00  0.00    +0.156 A 
ATOM     28  C   UNL     1       0.122   0.113  -0.004  0.00  0.00    +0.048 A 
ATOM     29  C   UNL     1       0.180   1.274  -0.749  0.00  0.00    +0.004 A 
ATOM     30  C   UNL     1      -0.972   1.800  -1.303  0.00  0.00    +0.000 A 
ATOM     31  C   UNL     1      -2.185   1.165  -1.113  0.00  0.00    +0.004 A 
ATOM     32  C   UNL     1      -2.248  -0.000  -0.373  0.00  0.00    +0.048 A 
ENDBRANCH  26  27
ENDBRANCH  23  26
ENDBRANCH   5  23
TORSDOF 6
