REMARK  Name = ZINC12001108
REMARK  5 active torsions:
REMARK  status: ('A' for Active; 'I' for Inactive)
REMARK    1  A    between atoms: C_1  and  O_2
REMARK    2  A    between atoms: O_2  and  C_3
REMARK    3  A    between atoms: C_6  and  C_9
REMARK    4  A    between atoms: C_9  and  N_10
REMARK    5  A    between atoms: C_15  and  C_23
REMARK                            x       y       z     vdW  Elec       q    Type
REMARK                         _______ _______ _______ _____ _____    ______ ____
ROOT
ATOM      1  N   UNL     1      -5.770   5.727   0.376  0.00  0.00    -0.298 N 
ATOM      2  C   UNL     1      -5.564   4.936   1.594  0.00  0.00    +0.110 C 
ATOM      3  C   UNL     1      -4.691   3.736   1.188  0.00  0.00    +0.003 C 
ATOM      4  C   UNL     1      -3.206   4.032   1.440  0.00  0.00    -0.007 C 
ATOM      5  C   UNL     1      -2.559   4.140   0.047  0.00  0.00    -0.036 C 
ATOM      6  C   UNL     1      -4.852   3.705  -0.344  0.00  0.00    +0.018 C 
ATOM      7  C   UNL     1      -5.428   5.034  -0.725  0.00  0.00    +0.206 C 
ATOM      8  O   UNL     1      -5.567   5.428  -1.863  0.00  0.00    -0.277 OA
ATOM      9  C   UNL     1      -5.681   2.511  -0.809  0.00  0.00    -0.004 C 
ATOM     10  C   UNL     1      -4.648   1.373  -0.963  0.00  0.00    -0.019 C 
ATOM     11  C   UNL     1      -3.273   2.062  -0.994  0.00  0.00    -0.077 C 
ATOM     12  N   UNL     1      -3.518   3.513  -0.881  0.00  0.00    +0.394 N 
ATOM     13  H   UNL     1      -3.440   3.950  -1.807  0.00  0.00    -0.079 HD
ENDROOT
BRANCH   5  14
ATOM     14  C   UNL     1      -1.244   3.405   0.031  0.00  0.00    -0.055 A 
ATOM     15  C   UNL     1      -0.596   3.123   1.219  0.00  0.00    +0.040 A 
ATOM     16  C   UNL     1       0.613   2.448   1.206  0.00  0.00    +0.126 A 
ATOM     17  C   UNL     1       1.173   2.055   0.002  0.00  0.00    +0.076 A 
ATOM     18  C   UNL     1       0.523   2.338  -1.187  0.00  0.00    +0.126 A 
ATOM     19  C   UNL     1      -0.683   3.018  -1.171  0.00  0.00    +0.040 A 
ATOM     20  F   UNL     1       1.068   1.956  -2.363  0.00  0.00    -0.205 F 
ATOM     21  F   UNL     1       1.247   2.173   2.367  0.00  0.00    -0.205 F 
ENDBRANCH   5  14
BRANCH   1  22
ATOM     22  C   UNL     1      -6.284   7.099   0.360  0.00  0.00    +0.142 C 
BRANCH  22  26
ATOM     23  C   UNL     1      -3.022   9.846   0.626  0.00  0.00    +0.120 A 
ATOM     24  C   UNL     1      -3.470   9.417  -0.615  0.00  0.00    +0.046 A 
ATOM     25  C   UNL     1      -4.524   8.529  -0.698  0.00  0.00    +0.009 A 
ATOM     26  C   UNL     1      -5.134   8.068   0.454  0.00  0.00    -0.030 A 
ATOM     27  C   UNL     1      -4.693   8.498   1.692  0.00  0.00    +0.009 A 
ATOM     28  C   UNL     1      -3.635   9.382   1.780  0.00  0.00    +0.046 A 
BRANCH  23  30
ATOM     29  C   UNL     1      -1.577  11.119   2.021  0.00  0.00    +0.277 C 
ATOM     30  O   UNL     1      -1.985  10.721   0.710  0.00  0.00    -0.495 OA
ENDBRANCH  23  30
ENDBRANCH  22  26
ENDBRANCH   1  22
TORSDOF 4
