REMARK  Name = ZINC49458110
REMARK  5 active torsions:
REMARK  status: ('A' for Active; 'I' for Inactive)
REMARK    1  A    between atoms: C_5  and  N_7
REMARK    2  A    between atoms: C_10  and  C_13
REMARK    3  A    between atoms: C_13  and  C_15
REMARK    4  A    between atoms: C_15  and  C_17
REMARK    5  A    between atoms: C_15  and  C_19
REMARK                            x       y       z     vdW  Elec       q    Type
REMARK                         _______ _______ _______ _____ _____    ______ ____
ROOT
ATOM      1  N   UNL     1       1.237  -2.079  -0.021  0.00  0.00    -0.266 N 
ATOM      2  C   UNL     1       1.257  -2.927   1.177  0.00  0.00    +0.119 C 
ATOM      3  C   UNL     1       1.277  -4.369   0.637  0.00  0.00    +0.063 C 
ATOM      4  C   UNL     1       1.267  -4.196  -0.866  0.00  0.00    +0.060 C 
ATOM      5  C   UNL     1       1.238  -2.850  -1.139  0.00  0.00    +0.250 C 
ATOM      6  O   UNL     1       1.216  -2.347  -2.390  0.00  0.00    -0.270 OA
ENDROOT
BRANCH   1  11
ATOM      7  C   UNL     1      -0.017   1.377   0.010  0.00  0.00    +0.002 A 
ATOM      8  C   UNL     1       1.170   2.086   0.002  0.00  0.00    +0.001 A 
ATOM      9  C   UNL     1       2.380   1.417  -0.013  0.00  0.00    +0.017 A 
ATOM     10  C   UNL     1       2.406   0.035  -0.021  0.00  0.00    +0.039 A 
ATOM     11  C   UNL     1       1.215  -0.681  -0.013  0.00  0.00    +0.050 A 
ATOM     12  C   UNL     1       0.002  -0.004   0.002  0.00  0.00    +0.024 A 
ATOM     13 BR   UNL     1       4.061  -0.881  -0.043  0.00  0.00    -0.048 Br
ENDBRANCH   1  11
BRANCH   4  14
ATOM     14  C   UNL     1       1.278  -5.221  -1.807  0.00  0.00    +0.187 C 
ATOM     15  O   UNL     1       1.268  -4.957  -2.995  0.00  0.00    -0.290 OA
BRANCH  14  16
ATOM     16  C   UNL     1       1.304  -6.659  -1.355  0.00  0.00    +0.210 C 
BRANCH  16  17
ATOM     17  C   UNL     1       2.022  -7.495  -2.382  0.00  0.00    +0.066 A 
ATOM     18  C   UNL     1       1.329  -7.981  -3.474  0.00  0.00    +0.025 A 
ATOM     19  C   UNL     1       1.999  -8.750  -4.413  0.00  0.00    +0.003 A 
ATOM     20  C   UNL     1       3.348  -9.003  -4.217  0.00  0.00    +0.020 A 
ATOM     21  C   UNL     1       3.975  -8.484  -3.100  0.00  0.00    +0.111 A 
ATOM     22  N   UNL     1       3.307  -7.752  -2.231  0.00  0.00    -0.258 NA
ENDBRANCH  16  17
BRANCH  16  23
ATOM     23  C   UNL     1      -0.076  -7.149  -1.201  0.00  0.00    +0.080 C 
ATOM     24  N   UNL     1      -1.140  -7.527  -1.081  0.00  0.00    -0.195 NA
ENDBRANCH  16  23
ENDBRANCH  14  16
ENDBRANCH   4  14
TORSDOF 5
