REMARK  Name = ZINC39862594
REMARK  6 active torsions:
REMARK  status: ('A' for Active; 'I' for Inactive)
REMARK    1  A    between atoms: C_1  and  C_2
REMARK    2  A    between atoms: C_2  and  C_19
REMARK    3  A    between atoms: N_6  and  C_16
REMARK    4  A    between atoms: N_8  and  C_9
REMARK    5  A    between atoms: C_16  and  C_17
REMARK    6  A    between atoms: C_22  and  N_25
REMARK                            x       y       z     vdW  Elec       q    Type
REMARK                         _______ _______ _______ _____ _____    ______ ____
ROOT
ATOM      1  C   UNL     1       0.397   0.279  -0.356  0.00  0.00    +0.045 C 
ATOM      2  C   UNL     1       0.557  -1.180  -0.012  0.00  0.00    -0.024 C 
ATOM      3  C   UNL     1       0.440  -1.590   1.277  0.00  0.00    +0.081 C 
ATOM      4  C   UNL     1       0.157  -0.799   2.489  0.00  0.00    +0.260 C 
ATOM      5  O   UNL     1      -0.013   0.406   2.437  0.00  0.00    -0.269 OA
ATOM      6  N   UNL     1       0.095  -1.457   3.634  0.00  0.00    -0.242 N 
ATOM      7  C   UNL     1       0.289  -2.819   3.672  0.00  0.00    +0.170 C 
ATOM      8  N   UNL     1       0.262  -3.620   4.716  0.00  0.00    -0.206 NA
ATOM      9  S   UNL     1       0.579  -3.235   1.960  0.00  0.00    -0.048 S 
ENDROOT
BRANCH   8  10
ATOM     10  C   UNL     1      -0.126  -3.142   5.933  0.00  0.00    +0.155 A 
ATOM     11  C   UNL     1      -1.476  -3.181   6.297  0.00  0.00    +0.048 A 
ATOM     12  C   UNL     1      -1.852  -2.693   7.533  0.00  0.00    +0.005 A 
ATOM     13  C   UNL     1      -0.869  -2.180   8.372  0.00  0.00    +0.020 A 
ATOM     14  C   UNL     1       0.446  -2.171   7.952  0.00  0.00    +0.113 A 
ATOM     15  N   UNL     1       0.783  -2.647   6.769  0.00  0.00    -0.236 NA
ENDBRANCH   8  10
BRANCH   2  16
ATOM     16  C   UNL     1       0.840  -2.157  -1.071  0.00  0.00    -0.021 A 
ATOM     17  C   UNL     1       2.056  -2.851  -1.079  0.00  0.00    +0.010 A 
ATOM     18  C   UNL     1       2.315  -3.763  -2.069  0.00  0.00    +0.023 A 
ATOM     19  C   UNL     1       1.372  -4.000  -3.066  0.00  0.00    +0.025 A 
ATOM     20  C   UNL     1       0.162  -3.312  -3.062  0.00  0.00    +0.023 A 
ATOM     21  C   UNL     1      -0.109  -2.401  -2.072  0.00  0.00    +0.010 A 
BRANCH  19  22
ATOM     22  N   UNL     1       1.640  -4.926  -4.069  0.00  0.00    -0.358 N 
ATOM     23  H   UNL     1       2.483  -5.406  -4.074  0.00  0.00    +0.142 HD
ATOM     24  H   UNL     1       0.984  -5.092  -4.764  0.00  0.00    +0.142 HD
ENDBRANCH  19  22
ENDBRANCH   2  16
BRANCH   6  25
ATOM     25  C   UNL     1      -0.183  -0.729   4.874  0.00  0.00    +0.142 C 
BRANCH  25  26
ATOM     26  C   UNL     1       1.116  -0.363   5.544  0.00  0.00    -0.015 C 
ATOM     27  C   UNL     1       1.353   0.881   5.878  0.00  0.00    +0.005 C 
ENDBRANCH  25  26
ENDBRANCH   6  25
TORSDOF 5
