REMARK  Name = ZINC33792758
REMARK  6 active torsions:
REMARK  status: ('A' for Active; 'I' for Inactive)
REMARK    1  A    between atoms: N_9  and  C_12
REMARK    2  A    between atoms: C_12  and  O_13
REMARK    3  A    between atoms: O_13  and  C_14
REMARK    4  A    between atoms: C_14  and  C_16
REMARK    5  A    between atoms: C_16  and  N_17
REMARK    6  A    between atoms: C_18  and  C_20
REMARK                            x       y       z     vdW  Elec       q    Type
REMARK                         _______ _______ _______ _____ _____    ______ ____
ROOT
ATOM      1  C   UNL     1      -7.222   1.323   2.320  0.00  0.00    +0.326 C 
ATOM      2  O   UNL     1      -6.637   2.021   3.113  0.00  0.00    -0.249 OA
ENDROOT
BRANCH   1   3
ATOM      3  O   UNL     1      -8.501   0.980   2.542  0.00  0.00    -0.440 OA
BRANCH   3   4
ATOM      4  C   UNL     1      -9.117   1.484   3.757  0.00  0.00    +0.383 C 
BRANCH   4  13
ATOM      5  C   UNL     1     -12.672   6.280   2.262  0.00  0.00    +0.001 A 
ATOM      6  C   UNL     1     -11.728   7.247   2.580  0.00  0.00    +0.002 A 
ATOM      7  C   UNL     1     -10.486   6.891   3.056  0.00  0.00    +0.030 A 
ATOM      8  C   UNL     1     -10.169   5.541   3.222  0.00  0.00    +0.100 A 
ATOM      9  C   UNL     1     -11.131   4.560   2.897  0.00  0.00    +0.068 A 
ATOM     10  C   UNL     1     -12.383   4.942   2.418  0.00  0.00    +0.015 A 
ATOM     11  C   UNL     1     -10.773   3.145   3.081  0.00  0.00    +0.281 A 
ATOM     12  O   UNL     1     -11.559   2.254   2.818  0.00  0.00    -0.265 OA
ATOM     13  N   UNL     1      -9.533   2.873   3.553  0.00  0.00    -0.174 N 
ATOM     14  N   UNL     1      -8.653   3.917   3.850  0.00  0.00    -0.059 NA
ATOM     15  N   UNL     1      -8.956   5.154   3.688  0.00  0.00    -0.131 NA
ENDBRANCH   4  13
ENDBRANCH   3   4
ENDBRANCH   1   3
BRANCH   1  16
ATOM     16  C   UNL     1      -6.517   0.837   1.080  0.00  0.00    +0.225 C 
BRANCH  16  17
ATOM     17  N   UNL     1      -5.143   1.344   1.069  0.00  0.00    -0.304 N 
ATOM     18  C   UNL     1      -4.318   1.035   0.049  0.00  0.00    +0.220 C 
ATOM     19  O   UNL     1      -4.714   0.337  -0.861  0.00  0.00    -0.275 OA
ATOM     20  H   UNL     1      -4.784   1.976   1.894  0.00  0.00    +0.149 HD
BRANCH  18  21
ATOM     21  C   UNL     1      -2.904   1.556   0.038  0.00  0.00    +0.048 C 
ATOM     22  C   UNL     1      -2.188   1.063  -1.221  0.00  0.00    +0.019 C 
ATOM     23  C   UNL     1      -0.753   1.593  -1.232  0.00  0.00    -0.009 C 
ATOM     24  C   UNL     1      -0.013   1.086   0.008  0.00  0.00    +0.007 C 
ATOM     25  C   UNL     1      -0.729   1.579   1.267  0.00  0.00    -0.009 C 
ATOM     26  C   UNL     1      -2.164   1.050   1.278  0.00  0.00    +0.019 C 
ATOM     27  C   UNL     1      -0.750   3.109   1.275  0.00  0.00    +0.007 C 
ATOM     28  C   UNL     1      -1.490   3.616   0.036  0.00  0.00    -0.009 C 
ATOM     29  C   UNL     1      -0.773   3.123  -1.223  0.00  0.00    +0.007 C 
ATOM     30  C   UNL     1      -2.925   3.086   0.047  0.00  0.00    +0.019 C 
ENDBRANCH  18  21
ENDBRANCH  16  17
ENDBRANCH   1  16
TORSDOF 6
