REMARK  Name = ZINC20866562
REMARK  9 active torsions:
REMARK  status: ('A' for Active; 'I' for Inactive)
REMARK    1  A    between atoms: C_1  and  C_2
REMARK    2  A    between atoms: N_4  and  C_15
REMARK    3  A    between atoms: C_15  and  C_16
REMARK    4  A    between atoms: C_16  and  C_17
REMARK    5  A    between atoms: C_17  and  C_18
REMARK    6  A    between atoms: N_20  and  C_21
REMARK    7  A    between atoms: C_21  and  C_22
REMARK    8  A    between atoms: C_22  and  N_23
REMARK    9  A    between atoms: C_28  and  C_30
REMARK                            x       y       z     vdW  Elec       q    Type
REMARK                         _______ _______ _______ _____ _____    ______ ____
ROOT
ATOM      1  C   UNL     1       4.740   7.978  -3.258  0.00  0.00    +0.033 C 
ENDROOT
BRANCH   1   2
ATOM      2  C   UNL     1       6.006   8.761  -3.610  0.00  0.00    +0.148 C 
BRANCH   2   6
ATOM      3  C   UNL     1       4.680  12.111  -6.909  0.00  0.00    +0.088 C 
ATOM      4  C   UNL     1       5.016  11.765  -5.482  0.00  0.00    +0.132 A 
ATOM      5  N   UNL     1       5.332  10.551  -5.188  0.00  0.00    -0.155 NA
ATOM      6  N   UNL     1       5.656  10.156  -3.887  0.00  0.00    -0.226 N 
ATOM      7  C   UNL     1       5.641  11.061  -2.883  0.00  0.00    +0.291 A 
ATOM      8  O   UNL     1       5.916  10.736  -1.741  0.00  0.00    -0.264 OA
ATOM      9  C   UNL     1       5.289  12.446  -3.208  0.00  0.00    +0.118 A 
ATOM     10  N   UNL     1       4.979  12.760  -4.523  0.00  0.00    -0.288 N 
ATOM     11  C   UNL     1       4.681  14.096  -4.585  0.00  0.00    +0.094 A 
ATOM     12  C   UNL     1       4.295  15.168  -5.426  0.00  0.00    +0.068 A 
ATOM     13  C   UNL     1       4.201  16.264  -4.655  0.00  0.00    +0.198 A 
ATOM     14  O   UNL     1       4.504  15.945  -3.384  0.00  0.00    -0.461 OA
ATOM     15  C   UNL     1       4.802  14.630  -3.305  0.00  0.00    +0.154 A 
ATOM     16  C   UNL     1       5.183  13.588  -2.450  0.00  0.00    +0.080 A 
ENDBRANCH   2   6
ENDBRANCH   1   2
BRANCH   1  17
ATOM     17  C   UNL     1       5.106   6.520  -2.969  0.00  0.00    +0.097 C 
BRANCH  17  18
ATOM     18  C   UNL     1       3.859   5.748  -2.623  0.00  0.00    +0.213 C 
ATOM     19  O   UNL     1       2.783   6.309  -2.608  0.00  0.00    -0.276 OA
ATOM     20  N   UNL     1       3.939   4.436  -2.329  0.00  0.00    -0.317 N 
ATOM     21  H   UNL     1       4.914   3.927  -2.342  0.00  0.00    +0.149 HD
BRANCH  20  22
ATOM     22  C   UNL     1       2.726   3.685  -1.992  0.00  0.00    +0.085 C 
BRANCH  22  23
ATOM     23  C   UNL     1       3.092   2.228  -1.703  0.00  0.00    -0.059 C 
BRANCH  23  24
ATOM     24  N   UNL     1       1.877   1.476  -1.365  0.00  0.00    +0.382 N 
ATOM     25  C   UNL     1       1.357   1.878  -0.052  0.00  0.00    -0.078 C 
ATOM     26  C   UNL     1       0.017   1.184   0.203  0.00  0.00    -0.019 C 
ATOM     27  C   UNL     1       0.217  -0.333   0.155  0.00  0.00    -0.003 C 
ATOM     28  C   UNL     1       0.804  -0.721  -1.205  0.00  0.00    -0.016 C 
ATOM     29  C   UNL     1       2.121   0.029  -1.418  0.00  0.00    -0.072 C 
ATOM     30  C   UNL     1       2.702  -0.340  -2.785  0.00  0.00    -0.013 C 
ATOM     31  H   UNL     1       1.110   1.714  -2.116  0.00  0.00    -0.081 HD
ENDBRANCH  23  24
ENDBRANCH  22  23
ENDBRANCH  20  22
ENDBRANCH  17  18
ENDBRANCH   1  17
TORSDOF 7
