REMARK  Name = ZINC11611284
REMARK  9 active torsions:
REMARK  status: ('A' for Active; 'I' for Inactive)
REMARK    1  A    between atoms: C_1  and  C_2
REMARK    2  A    between atoms: C_2  and  O_3
REMARK    3  A    between atoms: O_3  and  C_4
REMARK    4  A    between atoms: C_4  and  C_6
REMARK    5  A    between atoms: C_7  and  C_13
REMARK    6  A    between atoms: C_13  and  S_14
REMARK    7  A    between atoms: S_14  and  C_15
REMARK    8  A    between atoms: C_18  and  C_21
REMARK    9  A    between atoms: N_19  and  N_20
REMARK                            x       y       z     vdW  Elec       q    Type
REMARK                         _______ _______ _______ _____ _____    ______ ____
ROOT
ATOM      1  S   UNL     1       3.609   1.170   0.235  0.00  0.00    -0.079 S 
ENDROOT
BRANCH   1   2
ATOM      2  C   UNL     1       1.847   1.177   0.238  0.00  0.00    +0.209 A 
ATOM      3  N   UNL     1       1.072   2.231   0.108  0.00  0.00    -0.121 NA
ATOM      4  N   UNL     1      -0.163   1.878   0.154  0.00  0.00    -0.127 NA
ATOM      5  C   UNL     1      -0.252   0.578   0.315  0.00  0.00    +0.183 A 
ATOM      6  N   UNL     1       1.033   0.089   0.374  0.00  0.00    -0.224 N 
BRANCH   5   7
ATOM      7  C   UNL     1      -1.498  -0.212   0.414  0.00  0.00    +0.039 A 
ATOM      8  C   UNL     1      -1.438  -1.597   0.580  0.00  0.00    +0.014 A 
ATOM      9  C   UNL     1      -2.604  -2.327   0.678  0.00  0.00    +0.021 A 
ATOM     10  C   UNL     1      -3.832  -1.692   0.601  0.00  0.00    +0.042 A 
ATOM     11  C   UNL     1      -3.899  -0.320   0.431  0.00  0.00    +0.040 A 
ATOM     12  C   UNL     1      -2.739   0.424   0.338  0.00  0.00    +0.053 A 
ATOM     13 CL   UNL     1      -2.824   2.145   0.124  0.00  0.00    -0.083 Cl
ATOM     14 CL   UNL     1      -5.294  -2.620   0.718  0.00  0.00    -0.083 Cl
ENDBRANCH   5   7
BRANCH   6  15
ATOM     15  N   UNL     1       1.414  -1.212   0.535  0.00  0.00    -0.295 N 
ATOM     16  H   UNL     1       1.514  -1.673  -0.357  0.00  0.00    +0.163 HD
ATOM     17  H   UNL     1       2.266  -1.276   1.072  0.00  0.00    +0.163 HD
ENDBRANCH   6  15
ENDBRANCH   1   2
BRANCH   1  18
ATOM     18  C   UNL     1       3.930   2.938   0.016  0.00  0.00    +0.128 C 
BRANCH  18  20
ATOM     19  C   UNL     1       6.024   3.435  -1.196  0.00  0.00    +0.071 C 
ATOM     20  C   UNL     1       5.418   3.178  -0.017  0.00  0.00    +0.034 C 
ATOM     21  N   UNL     1       6.130   3.138   1.147  0.00  0.00    -0.272 N 
ATOM     22  C   UNL     1       7.453   3.333   1.215  0.00  0.00    +0.304 C 
ATOM     23  O   UNL     1       8.002   3.273   2.299  0.00  0.00    -0.253 OA
ATOM     24  N   UNL     1       8.196   3.600   0.123  0.00  0.00    -0.295 N 
ATOM     25  C   UNL     1       7.520   3.671  -1.184  0.00  0.00    +0.150 C 
ATOM     26  H   UNL     1       5.652   2.954   1.971  0.00  0.00    +0.156 HD
ATOM     27  H   UNL     1       9.153   3.741   0.195  0.00  0.00    +0.151 HD
BRANCH  19  28
ATOM     28  C   UNL     1       5.286   3.482  -2.402  0.00  0.00    +0.338 C 
ATOM     29  O   UNL     1       5.291   2.527  -3.156  0.00  0.00    -0.245 OA
BRANCH  28  30
ATOM     30  O   UNL     1       4.577   4.586  -2.716  0.00  0.00    -0.462 OA
BRANCH  30  32
ATOM     31  C   UNL     1       3.118   5.893  -4.132  0.00  0.00    +0.048 C 
ATOM     32  C   UNL     1       3.855   4.565  -3.950  0.00  0.00    +0.229 C 
ENDBRANCH  30  32
ENDBRANCH  28  30
ENDBRANCH  19  28
ENDBRANCH  18  20
ENDBRANCH   1  18
TORSDOF 8
