REMARK  Name = ZINC60377147
REMARK  9 active torsions:
REMARK  status: ('A' for Active; 'I' for Inactive)
REMARK    1  A    between atoms: C_1  and  C_2
REMARK    2  A    between atoms: C_2  and  C_26
REMARK    3  A    between atoms: N_5  and  N_9
REMARK    4  A    between atoms: C_10  and  C_12
REMARK    5  A    between atoms: C_12  and  N_13
REMARK    6  A    between atoms: N_13  and  C_14
REMARK    7  A    between atoms: C_14  and  C_19
REMARK    8  A    between atoms: C_29  and  O_32
REMARK    9  A    between atoms: O_32  and  C_33
REMARK                            x       y       z     vdW  Elec       q    Type
REMARK                         _______ _______ _______ _____ _____    ______ ____
ROOT
ATOM      1  N   UNL     1       2.843  -1.929  -1.319  0.00  0.00    -0.223 N 
ATOM      2  C   UNL     1       4.088  -1.414  -1.363  0.00  0.00    +0.244 C 
ATOM      3  O   UNL     1       4.368  -0.445  -0.689  0.00  0.00    -0.273 OA
ATOM      4  H   UNL     1       2.620  -2.704  -1.857  0.00  0.00    +0.174 HD
ENDROOT
BRANCH   1   9
ATOM      5  C   UNL     1       0.080   1.348   0.453  0.00  0.00    +0.047 C 
ATOM      6  C   UNL     1       0.073  -0.173   0.286  0.00  0.00    +0.137 C 
ATOM      7  C   UNL     1       0.859  -0.578  -0.945  0.00  0.00    +0.267 C 
ATOM      8  O   UNL     1       0.626  -0.275  -2.096  0.00  0.00    -0.271 OA
ATOM      9  N   UNL     1       1.872  -1.344  -0.495  0.00  0.00    -0.137 N 
ATOM     10  C   UNL     1       1.836  -1.478   0.836  0.00  0.00    +0.327 C 
ATOM     11  O   UNL     1       2.646  -2.124   1.472  0.00  0.00    -0.251 OA
ATOM     12  N   UNL     1       0.803  -0.819   1.391  0.00  0.00    -0.280 N 
ATOM     13  H   UNL     1       0.582  -0.776   2.334  0.00  0.00    +0.152 HD
BRANCH   6  14
ATOM     14  C   UNL     1      -1.340  -0.690   0.210  0.00  0.00    -0.015 A 
ATOM     15  C   UNL     1      -1.965  -0.816  -1.017  0.00  0.00    +0.010 A 
ATOM     16  C   UNL     1      -3.260  -1.290  -1.089  0.00  0.00    +0.046 A 
ATOM     17  C   UNL     1      -3.935  -1.640   0.072  0.00  0.00    +0.120 A 
ATOM     18  C   UNL     1      -3.306  -1.513   1.302  0.00  0.00    +0.046 A 
ATOM     19  C   UNL     1      -2.008  -1.044   1.368  0.00  0.00    +0.010 A 
BRANCH  17  20
ATOM     20  O   UNL     1      -5.210  -2.106   0.004  0.00  0.00    -0.495 OA
ATOM     21  C   UNL     1      -5.843  -2.447   1.239  0.00  0.00    +0.277 C 
ENDBRANCH  17  20
ENDBRANCH   6  14
ENDBRANCH   1   9
BRANCH   2  22
ATOM     22  C   UNL     1       5.133  -2.043  -2.249  0.00  0.00    +0.179 C 
BRANCH  22  23
ATOM     23  N   UNL     1       6.395  -1.303  -2.119  0.00  0.00    -0.299 NA
ATOM     24  H   UNL     1       6.287  -0.348  -2.427  0.00  0.00    +0.123 HD
BRANCH  23  25
ATOM     25  C   UNL     1       7.476  -1.974  -2.852  0.00  0.00    +0.045 C 
ATOM     26  C   UNL     1       7.111  -2.087  -4.346  0.00  0.00    +0.027 C 
ATOM     27  C   UNL     1       7.671  -3.467  -4.771  0.00  0.00    +0.002 C 
ATOM     28  C   UNL     1       7.387  -4.348  -3.530  0.00  0.00    +0.002 C 
ATOM     29  C   UNL     1       7.652  -3.412  -2.333  0.00  0.00    +0.027 C 
BRANCH  25  30
ATOM     30  C   UNL     1       8.763  -1.206  -2.690  0.00  0.00    -0.027 A 
ATOM     31  C   UNL     1       8.797  -0.075  -1.897  0.00  0.00    +0.007 A 
ATOM     32  C   UNL     1       9.977   0.630  -1.748  0.00  0.00    +0.020 A 
ATOM     33  C   UNL     1      11.124   0.202  -2.393  0.00  0.00    +0.041 A 
ATOM     34  C   UNL     1      11.089  -0.930  -3.187  0.00  0.00    +0.020 A 
ATOM     35  C   UNL     1       9.910  -1.637  -3.330  0.00  0.00    +0.007 A 
ATOM     36 CL   UNL     1      12.606   1.087  -2.207  0.00  0.00    -0.084 Cl
ENDBRANCH  25  30
ENDBRANCH  23  25
ENDBRANCH  22  23
ENDBRANCH   2  22
TORSDOF 7
