REMARK  Name = ZINC47138197
REMARK  11 active torsions:
REMARK  status: ('A' for Active; 'I' for Inactive)
REMARK    1  A    between atoms: C_1  and  C_2
REMARK    2  A    between atoms: C_7  and  C_8
REMARK    3  A    between atoms: N_12  and  C_29
REMARK    4  A    between atoms: N_14  and  N_15
REMARK    5  A    between atoms: C_16  and  C_17
REMARK    6  A    between atoms: C_19  and  O_26
REMARK    7  A    between atoms: C_20  and  O_25
REMARK    8  A    between atoms: C_21  and  O_23
REMARK    9  A    between atoms: O_23  and  C_24
REMARK   10  A    between atoms: O_26  and  C_27
REMARK   11  A    between atoms: C_29  and  C_30
REMARK                            x       y       z     vdW  Elec       q    Type
REMARK                         _______ _______ _______ _____ _____    ______ ____
ROOT
ATOM      1  C   UNL     1       0.322   0.027   2.529  0.00  0.00    +0.028 C 
ATOM      2  C   UNL     1       0.181  -0.664   3.688  0.00  0.00    +0.078 C 
ATOM      3  C   UNL     1      -0.037  -0.160   5.059  0.00  0.00    +0.259 C 
ATOM      4  O   UNL     1      -0.118   1.032   5.294  0.00  0.00    -0.269 OA
ATOM      5  N   UNL     1      -0.142  -1.063   6.019  0.00  0.00    -0.237 N 
ATOM      6  C   UNL     1      -0.048  -2.407   5.733  0.00  0.00    +0.190 C 
ATOM      7  N   UNL     1      -0.129  -3.429   6.562  0.00  0.00    -0.126 NA
ATOM      8  S   UNL     1       0.202  -2.429   3.966  0.00  0.00    -0.047 S 
ENDROOT
BRANCH   1  15
ATOM      9  C   UNL     1      -0.125   1.296  -0.034  0.00  0.00    +0.044 C 
ATOM     10  C   UNL     1       0.496  -0.075   0.050  0.00  0.00    -0.043 A 
ATOM     11  C   UNL     1       0.864  -0.739  -1.101  0.00  0.00    +0.004 A 
ATOM     12  C   UNL     1       1.434  -1.998  -1.027  0.00  0.00    +0.000 A 
ATOM     13  C   UNL     1       1.639  -2.601   0.202  0.00  0.00    +0.001 A 
ATOM     14  C   UNL     1       1.277  -1.952   1.363  0.00  0.00    +0.008 A 
ATOM     15  C   UNL     1       0.706  -0.675   1.296  0.00  0.00    -0.021 A 
ENDBRANCH   1  15
BRANCH   7  16
ATOM     16  N   UNL     1      -0.320  -3.224   7.821  0.00  0.00    -0.155 NA
ATOM     17  C   UNL     1      -0.400  -4.237   8.643  0.00  0.00    +0.143 C 
BRANCH  17  18
ATOM     18  C   UNL     1      -0.224  -5.608   8.139  0.00  0.00    +0.002 A 
ATOM     19  C   UNL     1      -0.178  -6.683   9.034  0.00  0.00    +0.059 A 
ATOM     20  C   UNL     1      -0.014  -7.970   8.557  0.00  0.00    +0.166 A 
ATOM     21  C   UNL     1       0.107  -8.197   7.189  0.00  0.00    +0.201 A 
ATOM     22  C   UNL     1       0.062  -7.131   6.296  0.00  0.00    +0.166 A 
ATOM     23  C   UNL     1      -0.108  -5.841   6.765  0.00  0.00    +0.059 A 
BRANCH  22  24
ATOM     24  O   UNL     1       0.181  -7.357   4.960  0.00  0.00    -0.491 OA
ATOM     25  C   UNL     1       0.126  -6.217   4.101  0.00  0.00    +0.277 C 
ENDBRANCH  22  24
BRANCH  21  26
ATOM     26  O   UNL     1       0.270  -9.465   6.723  0.00  0.00    -0.501 OA
ATOM     27  H   UNL     1      -0.559  -9.921   6.526  0.00  0.00    +0.292 HD
ENDBRANCH  21  26
BRANCH  20  28
ATOM     28  O   UNL     1       0.031  -9.016   9.425  0.00  0.00    -0.491 OA
ATOM     29  C   UNL     1      -0.099  -8.710  10.815  0.00  0.00    +0.277 C 
ENDBRANCH  20  28
ENDBRANCH  17  18
ENDBRANCH   7  16
BRANCH   5  30
ATOM     30  C   UNL     1      -0.359  -0.629   7.402  0.00  0.00    +0.190 C 
BRANCH  30  31
ATOM     31  C   UNL     1      -1.838  -0.535   7.672  0.00  0.00    +0.123 A 
ATOM     32  C   UNL     1      -2.617  -1.526   8.144  0.00  0.00    +0.046 A 
ATOM     33  C   UNL     1      -3.927  -1.004   8.245  0.00  0.00    +0.041 A 
ATOM     34  C   UNL     1      -3.871   0.274   7.829  0.00  0.00    +0.195 A 
ATOM     35  O   UNL     1      -2.602   0.554   7.489  0.00  0.00    -0.466 OA
ENDBRANCH  30  31
ENDBRANCH   5  30
TORSDOF 8
