REMARK  Name = ZINC09383412
REMARK  12 active torsions:
REMARK  status: ('A' for Active; 'I' for Inactive)
REMARK    1  A    between atoms: C_1  and  C_2
REMARK    2  A    between atoms: C_2  and  N_3
REMARK    3  A    between atoms: N_3  and  C_4
REMARK    4  A    between atoms: N_3  and  S_11
REMARK    5  A    between atoms: C_4  and  C_5
REMARK    6  A    between atoms: S_11  and  C_14
REMARK    7  A    between atoms: C_17  and  C_20
REMARK    8  A    between atoms: N_22  and  C_23
REMARK    9  A    between atoms: C_24  and  C_34
REMARK   10  A    between atoms: C_31  and  C_32
REMARK   11  A    between atoms: C_31  and  C_33
REMARK   12  A    between atoms: C_31  and  N_66
REMARK                            x       y       z     vdW  Elec       q    Type
REMARK                         _______ _______ _______ _____ _____    ______ ____
ROOT
ATOM      1  C   UNL     1      -4.836  -0.550   0.022  0.00  0.00    +0.106 A 
ATOM      2  C   UNL     1      -4.859   0.834   0.030  0.00  0.00    +0.029 A 
ATOM      3  C   UNL     1      -3.677   1.546   0.028  0.00  0.00    +0.015 A 
ATOM      4  C   UNL     1      -2.457   0.868   0.018  0.00  0.00    +0.037 A 
ATOM      5  C   UNL     1      -2.442  -0.528   0.005  0.00  0.00    +0.015 A 
ATOM      6  C   UNL     1      -3.631  -1.228   0.013  0.00  0.00    +0.029 A 
ENDROOT
BRANCH   4   7
ATOM      7  C   UNL     1      -1.187   1.624   0.017  0.00  0.00    +0.249 C 
ATOM      8  O   UNL     1      -1.204   2.839   0.023  0.00  0.00    -0.270 OA
ATOM      9  N   UNL     1      -0.011   0.966   0.007  0.00  0.00    -0.275 N 
ATOM     10  H   UNL     1       0.002  -0.004   0.002  0.00  0.00    +0.156 HD
BRANCH   9  11
ATOM     11  C   UNL     1       1.180   1.675  -0.000  0.00  0.00    +0.090 A 
ATOM     12  C   UNL     1       2.478   1.182  -0.010  0.00  0.00    +0.083 A 
ATOM     13  C   UNL     1       3.560   2.147  -0.020  0.00  0.00    -0.022 A 
ATOM     14  C   UNL     1       3.178   3.445  -0.008  0.00  0.00    -0.021 A 
ATOM     15  S   UNL     1       1.410   3.393   0.007  0.00  0.00    -0.079 S 
ATOM     16  C   UNL     1       4.082   4.637  -0.008  0.00  0.00    -0.035 C 
ATOM     17  C   UNL     1       5.829   3.024  -0.476  0.00  0.00    -0.073 C 
ATOM     18  C   UNL     1       5.041   1.786  -0.037  0.00  0.00    +0.019 C 
ATOM     19  N   UNL     1       5.442   4.175   0.365  0.00  0.00    +0.384 N 
ATOM     20  H   UNL     1       5.437   3.884   1.349  0.00  0.00    -0.081 HD
BRANCH  19  21
ATOM     21  C   UNL     1       6.414   5.276   0.195  0.00  0.00    -0.074 C 
ATOM     22  C   UNL     1       6.435   5.751  -1.260  0.00  0.00    -0.014 C 
ATOM     23  C   UNL     1       6.014   6.439   1.105  0.00  0.00    -0.014 C 
ENDBRANCH  19  21
BRANCH  12  24
ATOM     24  C   UNL     1       2.737  -0.226  -0.013  0.00  0.00    +0.102 C 
ATOM     25  N   UNL     1       2.943  -1.343  -0.016  0.00  0.00    -0.191 NA
ENDBRANCH  12  24
ENDBRANCH   9  11
ENDBRANCH   4   7
BRANCH   1  26
ATOM     26  S   UNL     1      -6.350  -1.451   0.023  0.00  0.00    +0.061 S 
ATOM     27  O   UNL     1      -6.059  -2.732   0.566  0.00  0.00    -0.153 OA
ATOM     28  O   UNL     1      -7.334  -0.592   0.584  0.00  0.00    -0.153 OA
BRANCH  26  29
ATOM     29  N   UNL     1      -6.778  -1.693  -1.558  0.00  0.00    -0.173 NA
BRANCH  29  31
ATOM     30  C   UNL     1      -6.727   0.268  -3.019  0.00  0.00    +0.022 C 
ATOM     31  C   UNL     1      -7.617  -0.710  -2.248  0.00  0.00    +0.106 C 
ENDBRANCH  29  31
BRANCH  29  32
ATOM     32  C   UNL     1      -6.318  -2.889  -2.267  0.00  0.00    +0.144 C 
BRANCH  32  33
ATOM     33  C   UNL     1      -7.380  -3.957  -2.192  0.00  0.00    -0.032 A 
ATOM     34  C   UNL     1      -7.377  -4.862  -1.148  0.00  0.00    +0.005 A 
ATOM     35  C   UNL     1      -8.353  -5.838  -1.076  0.00  0.00    +0.000 A 
ATOM     36  C   UNL     1      -9.327  -5.915  -2.055  0.00  0.00    +0.000 A 
ATOM     37  C   UNL     1      -9.326  -5.012  -3.102  0.00  0.00    +0.000 A 
ATOM     38  C   UNL     1      -8.353  -4.033  -3.171  0.00  0.00    +0.005 A 
ENDBRANCH  32  33
ENDBRANCH  29  32
ENDBRANCH  26  29
ENDBRANCH   1  26
TORSDOF 9
