REMARK  Name = ZINC36309289
REMARK  14 active torsions:
REMARK  status: ('A' for Active; 'I' for Inactive)
REMARK    1  A    between atoms: C_2  and  C_3
REMARK    2  A    between atoms: C_3  and  N_4
REMARK    3  A    between atoms: N_4  and  C_5
REMARK    4  A    between atoms: N_4  and  C_14
REMARK    5  A    between atoms: C_5  and  C_6
REMARK    6  A    between atoms: C_6  and  C_8
REMARK    7  A    between atoms: C_6  and  O_13
REMARK    8  A    between atoms: C_8  and  O_9
REMARK    9  A    between atoms: O_9  and  C_10
REMARK   10  A    between atoms: C_10  and  C_11
REMARK   11  A    between atoms: C_14  and  C_15
REMARK   12  A    between atoms: C_25  and  C_27
REMARK   13  A    between atoms: C_27  and  O_28
REMARK   14  A    between atoms: O_28  and  C_29
REMARK                            x       y       z     vdW  Elec       q    Type
REMARK                         _______ _______ _______ _____ _____    ______ ____
ROOT
ATOM      1  C   UNL     1      -3.486  -1.382  -1.867  0.00  0.00    +0.200 C 
ATOM      2  O   UNL     1      -3.197  -0.204  -1.899  0.00  0.00    -0.278 OA
ATOM      3  N   UNL     1      -4.727  -1.781  -2.209  0.00  0.00    -0.292 N 
ATOM      4  C   UNL     1      -5.090  -3.205  -2.169  0.00  0.00    +0.113 C 
ATOM      5  C   UNL     1      -6.172  -3.397  -1.094  0.00  0.00    +0.061 C 
ATOM      6  C   UNL     1      -7.168  -2.290  -1.214  0.00  0.00    -0.004 A 
ATOM      7  C   UNL     1      -7.030  -1.109  -1.876  0.00  0.00    -0.014 A 
ATOM      8  C   UNL     1      -8.115  -0.235  -1.828  0.00  0.00    +0.013 A 
ATOM      9  C   UNL     1      -9.233  -0.581  -1.151  0.00  0.00    +0.046 A 
ATOM     10  S   UNL     1      -8.802  -2.200  -0.531  0.00  0.00    -0.101 S 
ATOM     11  C   UNL     1      -5.739  -0.798  -2.622  0.00  0.00    +0.144 C 
ENDROOT
BRANCH   1  12
ATOM     12  C   UNL     1      -2.457  -2.399  -1.446  0.00  0.00    +0.019 C 
BRANCH  12  13
ATOM     13  N   UNL     1      -1.196  -1.716  -1.127  0.00  0.00    +0.389 N 
ATOM     14  H   UNL     1      -0.908  -1.156  -1.915  0.00  0.00    -0.081 HD
BRANCH  13  15
ATOM     15  C   UNL     1      -1.390  -0.851   0.044  0.00  0.00    -0.051 C 
BRANCH  15  17
ATOM     16  C   UNL     1      -0.968  -1.599   2.330  0.00  0.00    +0.002 C 
ATOM     17  C   UNL     1      -1.702  -1.700   1.250  0.00  0.00    -0.053 C 
ENDBRANCH  15  17
ENDBRANCH  13  15
BRANCH  13  18
ATOM     18  C   UNL     1      -0.160  -2.715  -0.832  0.00  0.00    -0.044 C 
BRANCH  18  19
ATOM     19  C   UNL     1       1.186  -2.012  -0.640  0.00  0.00    +0.124 C 
BRANCH  19  20
ATOM     20  O   UNL     1       1.579  -1.394  -1.867  0.00  0.00    -0.391 OA
ATOM     21  H   UNL     1       1.683  -2.013  -2.604  0.00  0.00    +0.210 HD
ENDBRANCH  19  20
BRANCH  19  22
ATOM     22  C   UNL     1       2.242  -3.038  -0.224  0.00  0.00    +0.189 C 
BRANCH  22  23
ATOM     23  O   UNL     1       3.469  -2.366   0.068  0.00  0.00    -0.373 OA
BRANCH  23  24
ATOM     24  C   UNL     1       4.528  -3.238   0.469  0.00  0.00    +0.186 C 
BRANCH  24  25
ATOM     25  C   UNL     1       5.767  -2.427   0.750  0.00  0.00    -0.007 C 
ATOM     26  C   UNL     1       6.477  -2.668   1.824  0.00  0.00    +0.006 C 
ENDBRANCH  24  25
ENDBRANCH  23  24
ENDBRANCH  22  23
ENDBRANCH  19  22
ENDBRANCH  18  19
ENDBRANCH  13  18
ENDBRANCH  12  13
ENDBRANCH   1  12
BRANCH  11  27
ATOM     27  C   UNL     1      -5.977  -0.902  -4.129  0.00  0.00    +0.256 C 
BRANCH  27  28
ATOM     28  O   UNL     1      -6.547  -2.176  -4.434  0.00  0.00    -0.490 OA
BRANCH  28  29
ATOM     29  C   UNL     1      -6.823  -2.432  -5.741  0.00  0.00    +0.121 A 
ATOM     30  C   UNL     1      -6.546  -1.478  -6.709  0.00  0.00    +0.047 A 
ATOM     31  C   UNL     1      -6.827  -1.740  -8.036  0.00  0.00    +0.023 A 
ATOM     32  C   UNL     1      -7.385  -2.952  -8.399  0.00  0.00    +0.041 A 
ATOM     33  C   UNL     1      -7.663  -3.905  -7.435  0.00  0.00    +0.023 A 
ATOM     34  C   UNL     1      -7.378  -3.649  -6.108  0.00  0.00    +0.047 A 
ATOM     35 CL   UNL     1      -7.738  -3.279 -10.068  0.00  0.00    -0.084 Cl
ENDBRANCH  28  29
ENDBRANCH  27  28
ENDBRANCH  11  27
TORSDOF 14
