REMARK  Name = ZINC33744494
REMARK  10 active torsions:
REMARK  status: ('A' for Active; 'I' for Inactive)
REMARK    1  A    between atoms: C_1  and  C_2
REMARK    2  A    between atoms: C_2  and  C_3
REMARK    3  A    between atoms: C_3  and  C_5
REMARK    4  A    between atoms: C_3  and  N_6
REMARK    5  A    between atoms: C_7  and  C_9
REMARK    6  A    between atoms: C_9  and  N_10
REMARK    7  A    between atoms: N_12  and  C_32
REMARK    8  A    between atoms: N_23  and  C_24
REMARK    9  A    between atoms: C_28  and  C_31
REMARK   10  A    between atoms: C_29  and  C_30
REMARK                            x       y       z     vdW  Elec       q    Type
REMARK                         _______ _______ _______ _____ _____    ______ ____
ROOT
ATOM      1  N   UNL     1       3.663   5.105   1.702  0.00  0.00    -0.275 N 
ATOM      2  C   UNL     1       2.815   3.941   1.987  0.00  0.00    +0.217 C 
ATOM      3  N   UNL     1       1.888   3.814   0.838  0.00  0.00    -0.300 N 
ATOM      4  C   UNL     1       1.795   5.199   0.329  0.00  0.00    +0.115 C 
ATOM      5  C   UNL     1       3.086   5.861   0.744  0.00  0.00    +0.241 C 
ATOM      6  O   UNL     1       3.530   6.896   0.293  0.00  0.00    -0.273 OA
ATOM      7  C   UNL     1       0.604   5.910   0.964  0.00  0.00    +0.054 C 
ATOM      8  C   UNL     1       0.549   7.357   0.464  0.00  0.00    +0.112 C 
ATOM      9  N   UNL     1       0.549   7.349  -1.005  0.00  0.00    -0.285 N 
ATOM     10  C   UNL     1       1.619   6.631  -1.709  0.00  0.00    +0.112 C 
ATOM     11  C   UNL     1       1.667   5.189  -1.192  0.00  0.00    +0.054 C 
ATOM     12  C   UNL     1      -0.416   7.989  -1.695  0.00  0.00    +0.306 C 
ATOM     13  O   UNL     1      -0.451   7.910  -2.907  0.00  0.00    -0.252 OA
ATOM     14  N   UNL     1      -1.343   8.717  -1.040  0.00  0.00    -0.269 N 
ATOM     15  H   UNL     1      -1.295   8.812   0.055  0.00  0.00    +0.156 HD
ENDROOT
BRANCH  14  16
ATOM     16  C   UNL     1      -2.367   9.351  -1.753  0.00  0.00    +0.038 A 
ATOM     17  C   UNL     1      -2.185   9.676  -3.091  0.00  0.00    +0.023 A 
ATOM     18  C   UNL     1      -3.197  10.301  -3.792  0.00  0.00    +0.002 A 
ATOM     19  C   UNL     1      -4.391  10.604  -3.163  0.00  0.00    +0.004 A 
ATOM     20  C   UNL     1      -4.575  10.283  -1.831  0.00  0.00    -0.046 A 
ATOM     21  C   UNL     1      -3.568   9.652  -1.126  0.00  0.00    -0.026 A 
ATOM     22  C   UNL     1      -3.772   9.296   0.325  0.00  0.00    +0.046 C 
ATOM     23  C   UNL     1      -5.877  10.615  -1.149  0.00  0.00    +0.044 C 
ENDBRANCH  14  16
BRANCH   3  24
ATOM     24  C   UNL     1       0.638   3.348   1.252  0.00  0.00    +0.032 A 
ATOM     25  C   UNL     1      -0.411   3.270   0.344  0.00  0.00    +0.023 A 
ATOM     26  C   UNL     1      -1.646   2.808   0.757  0.00  0.00    +0.002 A 
ATOM     27  C   UNL     1      -1.839   2.429   2.073  0.00  0.00    +0.000 A 
ATOM     28  C   UNL     1      -0.795   2.500   2.977  0.00  0.00    +0.002 A 
ATOM     29  C   UNL     1       0.442   2.961   2.571  0.00  0.00    +0.023 A 
ENDBRANCH   3  24
BRANCH   1  30
ATOM     30  C   UNL     1       4.940   5.400   2.356  0.00  0.00    +0.205 C 
BRANCH  30  32
ATOM     31  N   UNL     1       5.730   6.642   4.344  0.00  0.00    -0.311 N 
ATOM     32  C   UNL     1       4.693   6.246   3.579  0.00  0.00    +0.231 C 
ATOM     33  O   UNL     1       3.563   6.570   3.875  0.00  0.00    -0.274 OA
ATOM     34  H   UNL     1       6.755   6.348   4.076  0.00  0.00    +0.149 HD
BRANCH  31  35
ATOM     35  C   UNL     1       5.490   7.464   5.533  0.00  0.00    +0.070 C 
ATOM     36  C   UNL     1       5.151   6.559   6.719  0.00  0.00    +0.028 C 
BRANCH  35  38
ATOM     37  C   UNL     1       7.016   9.269   4.722  0.00  0.00    +0.005 C 
ATOM     38  C   UNL     1       6.747   8.275   5.854  0.00  0.00    +0.018 C 
ENDBRANCH  35  38
ENDBRANCH  31  35
ENDBRANCH  30  32
ENDBRANCH   1  30
TORSDOF 6
