REMARK  Name = ZINC20204060
REMARK  9 active torsions:
REMARK  status: ('A' for Active; 'I' for Inactive)
REMARK    1  A    between atoms: C_1  and  C_2
REMARK    2  A    between atoms: C_3  and  C_8
REMARK    3  A    between atoms: C_8  and  N_9
REMARK    4  A    between atoms: C_14  and  C_22
REMARK    5  A    between atoms: N_16  and  C_17
REMARK    6  A    between atoms: C_17  and  C_18
REMARK    7  A    between atoms: C_18  and  C_19
REMARK    8  A    between atoms: C_19  and  C_20
REMARK    9  A    between atoms: C_19  and  C_21
REMARK                            x       y       z     vdW  Elec       q    Type
REMARK                         _______ _______ _______ _____ _____    ______ ____
ROOT
ATOM      1  N   UNL     1       1.591   0.024  -2.831  0.00  0.00    -0.292 NA
ATOM      2  C   UNL     1       2.208   1.014  -1.938  0.00  0.00    +0.091 C 
ATOM      3  C   UNL     1       3.737   0.928  -2.044  0.00  0.00    +0.071 C 
ATOM      4  C   UNL     1       4.099   0.947  -3.508  0.00  0.00    +0.046 A 
ATOM      5  C   UNL     1       3.196   0.713  -4.494  0.00  0.00    +0.020 A 
ATOM      6  C   UNL     1       3.906   0.821  -5.699  0.00  0.00    +0.152 A 
ATOM      7  N   UNL     1       5.157   1.103  -5.378  0.00  0.00    -0.166 NA
ATOM      8  N   UNL     1       5.281   1.177  -4.096  0.00  0.00    -0.267 N 
ATOM      9  C   UNL     1       1.746   0.403  -4.247  0.00  0.00    +0.124 C 
ENDROOT
BRANCH   6  10
ATOM     10  C   UNL     1       3.361   0.653  -7.062  0.00  0.00    +0.267 C 
ATOM     11  O   UNL     1       2.211   0.291  -7.217  0.00  0.00    -0.268 OA
ATOM     12  N   UNL     1       4.140   0.901  -8.134  0.00  0.00    -0.292 N 
ATOM     13  C   UNL     1       3.591   0.845  -9.498  0.00  0.00    +0.136 C 
ATOM     14  C   UNL     1       3.976   2.137 -10.228  0.00  0.00    +0.179 C 
ATOM     15  O   UNL     1       5.388   2.336 -10.119  0.00  0.00    -0.377 OA
ATOM     16  C   UNL     1       5.853   2.510  -8.779  0.00  0.00    +0.179 C 
ATOM     17  C   UNL     1       5.562   1.243  -7.974  0.00  0.00    +0.136 C 
ENDBRANCH   6  10
BRANCH   1  18
ATOM     18  C   UNL     1       0.176  -0.181  -2.492  0.00  0.00    +0.139 C 
BRANCH  18  21
ATOM     19  C   UNL     1       0.804  -3.124  -1.629  0.00  0.00    +0.065 C 
ATOM     20  C   UNL     1       0.340  -2.012  -0.724  0.00  0.00    +0.035 A 
ATOM     21  C   UNL     1       0.070  -0.747  -1.100  0.00  0.00    +0.050 A 
ATOM     22  N   UNL     1      -0.318  -0.074   0.027  0.00  0.00    -0.349 N 
ATOM     23  H   UNL     1      -0.578   0.859   0.080  0.00  0.00    +0.166 HD
ATOM     24  C   UNL     1      -0.272  -0.952   1.053  0.00  0.00    +0.171 A 
ATOM     25  N   UNL     1       0.117  -2.110   0.595  0.00  0.00    -0.350 N 
ATOM     26  H   UNL     1       0.230  -2.914   1.125  0.00  0.00    +0.166 HD
ENDBRANCH  18  21
ENDBRANCH   1  18
BRANCH   8  27
ATOM     27  C   UNL     1       6.530   1.470  -3.388  0.00  0.00    +0.144 C 
BRANCH  27  28
ATOM     28  C   UNL     1       7.266   0.162  -3.089  0.00  0.00    +0.026 C 
BRANCH  28  29
ATOM     29  C   UNL     1       8.570   0.469  -2.350  0.00  0.00    -0.015 C 
ATOM     30  C   UNL     1       8.250   1.075  -0.982  0.00  0.00    +0.007 C 
ATOM     31  C   UNL     1       9.364  -0.825  -2.161  0.00  0.00    +0.007 C 
ENDBRANCH  28  29
ENDBRANCH  27  28
ENDBRANCH   8  27
TORSDOF 6
