REMARK  Name = ZINC32911740
REMARK  10 active torsions:
REMARK  status: ('A' for Active; 'I' for Inactive)
REMARK    1  A    between atoms: C_1  and  C_2
REMARK    2  A    between atoms: C_2  and  C_3
REMARK    3  A    between atoms: C_2  and  C_4
REMARK    4  A    between atoms: C_2  and  C_5
REMARK    5  A    between atoms: C_5  and  C_7
REMARK    6  A    between atoms: C_5  and  N_13
REMARK    7  A    between atoms: N_13  and  C_14
REMARK    8  A    between atoms: C_14  and  N_15
REMARK    9  A    between atoms: N_18  and  C_32
REMARK   10  A    between atoms: C_19  and  C_21
REMARK                            x       y       z     vdW  Elec       q    Type
REMARK                         _______ _______ _______ _____ _____    ______ ____
ROOT
ATOM      1  N   UNL     1       7.345  -1.901   1.115  0.00  0.00    -0.258 N 
ATOM      2  C   UNL     1       7.921  -1.529  -0.048  0.00  0.00    +0.176 A 
ATOM      3  S   UNL     1       9.510  -1.909  -0.558  0.00  0.00    -0.011 S 
ATOM      4  N   UNL     1       7.013  -0.808  -0.735  0.00  0.00    -0.307 N 
ATOM      5  C   UNL     1       5.866  -0.728   0.016  0.00  0.00    +0.176 A 
ATOM      6  N   UNL     1       6.045  -1.376   1.122  0.00  0.00    -0.154 NA
ATOM      7  C   UNL     1       7.215  -0.209  -2.057  0.00  0.00    +0.153 C 
ENDROOT
BRANCH   5   8
ATOM      8  C   UNL     1       4.604  -0.007  -0.383  0.00  0.00    +0.278 C 
ATOM      9  C   UNL     1       4.483   1.302   0.408  0.00  0.00    +0.281 C 
ATOM     10  O   UNL     1       3.269   1.952   0.015  0.00  0.00    -0.484 OA
ATOM     11  C   UNL     1       2.153   1.177  -0.049  0.00  0.00    +0.162 A 
ATOM     12  C   UNL     1       0.904   1.780  -0.063  0.00  0.00    +0.049 A 
ATOM     13  C   UNL     1      -0.238   1.006  -0.134  0.00  0.00    +0.004 A 
ATOM     14  C   UNL     1      -0.140  -0.372  -0.190  0.00  0.00    +0.004 A 
ATOM     15  C   UNL     1       1.101  -0.980  -0.174  0.00  0.00    +0.049 A 
ATOM     16  C   UNL     1       2.252  -0.208  -0.102  0.00  0.00    +0.163 A 
ATOM     17  O   UNL     1       3.467  -0.822  -0.080  0.00  0.00    -0.474 OA
ENDBRANCH   5   8
BRANCH   1  18
ATOM     18  C   UNL     1       7.963  -2.704   2.172  0.00  0.00    +0.069 C 
BRANCH  18  19
ATOM     19  N   UNL     1       7.699  -4.128   1.923  0.00  0.00    +0.397 N 
ATOM     20  H   UNL     1       8.041  -4.378   0.908  0.00  0.00    -0.082 HD
ATOM     21  H   UNL     1       6.617  -4.305   1.999  0.00  0.00    -0.082 HD
BRANCH  19  22
ATOM     22  C   UNL     1       8.403  -4.972   2.898  0.00  0.00    -0.033 C 
BRANCH  22  23
ATOM     23  C   UNL     1       7.563  -5.109   4.142  0.00  0.00    -0.061 A 
ATOM     24  C   UNL     1       6.194  -5.261   4.038  0.00  0.00    +0.002 A 
ATOM     25  C   UNL     1       5.424  -5.392   5.179  0.00  0.00    +0.000 A 
ATOM     26  C   UNL     1       6.023  -5.360   6.424  0.00  0.00    +0.000 A 
ATOM     27  C   UNL     1       7.392  -5.202   6.529  0.00  0.00    +0.000 A 
ATOM     28  C   UNL     1       8.162  -5.077   5.388  0.00  0.00    +0.002 A 
ENDBRANCH  22  23
BRANCH  22  30
ATOM     29  C   UNL     1       9.605  -6.231   1.106  0.00  0.00    +0.009 C 
ATOM     30  C   UNL     1       8.648  -6.355   2.293  0.00  0.00    -0.046 C 
ATOM     31  C   UNL     1       9.263  -7.273   3.351  0.00  0.00    +0.009 C 
ATOM     32  C   UNL     1       7.319  -6.946   1.817  0.00  0.00    +0.009 C 
ENDBRANCH  22  30
ENDBRANCH  19  22
ENDBRANCH  18  19
ENDBRANCH   1  18
TORSDOF 6
