REMARK  Name = ZINC14075680
REMARK  4 active torsions:
REMARK  status: ('A' for Active; 'I' for Inactive)
REMARK    1  A    between atoms: C_3  and  O_22
REMARK    2  A    between atoms: C_4  and  C_12
REMARK    3  A    between atoms: C_12  and  N_41
REMARK    4  A    between atoms: C_17  and  C_19
REMARK                            x       y       z     vdW  Elec       q    Type
REMARK                         _______ _______ _______ _____ _____    ______ ____
ROOT
ATOM      1  C   UNL     1      -2.846  -3.380   2.522  0.00  0.00    +0.012 A 
ATOM      2  C   UNL     1      -3.344  -2.301   1.861  0.00  0.00    +0.046 A 
ATOM      3  C   UNL     1      -2.693  -1.784   0.737  0.00  0.00    +0.119 A 
ATOM      4  C   UNL     1      -1.545  -2.355   0.267  0.00  0.00    -0.015 A 
ATOM      5  C   UNL     1      -1.005  -3.471   0.927  0.00  0.00    -0.013 A 
ATOM      6  C   UNL     1      -1.664  -3.990   2.069  0.00  0.00    -0.016 A 
ATOM      7  C   UNL     1      -1.122  -5.107   2.729  0.00  0.00    +0.023 A 
ATOM      8  C   UNL     1       0.025  -5.674   2.263  0.00  0.00    +0.018 A 
ATOM      9  C   UNL     1       0.673  -5.163   1.139  0.00  0.00    +0.016 A 
ATOM     10  C   UNL     1       0.178  -4.083   0.475  0.00  0.00    +0.010 A 
ATOM     11 BR   UNL     1       0.750  -7.176   3.153  0.00  0.00    -0.050 Br
ENDROOT
BRANCH   3  12
ATOM     12  O   UNL     1      -3.212  -0.701   0.100  0.00  0.00    -0.507 OA
ATOM     13  H   UNL     1      -3.850  -0.921  -0.593  0.00  0.00    +0.292 HD
ENDBRANCH   3  12
BRANCH   4  14
ATOM     14  C   UNL     1      -0.859  -1.788  -0.949  0.00  0.00    -0.038 C 
BRANCH  14  20
ATOM     15  C   UNL     1       1.033  -1.109   0.401  0.00  0.00    -0.077 C 
ATOM     16  C   UNL     1       1.815   0.104   0.907  0.00  0.00    -0.019 C 
ATOM     17  C   UNL     1       2.462   0.821  -0.281  0.00  0.00    -0.003 C 
ATOM     18  C   UNL     1       1.372   1.227  -1.277  0.00  0.00    -0.006 C 
ATOM     19  C   UNL     1       0.602  -0.019  -1.720  0.00  0.00    +0.019 C 
ATOM     20  N   UNL     1      -0.016  -0.648  -0.534  0.00  0.00    +0.390 N 
ATOM     21  H   UNL     1      -0.605   0.045  -0.057  0.00  0.00    -0.080 HD
BRANCH  19  22
ATOM     22  C   UNL     1      -0.484   0.380  -2.685  0.00  0.00    +0.197 C 
ATOM     23  O   UNL     1      -1.580   0.691  -2.269  0.00  0.00    -0.278 OA
ATOM     24  N   UNL     1      -0.239   0.390  -4.010  0.00  0.00    -0.331 N 
ATOM     25  H   UNL     1       0.638   0.140  -4.343  0.00  0.00    +0.145 HD
ATOM     26  H   UNL     1      -0.938   0.646  -4.631  0.00  0.00    +0.145 HD
ENDBRANCH  19  22
ENDBRANCH  14  20
ENDBRANCH   4  14
TORSDOF 4
