REMARK  Name = ZINC08493092
REMARK  4 active torsions:
REMARK  status: ('A' for Active; 'I' for Inactive)
REMARK    1  A    between atoms: C_1  and  C_2
REMARK    2  A    between atoms: C_5  and  C_8
REMARK    3  A    between atoms: C_14  and  C_15
REMARK    4  A    between atoms: C_18  and  C_20
REMARK                            x       y       z     vdW  Elec       q    Type
REMARK                         _______ _______ _______ _____ _____    ______ ____
ROOT
ATOM      1  C   UNL     1       2.422  -4.142   0.333  0.00  0.00    +0.130 C 
ATOM      2  N   UNL     1       1.921  -4.947   1.239  0.00  0.00    -0.164 NA
ATOM      3  N   UNL     1       1.539  -6.231   0.914  0.00  0.00    -0.152 N 
ATOM      4  C   UNL     1       0.906  -7.147   1.782  0.00  0.00    +0.153 C 
ATOM      5  N   UNL     1       0.231  -6.783   2.842  0.00  0.00    -0.283 NA
ATOM      6  C   UNL     1       1.081  -8.566   1.372  0.00  0.00    +0.084 C 
ATOM      7  C   UNL     1       1.171  -9.589   2.304  0.00  0.00    +0.063 C 
ATOM      8  C   UNL     1       1.154  -8.828  -0.083  0.00  0.00    +0.273 C 
ATOM      9  O   UNL     1       0.845  -9.917  -0.541  0.00  0.00    -0.268 OA
ATOM     10  N   UNL     1       1.573  -7.831  -0.888  0.00  0.00    -0.152 NA
ATOM     11  C   UNL     1       1.773  -6.641  -0.381  0.00  0.00    +0.181 C 
ATOM     12  S   UNL     1       2.409  -5.165  -1.132  0.00  0.00    -0.033 S 
ATOM     13  H   UNL     1       0.146  -5.843   3.065  0.00  0.00    +0.188 HD
ENDROOT
BRANCH   1  18
ATOM     14  C   UNL     1       4.185   1.306   0.919  0.00  0.00    +0.044 C 
ATOM     15  C   UNL     1       3.723  -0.120   0.766  0.00  0.00    -0.050 A 
ATOM     16  C   UNL     1       3.799  -0.740  -0.469  0.00  0.00    +0.004 A 
ATOM     17  C   UNL     1       3.378  -2.046  -0.616  0.00  0.00    +0.011 A 
ATOM     18  C   UNL     1       2.875  -2.741   0.484  0.00  0.00    +0.009 A 
ATOM     19  C   UNL     1       2.802  -2.111   1.726  0.00  0.00    +0.011 A 
ATOM     20  C   UNL     1       3.231  -0.807   1.861  0.00  0.00    +0.004 A 
ENDBRANCH   1  18
BRANCH   7  21
ATOM     21  C   UNL     1       1.578 -10.871   1.902  0.00  0.00    +0.129 A 
ATOM     22  C   UNL     1       1.570 -12.013   2.691  0.00  0.00    +0.050 A 
ATOM     23  C   UNL     1       2.051 -13.054   1.898  0.00  0.00    +0.050 A 
ATOM     24  C   UNL     1       2.335 -12.520   0.658  0.00  0.00    +0.136 A 
ATOM     25  O   UNL     1       2.038 -11.209   0.678  0.00  0.00    -0.455 OA
BRANCH  24  26
ATOM     26  C   UNL     1       2.868 -13.264  -0.498  0.00  0.00    +0.017 A 
ATOM     27  C   UNL     1       3.124 -14.634  -0.393  0.00  0.00    +0.013 A 
ATOM     28  C   UNL     1       3.623 -15.324  -1.478  0.00  0.00    +0.021 A 
ATOM     29  C   UNL     1       3.871 -14.663  -2.669  0.00  0.00    +0.041 A 
ATOM     30  C   UNL     1       3.619 -13.305  -2.780  0.00  0.00    +0.021 A 
ATOM     31  C   UNL     1       3.114 -12.604  -1.705  0.00  0.00    +0.013 A 
ATOM     32 CL   UNL     1       4.500 -15.539  -4.029  0.00  0.00    -0.084 Cl
ENDBRANCH  24  26
ENDBRANCH   7  21
TORSDOF 3
