REMARK  Name = ZINC40287616
REMARK  5 active torsions:
REMARK  status: ('A' for Active; 'I' for Inactive)
REMARK    1  A    between atoms: C_1  and  C_2
REMARK    2  A    between atoms: C_9  and  C_26
REMARK    3  A    between atoms: C_10  and  C_17
REMARK    4  A    between atoms: C_15  and  C_16
REMARK    5  A    between atoms: C_17  and  C_18
REMARK                            x       y       z     vdW  Elec       q    Type
REMARK                         _______ _______ _______ _____ _____    ______ ____
ROOT
ATOM      1  C   UNL     1      -0.018   1.503   0.010  0.00  0.00    +0.047 C 
ATOM      2  C   UNL     1       0.002  -0.004   0.002  0.00  0.00    -0.005 A 
ATOM      3  C   UNL     1       0.009  -0.802  -1.073  0.00  0.00    +0.199 A 
ATOM      4  O   UNL     1       0.028  -2.093  -0.695  0.00  0.00    -0.462 OA
ATOM      5  C   UNL     1       0.035  -2.202   0.649  0.00  0.00    +0.141 A 
ATOM      6  C   UNL     1       0.025  -0.893   1.172  0.00  0.00    +0.024 A 
ATOM      7  C   UNL     1       0.035  -0.683   2.544  0.00  0.00    +0.023 A 
ATOM      8  C   UNL     1       0.058  -1.782   3.403  0.00  0.00    +0.022 A 
ATOM      9  C   UNL     1       0.068  -1.597   4.857  0.00  0.00    -0.029 A 
ATOM     10  C   UNL     1       0.090  -2.703   5.644  0.00  0.00    +0.049 A 
ATOM     11  C   UNL     1       0.102  -3.985   5.054  0.00  0.00    +0.341 A 
ATOM     12  O   UNL     1       0.121  -4.968   5.772  0.00  0.00    -0.245 OA
ATOM     13  O   UNL     1       0.092  -4.149   3.722  0.00  0.00    -0.422 OA
ATOM     14  C   UNL     1       0.071  -3.092   2.879  0.00  0.00    +0.146 A 
ATOM     15  C   UNL     1       0.053  -3.290   1.510  0.00  0.00    +0.035 A 
ATOM     16  C   UNL     1       0.070  -4.690   0.952  0.00  0.00    +0.051 C 
ATOM     17  C   UNL     1       0.056  -0.217   5.462  0.00  0.00    +0.045 C 
ENDROOT
BRANCH  10  18
ATOM     18  C   UNL     1       0.102  -2.562   7.144  0.00  0.00    +0.138 C 
BRANCH  18  19
ATOM     19  C   UNL     1      -1.308  -2.658   7.669  0.00  0.00    +0.223 C 
ATOM     20  O   UNL     1      -2.231  -2.823   6.900  0.00  0.00    -0.275 OA
ATOM     21  N   UNL     1      -1.543  -2.558   8.992  0.00  0.00    -0.263 N 
ATOM     22  C   UNL     1      -2.843  -2.646   9.477  0.00  0.00    +0.187 A 
ATOM     23  N   UNL     1      -3.967  -2.828   8.812  0.00  0.00    -0.126 NA
ATOM     24  N   UNL     1      -5.086  -2.887   9.396  0.00  0.00    -0.148 NA
ATOM     25  C   UNL     1      -5.133  -2.763  10.707  0.00  0.00    +0.183 A 
ATOM     26  S   UNL     1      -3.394  -2.554  11.067  0.00  0.00    -0.039 S 
ATOM     27  H   UNL     1      -0.804  -2.426   9.607  0.00  0.00    +0.157 HD
ENDBRANCH  18  19
ENDBRANCH  10  18
TORSDOF 2
