REMARK  Name = ZINC38520106
REMARK  8 active torsions:
REMARK  status: ('A' for Active; 'I' for Inactive)
REMARK    1  A    between atoms: C_1  and  C_2
REMARK    2  A    between atoms: C_2  and  C_3
REMARK    3  A    between atoms: C_2  and  C_4
REMARK    4  A    between atoms: C_7  and  O_10
REMARK    5  A    between atoms: O_10  and  C_11
REMARK    6  A    between atoms: C_11  and  C_12
REMARK    7  A    between atoms: N_18  and  C_20
REMARK    8  A    between atoms: C_25  and  C_27
REMARK                            x       y       z     vdW  Elec       q    Type
REMARK                         _______ _______ _______ _____ _____    ______ ____
ROOT
ATOM      1  C   UNL     1       2.878  -3.107   6.614  0.00  0.00    +0.256 C 
ATOM      2  O   UNL     1       4.025  -2.714   6.662  0.00  0.00    -0.272 OA
ATOM      3  N   UNL     1       2.396  -3.901   7.590  0.00  0.00    -0.266 N 
ATOM      4  C   UNL     1       3.220  -4.272   8.662  0.00  0.00    +0.153 A 
ATOM      5  C   UNL     1       2.854  -5.087   9.729  0.00  0.00    +0.042 A 
ATOM      6  C   UNL     1       3.939  -5.214  10.554  0.00  0.00    +0.129 A 
ATOM      7  N   UNL     1       4.944  -4.492  10.023  0.00  0.00    -0.251 N 
ATOM      8  N   UNL     1       4.475  -3.916   8.831  0.00  0.00    -0.154 NA
ATOM      9  C   UNL     1       6.288  -4.339  10.585  0.00  0.00    +0.174 C 
ATOM     10  N   UNL     1       3.898  -5.992  11.711  0.00  0.00    -0.270 N 
ATOM     11  C   UNL     1       2.824  -6.787  11.904  0.00  0.00    +0.219 C 
ATOM     12  O   UNL     1       2.679  -7.325  12.982  0.00  0.00    -0.275 OA
ATOM     13  C   UNL     1       1.804  -7.027  10.828  0.00  0.00    +0.109 C 
ATOM     14  C   UNL     1       1.533  -5.752  10.024  0.00  0.00    +0.071 C 
ATOM     15  H   UNL     1       1.479  -4.215   7.551  0.00  0.00    +0.156 HD
ATOM     16  H   UNL     1       4.620  -5.963  12.357  0.00  0.00    +0.156 HD
ENDROOT
BRANCH  14  17
ATOM     17  C   UNL     1       0.664  -4.820  10.829  0.00  0.00    -0.002 A 
ATOM     18  C   UNL     1      -0.557  -4.315  10.526  0.00  0.00    +0.012 A 
ATOM     19  C   UNL     1      -1.175  -3.469  11.427  0.00  0.00    +0.008 A 
ATOM     20  C   UNL     1      -0.542  -3.169  12.588  0.00  0.00    +0.045 A 
ATOM     21  S   UNL     1       0.973  -4.100  12.434  0.00  0.00    -0.101 S 
ENDBRANCH  14  17
BRANCH   1  22
ATOM     22  C   UNL     1       1.993  -2.707   5.461  0.00  0.00    +0.324 C 
BRANCH  22  23
ATOM     23  O   UNL     1       2.727  -1.871   4.564  0.00  0.00    -0.483 OA
BRANCH  23  27
ATOM     24  C   UNL     1       0.731  -0.503   1.223  0.00  0.00    -0.045 A 
ATOM     25  C   UNL     1       2.050  -0.147   1.433  0.00  0.00    +0.007 A 
ATOM     26  C   UNL     1       2.721  -0.604   2.551  0.00  0.00    +0.046 A 
ATOM     27  C   UNL     1       2.069  -1.420   3.464  0.00  0.00    +0.121 A 
ATOM     28  C   UNL     1       0.745  -1.776   3.251  0.00  0.00    +0.046 A 
ATOM     29  C   UNL     1       0.077  -1.312   2.134  0.00  0.00    +0.007 A 
BRANCH  24  31
ATOM     30  C   UNL     1      -0.019   1.526   0.010  0.00  0.00    +0.012 C 
ATOM     31  C   UNL     1       0.002  -0.004   0.002  0.00  0.00    +0.013 C 
ATOM     32  C   UNL     1       0.718  -0.497  -1.257  0.00  0.00    +0.012 C 
ENDBRANCH  24  31
ENDBRANCH  23  27
ENDBRANCH  22  23
ENDBRANCH   1  22
TORSDOF 5
