REMARK  Name = ZINC39661698
REMARK  11 active torsions:
REMARK  status: ('A' for Active; 'I' for Inactive)
REMARK    1  A    between atoms: C_1  and  C_2
REMARK    2  A    between atoms: C_2  and  C_3
REMARK    3  A    between atoms: C_3  and  C_4
REMARK    4  A    between atoms: C_4  and  C_6
REMARK    5  A    between atoms: C_4  and  C_7
REMARK    6  A    between atoms: C_11  and  C_20
REMARK    7  A    between atoms: N_22  and  C_23
REMARK    8  A    between atoms: C_23  and  C_24
REMARK    9  A    between atoms: C_24  and  C_25
REMARK   10  A    between atoms: C_28  and  O_32
REMARK   11  A    between atoms: C_29  and  O_31
REMARK                            x       y       z     vdW  Elec       q    Type
REMARK                         _______ _______ _______ _____ _____    ______ ____
ROOT
ATOM      1  C   UNL     1      -2.990  -2.822  -0.284  0.00  0.00    +0.218 C 
ATOM      2  O   UNL     1      -3.965  -2.133  -0.499  0.00  0.00    -0.275 OA
ATOM      3  N   UNL     1      -3.131  -4.150  -0.101  0.00  0.00    -0.300 N 
ATOM      4  C   UNL     1      -2.086  -5.130   0.278  0.00  0.00    +0.121 C 
ATOM      5  C   UNL     1      -2.791  -6.091   1.262  0.00  0.00    +0.100 C 
ATOM      6  C   UNL     1      -4.286  -5.976   0.920  0.00  0.00    -0.004 C 
ATOM      7  C   UNL     1      -4.367  -4.959  -0.227  0.00  0.00    +0.115 C 
ATOM      8  C   UNL     1      -5.066  -5.463   2.127  0.00  0.00    -0.010 C 
ATOM      9  C   UNL     1      -6.556  -5.412   1.781  0.00  0.00    -0.082 C 
ATOM     10  N   UNL     1      -7.021  -6.753   1.407  0.00  0.00    +0.379 N 
ATOM     11  C   UNL     1      -6.331  -7.200   0.191  0.00  0.00    -0.082 C 
ATOM     12  C   UNL     1      -4.831  -7.327   0.469  0.00  0.00    -0.010 C 
ATOM     13  H   UNL     1      -6.825  -7.397   2.159  0.00  0.00    -0.086 HD
ATOM     14  H   UNL     1      -8.015  -6.729   1.238  0.00  0.00    -0.086 HD
ENDROOT
BRANCH   5  15
ATOM     15  C   UNL     1      -2.309  -7.503   1.052  0.00  0.00    +0.218 C 
ATOM     16  O   UNL     1      -1.933  -7.859  -0.044  0.00  0.00    -0.275 OA
ATOM     17  N   UNL     1      -2.296  -8.371   2.083  0.00  0.00    -0.315 N 
ATOM     18  H   UNL     1      -2.597  -8.087   2.961  0.00  0.00    +0.149 HD
BRANCH  17  19
ATOM     19  C   UNL     1      -1.829  -9.744   1.879  0.00  0.00    +0.109 C 
BRANCH  19  20
ATOM     20  C   UNL     1      -1.916 -10.514   3.199  0.00  0.00    +0.054 C 
BRANCH  20  21
ATOM     21  C   UNL     1      -1.434 -11.927   2.989  0.00  0.00    -0.042 A 
ATOM     22  C   UNL     1      -2.329 -12.912   2.615  0.00  0.00    +0.007 A 
ATOM     23  C   UNL     1      -1.893 -14.209   2.421  0.00  0.00    +0.049 A 
ATOM     24  C   UNL     1      -0.555 -14.524   2.601  0.00  0.00    +0.158 A 
ATOM     25  C   UNL     1       0.345 -13.533   2.977  0.00  0.00    +0.158 A 
ATOM     26  C   UNL     1      -0.098 -12.233   3.165  0.00  0.00    +0.052 A 
BRANCH  25  27
ATOM     27  O   UNL     1       1.659 -13.837   3.155  0.00  0.00    -0.503 OA
ATOM     28  H   UNL     1       2.196 -13.745   2.356  0.00  0.00    +0.292 HD
ENDBRANCH  25  27
BRANCH  24  29
ATOM     29  O   UNL     1      -0.124 -15.800   2.411  0.00  0.00    -0.503 OA
ATOM     30  H   UNL     1       0.157 -15.990   1.506  0.00  0.00    +0.292 HD
ENDBRANCH  24  29
ENDBRANCH  20  21
ENDBRANCH  19  20
ENDBRANCH  17  19
ENDBRANCH   5  15
BRANCH   1  31
ATOM     31  C   UNL     1      -1.622  -2.194  -0.221  0.00  0.00    +0.072 C 
ATOM     32  C   UNL     1      -1.330  -1.750   1.214  0.00  0.00    +0.017 C 
BRANCH  31  33
ATOM     33  C   UNL     1      -1.575  -0.979  -1.149  0.00  0.00    +0.012 C 
BRANCH  33  35
ATOM     34  C   UNL     1      -0.107   0.800  -2.110  0.00  0.00    +0.004 C 
ATOM     35  C   UNL     1      -0.153  -0.415  -1.181  0.00  0.00    -0.003 C 
ENDBRANCH  33  35
ENDBRANCH  31  33
ENDBRANCH   1  31
TORSDOF 9
