REMARK  Name = ZINC09477511
REMARK  6 active torsions:
REMARK  status: ('A' for Active; 'I' for Inactive)
REMARK    1  A    between atoms: C_8  and  C_29
REMARK    2  A    between atoms: C_11  and  C_12
REMARK    3  A    between atoms: C_11  and  N_52
REMARK    4  A    between atoms: N_14  and  C_15
REMARK    5  A    between atoms: C_15  and  C_17
REMARK    6  A    between atoms: C_15  and  C_24
REMARK                            x       y       z     vdW  Elec       q    Type
REMARK                         _______ _______ _______ _____ _____    ______ ____
ROOT
ATOM      1  C   UNL     1      -5.877   2.291   2.356  0.00  0.00    +0.020 C 
ENDROOT
BRANCH   1  11
ATOM      2  C   UNL     1      -9.687  -2.867   2.795  0.00  0.00    +0.000 A 
ATOM      3  C   UNL     1      -9.684  -2.426   1.485  0.00  0.00    +0.000 A 
ATOM      4  C   UNL     1      -8.982  -1.287   1.145  0.00  0.00    +0.002 A 
ATOM      5  C   UNL     1      -8.279  -0.582   2.111  0.00  0.00    -0.061 A 
ATOM      6  C   UNL     1      -8.280  -1.024   3.416  0.00  0.00    -0.047 A 
ATOM      7  C   UNL     1      -8.986  -2.167   3.757  0.00  0.00    +0.004 A 
ATOM      8  C   UNL     1      -7.526  -0.295   4.498  0.00  0.00    +0.029 C 
ATOM      9  C   UNL     1      -7.177   1.118   4.031  0.00  0.00    +0.024 C 
ATOM     10  C   UNL     1      -7.536   0.660   1.692  0.00  0.00    -0.041 C 
ATOM     11  N   UNL     1      -6.529   1.010   2.709  0.00  0.00    +0.396 N 
ATOM     12  H   UNL     1      -5.817   0.271   2.744  0.00  0.00    -0.080 HD
BRANCH   9  13
ATOM     13  C   UNL     1      -6.224   1.758   5.007  0.00  0.00    +0.197 C 
ATOM     14  O   UNL     1      -5.032   1.553   4.914  0.00  0.00    -0.278 OA
ATOM     15  N   UNL     1      -6.695   2.558   5.984  0.00  0.00    -0.331 N 
ATOM     16  H   UNL     1      -7.648   2.722   6.059  0.00  0.00    +0.145 HD
ATOM     17  H   UNL     1      -6.081   2.969   6.612  0.00  0.00    +0.145 HD
ENDBRANCH   9  13
ENDBRANCH   1  11
BRANCH   1  18
ATOM     18  C   UNL     1      -4.924   2.056   1.212  0.00  0.00    +0.197 C 
ATOM     19  O   UNL     1      -4.811   0.946   0.737  0.00  0.00    -0.278 OA
ATOM     20  N   UNL     1      -4.198   3.078   0.719  0.00  0.00    -0.306 N 
ATOM     21  H   UNL     1      -4.289   3.966   1.100  0.00  0.00    +0.150 HD
BRANCH  20  22
ATOM     22  C   UNL     1      -3.272   2.849  -0.393  0.00  0.00    +0.140 C 
BRANCH  22  23
ATOM     23  C   UNL     1      -2.184   3.892  -0.363  0.00  0.00    -0.022 A 
ATOM     24  C   UNL     1      -0.878   3.536  -0.645  0.00  0.00    +0.008 A 
ATOM     25  C   UNL     1       0.119   4.493  -0.623  0.00  0.00    +0.038 A 
ATOM     26  C   UNL     1      -0.189   5.807  -0.314  0.00  0.00    +0.123 A 
ATOM     27  C   UNL     1      -1.497   6.161  -0.027  0.00  0.00    +0.038 A 
ATOM     28  C   UNL     1      -2.492   5.203  -0.049  0.00  0.00    +0.008 A 
ATOM     29  F   UNL     1       0.785   6.743  -0.293  0.00  0.00    -0.205 F 
ENDBRANCH  22  23
BRANCH  22  30
ATOM     30  C   UNL     1      -4.020   2.941  -1.697  0.00  0.00    +0.014 A 
ATOM     31  C   UNL     1      -3.892   2.178  -2.810  0.00  0.00    +0.013 A 
ATOM     32  C   UNL     1      -4.694   2.446  -3.903  0.00  0.00    +0.008 A 
ATOM     33  C   UNL     1      -5.586   3.464  -3.829  0.00  0.00    +0.045 A 
ATOM     34  S   UNL     1      -5.311   4.077  -2.175  0.00  0.00    -0.099 S 
ENDBRANCH  22  30
ENDBRANCH  20  22
ENDBRANCH   1  18
TORSDOF 6
