REMARK  Name = ZINC63213046
REMARK  5 active torsions:
REMARK  status: ('A' for Active; 'I' for Inactive)
REMARK    1  A    between atoms: C_3  and  S_10
REMARK    2  A    between atoms: C_6  and  N_7
REMARK    3  A    between atoms: S_10  and  N_13
REMARK    4  A    between atoms: N_13  and  C_14
REMARK    5  A    between atoms: C_21  and  N_23
REMARK                            x       y       z     vdW  Elec       q    Type
REMARK                         _______ _______ _______ _____ _____    ______ ____
ROOT
ATOM      1  N   UNL     1       4.327   2.556   1.555  0.00  0.00    -0.188 NA
ATOM      2  H   UNL     1       4.356   3.455   1.917  0.00  0.00    +0.148 HD
ENDROOT
BRANCH   1   3
ATOM      3  C   UNL     1       4.670   1.412   2.405  0.00  0.00    +0.062 C 
ATOM      4  C   UNL     1       3.407   0.960   3.163  0.00  0.00    +0.019 C 
ATOM      5  C   UNL     1       3.728   0.090   4.348  0.00  0.00    +0.001 C 
ATOM      6  C   UNL     1       3.813   0.983   5.602  0.00  0.00    -0.000 C 
ATOM      7  C   UNL     1       5.090   1.674   5.706  0.00  0.00    -0.002 C 
ATOM      8  C   UNL     1       5.340   2.630   4.522  0.00  0.00    -0.015 C 
ATOM      9  C   UNL     1       5.817   1.821   3.349  0.00  0.00    -0.056 C 
BRANCH   9  10
ATOM     10  N   UNL     1       6.794   2.617   2.594  0.00  0.00    +0.381 N 
ATOM     11  H   UNL     1       6.344   3.442   2.226  0.00  0.00    -0.090 HD
ATOM     12  H   UNL     1       7.550   2.890   3.204  0.00  0.00    -0.090 HD
ATOM     13  H   UNL     1       7.160   2.065   1.832  0.00  0.00    -0.090 HD
ENDBRANCH   9  10
ENDBRANCH   1   3
BRANCH   1  14
ATOM     14  S   UNL     1       3.891   2.312  -0.024  0.00  0.00    +0.059 S 
ATOM     15  O   UNL     1       4.872   1.453  -0.588  0.00  0.00    -0.153 OA
ATOM     16  O   UNL     1       3.597   3.593  -0.566  0.00  0.00    -0.153 OA
BRANCH  14  19
ATOM     17  C   UNL     1      -0.017   1.378   0.010  0.00  0.00    +0.034 A 
ATOM     18  C   UNL     1       1.171   2.086   0.002  0.00  0.00    +0.031 A 
ATOM     19  C   UNL     1       2.377   1.411  -0.013  0.00  0.00    +0.105 A 
ATOM     20  C   UNL     1       2.396   0.029  -0.020  0.00  0.00    +0.031 A 
ATOM     21  C   UNL     1       1.208  -0.679  -0.012  0.00  0.00    +0.034 A 
ATOM     22  C   UNL     1       0.002  -0.004   0.002  0.00  0.00    +0.126 A 
BRANCH  22  23
ATOM     23  N   UNL     1      -1.270  -0.761   0.011  0.00  0.00    +0.056 N 
ATOM     24  O   UNL     1      -2.325  -0.171   0.024  0.00  0.00    -0.126 OA
ATOM     25  O   UNL     1      -1.253  -1.970   0.004  0.00  0.00    -0.126 OA
ENDBRANCH  22  23
ENDBRANCH  14  19
ENDBRANCH   1  14
TORSDOF 5
