REMARK  Name = ZINC06300649
REMARK  6 active torsions:
REMARK  status: ('A' for Active; 'I' for Inactive)
REMARK    1  A    between atoms: C_1  and  C_2
REMARK    2  A    between atoms: C_4  and  C_36
REMARK    3  A    between atoms: C_9  and  C_14
REMARK    4  A    between atoms: C_14  and  C_16
REMARK    5  A    between atoms: C_14  and  N_73
REMARK    6  A    between atoms: N_20  and  C_21
REMARK                            x       y       z     vdW  Elec       q    Type
REMARK                         _______ _______ _______ _____ _____    ______ ____
ROOT
ATOM      1  C   UNL     1      -2.604   3.705   0.044  0.00  0.00    +0.039 C 
ENDROOT
BRANCH   1  10
ATOM      2  C   UNL     1       4.829   3.896   0.624  0.00  0.00    +0.044 C 
ATOM      3  C   UNL     1       3.541   3.126   0.474  0.00  0.00    -0.050 A 
ATOM      4  C   UNL     1       3.574   1.741   0.384  0.00  0.00    +0.008 A 
ATOM      5  C   UNL     1       2.409   1.018   0.246  0.00  0.00    -0.026 A 
ATOM      6  C   UNL     1       1.187   1.681   0.197  0.00  0.00    +0.052 A 
ATOM      7  C   UNL     1       1.158   3.085   0.289  0.00  0.00    -0.001 A 
ATOM      8  C   UNL     1       2.353   3.798   0.428  0.00  0.00    +0.013 A 
ATOM      9  C   UNL     1      -0.134   3.773   0.237  0.00  0.00    +0.017 A 
ATOM     10  C   UNL     1      -1.259   3.029   0.101  0.00  0.00    +0.011 A 
ATOM     11  C   UNL     1      -1.175   1.623   0.009  0.00  0.00    +0.251 A 
ATOM     12  O   UNL     1      -2.199   0.973  -0.117  0.00  0.00    -0.268 OA
ATOM     13  N   UNL     1       0.006   0.982   0.061  0.00  0.00    -0.322 N 
ATOM     14  H   UNL     1       0.028   0.014  -0.003  0.00  0.00    +0.169 HD
ATOM     15  C   UNL     1       2.459  -0.485   0.150  0.00  0.00    +0.046 C 
ENDBRANCH   1  10
BRANCH   1  26
ATOM     16  C   UNL     1      -4.797   3.791   1.066  0.00  0.00    -0.077 C 
ATOM     17  C   UNL     1      -5.736   3.071   2.037  0.00  0.00    -0.018 C 
ATOM     18  C   UNL     1      -5.128   3.100   3.442  0.00  0.00    +0.003 C 
ATOM     19  C   UNL     1      -3.744   2.446   3.404  0.00  0.00    -0.044 C 
ATOM     20  C   UNL     1      -2.863   3.183   2.394  0.00  0.00    -0.071 C 
ATOM     21  C   UNL     1      -3.885   0.981   2.986  0.00  0.00    +0.005 C 
ATOM     22  C   UNL     1      -4.769   0.245   3.994  0.00  0.00    +0.000 C 
ATOM     23  C   UNL     1      -4.131   0.321   5.383  0.00  0.00    +0.000 C 
ATOM     24  C   UNL     1      -3.990   1.786   5.801  0.00  0.00    +0.000 C 
ATOM     25  C   UNL     1      -3.106   2.522   4.792  0.00  0.00    +0.005 C 
ATOM     26  N   UNL     1      -3.491   3.098   1.058  0.00  0.00    +0.390 N 
ATOM     27  H   UNL     1      -3.639   2.110   0.822  0.00  0.00    -0.080 HD
ENDBRANCH   1  26
BRANCH   1  28
ATOM     28  C   UNL     1      -3.212   3.501  -1.320  0.00  0.00    +0.143 A 
ATOM     29  N   UNL     1      -3.819   2.422  -1.752  0.00  0.00    -0.115 NA
ATOM     30  N   UNL     1      -4.199   2.639  -2.964  0.00  0.00    -0.023 NA
ATOM     31  N   UNL     1      -3.843   3.824  -3.319  0.00  0.00    -0.044 NA
ATOM     32  N   UNL     1      -3.232   4.387  -2.332  0.00  0.00    -0.227 N 
BRANCH  32  33
ATOM     33  C   UNL     1      -2.665   5.738  -2.317  0.00  0.00    +0.111 C 
ATOM     34  C   UNL     1      -3.764   6.776  -2.628  0.00  0.00    +0.027 C 
ATOM     35  C   UNL     1      -3.043   7.845  -3.488  0.00  0.00    +0.002 C 
ATOM     36  C   UNL     1      -2.093   6.994  -4.367  0.00  0.00    +0.002 C 
ATOM     37  C   UNL     1      -1.603   5.877  -3.422  0.00  0.00    +0.027 C 
ENDBRANCH  32  33
ENDBRANCH   1  28
TORSDOF 4
