REMARK  Name = ZINC21248891
REMARK  7 active torsions:
REMARK  status: ('A' for Active; 'I' for Inactive)
REMARK    1  A    between atoms: C_1  and  C_2
REMARK    2  A    between atoms: C_2  and  C_3
REMARK    3  A    between atoms: C_2  and  C_4
REMARK    4  A    between atoms: C_4  and  O_5
REMARK    5  A    between atoms: O_5  and  C_6
REMARK    6  A    between atoms: C_9  and  C_12
REMARK    7  A    between atoms: C_17  and  C_23
REMARK                            x       y       z     vdW  Elec       q    Type
REMARK                         _______ _______ _______ _____ _____    ______ ____
ROOT
ATOM      1  C   UNL     1       1.527   0.036   6.140  0.00  0.00    +0.032 C 
ATOM      2  C   UNL     1       2.965   0.549   6.239  0.00  0.00    +0.059 C 
ATOM      3  C   UNL     1       3.573   0.101   7.545  0.00  0.00    +0.018 C 
ATOM      4  C   UNL     1       3.196  -1.058   8.123  0.00  0.00    +0.020 C 
ATOM      5  C   UNL     1       3.830  -1.494   9.423  0.00  0.00    +0.063 C 
ATOM      6  C   UNL     1       4.120  -0.263  10.283  0.00  0.00    +0.109 C 
ATOM      7  C   UNL     1       4.818   0.774   9.442  0.00  0.00    +0.218 C 
ATOM      8  O   UNL     1       5.647   1.503   9.944  0.00  0.00    -0.275 OA
ATOM      9  N   UNL     1       4.524   0.894   8.136  0.00  0.00    -0.289 N 
ATOM     10  C   UNL     1       2.218  -1.881   7.540  0.00  0.00    +0.162 C 
ATOM     11  O   UNL     1       1.911  -2.923   8.084  0.00  0.00    -0.292 OA
ATOM     12  C   UNL     1       1.544  -1.492   6.251  0.00  0.00    +0.088 C 
ATOM     13  H   UNL     1       5.062   1.646   7.538  0.00  0.00    +0.155 HD
ENDROOT
BRANCH   5  14
ATOM     14  C   UNL     1       5.118  -2.221   9.134  0.00  0.00    -0.038 A 
ATOM     15  C   UNL     1       6.139  -1.577   8.458  0.00  0.00    +0.004 A 
ATOM     16  C   UNL     1       7.323  -2.242   8.199  0.00  0.00    +0.001 A 
ATOM     17  C   UNL     1       7.483  -3.553   8.605  0.00  0.00    +0.015 A 
ATOM     18  C   UNL     1       6.460  -4.199   9.276  0.00  0.00    +0.018 A 
ATOM     19  C   UNL     1       5.278  -3.532   9.541  0.00  0.00    +0.019 A 
ATOM     20 BR   UNL     1       6.679  -5.993   9.832  0.00  0.00    -0.050 Br
ENDBRANCH   5  14
BRANCH   1  24
ATOM     21  C   UNL     1      -0.149   1.182   2.380  0.00  0.00    +0.121 A 
ATOM     22  C   UNL     1       0.991   0.392   2.421  0.00  0.00    +0.046 A 
ATOM     23  C   UNL     1       1.534   0.028   3.638  0.00  0.00    +0.007 A 
ATOM     24  C   UNL     1       0.936   0.440   4.814  0.00  0.00    -0.043 A 
ATOM     25  C   UNL     1      -0.203   1.223   4.776  0.00  0.00    +0.007 A 
ATOM     26  C   UNL     1      -0.747   1.595   3.561  0.00  0.00    +0.046 A 
BRANCH  21  27
ATOM     27  O   UNL     1      -0.682   1.547   1.184  0.00  0.00    -0.492 OA
BRANCH  27  28
ATOM     28  C   UNL     1      -0.013   1.086   0.008  0.00  0.00    +0.232 C 
BRANCH  28  30
ATOM     29  C   UNL     1       0.031   1.205  -2.487  0.00  0.00    +0.010 C 
ATOM     30  C   UNL     1      -0.753   1.593  -1.232  0.00  0.00    +0.020 C 
ATOM     31  C   UNL     1      -2.147   0.964  -1.286  0.00  0.00    +0.010 C 
ENDBRANCH  28  30
ENDBRANCH  27  28
ENDBRANCH  21  27
ENDBRANCH   1  24
TORSDOF 5
