REMARK  Name = ZINC28060722
REMARK  9 active torsions:
REMARK  status: ('A' for Active; 'I' for Inactive)
REMARK    1  A    between atoms: C_1  and  C_2
REMARK    2  A    between atoms: C_10  and  C_18
REMARK    3  A    between atoms: C_23  and  C_26
REMARK    4  A    between atoms: C_28  and  O_36
REMARK    5  A    between atoms: C_29  and  O_34
REMARK    6  A    between atoms: C_30  and  O_32
REMARK    7  A    between atoms: O_32  and  C_33
REMARK    8  A    between atoms: O_34  and  C_35
REMARK    9  A    between atoms: O_36  and  C_37
REMARK                            x       y       z     vdW  Elec       q    Type
REMARK                         _______ _______ _______ _____ _____    ______ ____
ROOT
ATOM      1  C   UNL     1      -0.358   8.890  -4.730  0.00  0.00    +0.044 C 
ATOM      2  C   UNL     1       0.226   7.527  -4.460  0.00  0.00    -0.050 A 
ATOM      3  C   UNL     1       0.552   6.696  -5.517  0.00  0.00    +0.007 A 
ATOM      4  C   UNL     1       1.090   5.443  -5.285  0.00  0.00    +0.046 A 
ATOM      5  C   UNL     1       1.303   5.017  -3.987  0.00  0.00    +0.131 A 
ATOM      6  C   UNL     1       0.972   5.857  -2.916  0.00  0.00    +0.038 A 
ATOM      7  C   UNL     1       0.433   7.114  -3.158  0.00  0.00    +0.016 A 
ATOM      8  C   UNL     1       1.213   5.370  -1.536  0.00  0.00    +0.050 C 
ATOM      9  C   UNL     1       2.015   4.317  -1.365  0.00  0.00    +0.026 C 
ATOM     10  C   UNL     1       2.296   3.729  -0.005  0.00  0.00    +0.181 C 
ATOM     11  N   UNL     1       1.841   4.637   1.038  0.00  0.00    -0.201 N 
ATOM     12  C   UNL     1       1.032   5.705   0.811  0.00  0.00    +0.240 A 
ATOM     13  N   UNL     1       0.821   6.283   1.959  0.00  0.00    -0.092 NA
ATOM     14  N   UNL     1       1.447   5.656   2.896  0.00  0.00    -0.021 NA
ATOM     15  N   UNL     1       2.090   4.644   2.409  0.00  0.00    -0.042 NA
ATOM     16  N   UNL     1       0.588   6.016  -0.463  0.00  0.00    -0.282 N 
ATOM     17  C   UNL     1       2.678   3.693  -2.572  0.00  0.00    +0.234 C 
ATOM     18  O   UNL     1       1.833   3.796  -3.718  0.00  0.00    -0.479 OA
ATOM     19  H   UNL     1      -0.221   6.738  -0.651  0.00  0.00    +0.155 HD
ENDROOT
BRANCH  17  20
ATOM     20  C   UNL     1       3.978   4.405  -2.848  0.00  0.00    +0.004 A 
ATOM     21  C   UNL     1       5.176   3.812  -2.497  0.00  0.00    +0.057 A 
ATOM     22  C   UNL     1       6.375   4.460  -2.753  0.00  0.00    +0.166 A 
ATOM     23  C   UNL     1       6.369   5.714  -3.354  0.00  0.00    +0.204 A 
ATOM     24  C   UNL     1       5.162   6.309  -3.701  0.00  0.00    +0.166 A 
ATOM     25  C   UNL     1       3.968   5.651  -3.446  0.00  0.00    +0.057 A 
BRANCH  24  26
ATOM     26  O   UNL     1       5.151   7.535  -4.290  0.00  0.00    -0.491 OA
ATOM     27  C   UNL     1       3.874   8.085  -4.619  0.00  0.00    +0.277 C 
ENDBRANCH  24  26
BRANCH  23  28
ATOM     28  O   UNL     1       7.543   6.356  -3.603  0.00  0.00    -0.488 OA
ATOM     29  C   UNL     1       8.044   7.213  -2.575  0.00  0.00    +0.277 C 
ENDBRANCH  23  28
BRANCH  22  30
ATOM     30  O   UNL     1       7.553   3.874  -2.412  0.00  0.00    -0.491 OA
ATOM     31  C   UNL     1       7.483   2.586  -1.798  0.00  0.00    +0.277 C 
ENDBRANCH  22  30
ENDBRANCH  17  20
BRANCH  10  32
ATOM     32  C   UNL     1       1.575   2.412   0.129  0.00  0.00    +0.019 A 
ATOM     33  C   UNL     1       2.088   1.176   0.341  0.00  0.00    +0.013 A 
ATOM     34  C   UNL     1       1.226   0.099   0.430  0.00  0.00    +0.008 A 
ATOM     35  C   UNL     1      -0.107   0.311   0.303  0.00  0.00    +0.045 A 
ATOM     36  S   UNL     1      -0.176   2.077   0.048  0.00  0.00    -0.099 S 
ENDBRANCH  10  32
TORSDOF 5
