REMARK  Name = ZINC00268284
REMARK  7 active torsions:
REMARK  status: ('A' for Active; 'I' for Inactive)
REMARK    1  A    between atoms: C_1  and  C_2
REMARK    2  A    between atoms: C_5  and  C_8
REMARK    3  A    between atoms: C_11  and  C_25
REMARK    4  A    between atoms: C_15  and  C_18
REMARK    5  A    between atoms: N_20  and  C_21
REMARK    6  A    between atoms: C_21  and  C_22
REMARK    7  A    between atoms: C_21  and  C_23
REMARK                            x       y       z     vdW  Elec       q    Type
REMARK                         _______ _______ _______ _____ _____    ______ ____
ROOT
ATOM      1  C   UNL     1       0.059  -4.275  -0.021  0.00  0.00    +0.104 C 
ATOM      2  C   UNL     1      -1.352  -4.810   0.244  0.00  0.00    +0.059 C 
ATOM      3  C   UNL     1      -1.872  -4.263   1.579  0.00  0.00    +0.177 C 
ATOM      4  N   UNL     1      -0.851  -4.478   2.609  0.00  0.00    -0.241 N 
ATOM      5  C   UNL     1       0.454  -4.712   2.335  0.00  0.00    +0.130 A 
ATOM      6  C   UNL     1       1.113  -4.868   3.540  0.00  0.00    +0.096 A 
ATOM      7  C   UNL     1       0.140  -4.715   4.560  0.00  0.00    +0.149 A 
ATOM      8  N   UNL     1      -1.014  -4.486   3.993  0.00  0.00    -0.177 NA
ATOM      9  N   UNL     1       0.958  -4.766   1.042  0.00  0.00    -0.322 N 
ATOM     10  H   UNL     1       1.845  -5.107   0.847  0.00  0.00    +0.148 HD
ENDROOT
BRANCH   1  15
ATOM     11  C   UNL     1      -0.018   1.503   0.010  0.00  0.00    +0.044 C 
ATOM     12  C   UNL     1       0.002  -0.004   0.002  0.00  0.00    -0.050 A 
ATOM     13  C   UNL     1       0.006  -0.689  -1.199  0.00  0.00    +0.004 A 
ATOM     14  C   UNL     1       0.025  -2.071  -1.206  0.00  0.00    +0.006 A 
ATOM     15  C   UNL     1       0.040  -2.768  -0.013  0.00  0.00    -0.027 A 
ATOM     16  C   UNL     1       0.037  -2.084   1.188  0.00  0.00    +0.006 A 
ATOM     17  C   UNL     1       0.023  -0.702   1.195  0.00  0.00    +0.004 A 
ENDBRANCH   1  15
BRANCH   6  18
ATOM     18  C   UNL     1       2.543  -5.138   3.727  0.00  0.00    +0.249 C 
ATOM     19  O   UNL     1       3.274  -5.247   2.760  0.00  0.00    -0.270 OA
ATOM     20  N   UNL     1       3.048  -5.267   4.971  0.00  0.00    -0.309 N 
ATOM     21  H   UNL     1       2.465  -5.180   5.742  0.00  0.00    +0.149 HD
BRANCH  20  22
ATOM     22  C   UNL     1       4.475  -5.537   5.158  0.00  0.00    +0.067 C 
ATOM     23  C   UNL     1       4.913  -5.036   6.536  0.00  0.00    +0.027 C 
ATOM     24  C   UNL     1       4.726  -7.043   5.059  0.00  0.00    +0.027 C 
ENDBRANCH  20  22
ENDBRANCH   6  18
BRANCH   3  25
ATOM     25  C   UNL     1      -3.158  -4.996   1.967  0.00  0.00    +0.365 C 
ATOM     26  F   UNL     1      -3.631  -4.495   3.185  0.00  0.00    -0.207 F 
ATOM     27  F   UNL     1      -4.125  -4.798   0.975  0.00  0.00    -0.207 F 
ENDBRANCH   3  25
TORSDOF 4
