REMARK  Name = ZINC08915564
REMARK  7 active torsions:
REMARK  status: ('A' for Active; 'I' for Inactive)
REMARK    1  A    between atoms: C_3  and  C_10
REMARK    2  A    between atoms: C_5  and  N_7
REMARK    3  A    between atoms: C_13  and  C_15
REMARK    4  A    between atoms: C_17  and  C_29
REMARK    5  A    between atoms: C_19  and  C_24
REMARK    6  A    between atoms: C_19  and  O_28
REMARK    7  A    between atoms: C_29  and  C_31
REMARK                            x       y       z     vdW  Elec       q    Type
REMARK                         _______ _______ _______ _____ _____    ______ ____
ROOT
ATOM      1  C   UNL     1      -1.043   0.873   0.564  0.00  0.00    +0.156 C 
ATOM      2  C   UNL     1      -0.915   2.002   1.592  0.00  0.00    +0.148 C 
ATOM      3  C   UNL     1      -0.080   3.130   0.977  0.00  0.00    +0.243 C 
ATOM      4  N   UNL     1       1.206   2.588   0.532  0.00  0.00    -0.264 N 
ATOM      5  C   UNL     1       1.326   1.310   0.141  0.00  0.00    +0.302 C 
ATOM      6  O   UNL     1       2.414   0.913  -0.230  0.00  0.00    -0.253 OA
ATOM      7  N   UNL     1       0.294   0.453   0.142  0.00  0.00    -0.289 N 
ATOM      8  H   UNL     1       1.986   3.164   0.520  0.00  0.00    +0.153 HD
ATOM      9  H   UNL     1       0.437  -0.463  -0.143  0.00  0.00    +0.151 HD
ENDROOT
BRANCH   1  13
ATOM     10  C   UNL     1      -3.363   2.345  -1.845  0.00  0.00    +0.135 A 
ATOM     11  C   UNL     1      -2.476   1.782  -2.707  0.00  0.00    +0.050 A 
ATOM     12  C   UNL     1      -1.484   1.160  -1.922  0.00  0.00    +0.047 A 
ATOM     13  C   UNL     1      -1.818   1.364  -0.632  0.00  0.00    +0.127 A 
ATOM     14  O   UNL     1      -2.951   2.083  -0.589  0.00  0.00    -0.458 OA
BRANCH  10  17
ATOM     15  C   UNL     1      -6.013   4.025  -3.908  0.00  0.00    +0.003 A 
ATOM     16  C   UNL     1      -4.882   3.314  -3.565  0.00  0.00    +0.012 A 
ATOM     17  C   UNL     1      -4.571   3.110  -2.220  0.00  0.00    +0.019 A 
ATOM     18  C   UNL     1      -5.402   3.637  -1.230  0.00  0.00    +0.044 A 
ATOM     19  C   UNL     1      -6.527   4.350  -1.586  0.00  0.00    +0.127 A 
ATOM     20  C   UNL     1      -6.833   4.544  -2.922  0.00  0.00    +0.033 A 
BRANCH  19  21
ATOM     21  N   UNL     1      -7.410   4.909  -0.538  0.00  0.00    +0.056 N 
ATOM     22  O   UNL     1      -7.143   4.739   0.638  0.00  0.00    -0.126 OA
ATOM     23  O   UNL     1      -8.405   5.539  -0.851  0.00  0.00    -0.126 OA
ENDBRANCH  19  21
ENDBRANCH  10  17
ENDBRANCH   1  13
BRANCH   3  24
ATOM     24  C   UNL     1      -0.825   3.724  -0.220  0.00  0.00    +0.436 C 
ATOM     25  F   UNL     1      -0.595   2.935  -1.352  0.00  0.00    -0.166 F 
ATOM     26  F   UNL     1      -2.197   3.756   0.055  0.00  0.00    -0.166 F 
ATOM     27  F   UNL     1      -0.366   5.024  -0.456  0.00  0.00    -0.166 F 
ENDBRANCH   3  24
BRANCH   3  28
ATOM     28  O   UNL     1       0.144   4.148   1.954  0.00  0.00    -0.364 OA
ATOM     29  H   UNL     1       0.671   4.892   1.633  0.00  0.00    +0.212 HD
ENDBRANCH   3  28
BRANCH   2  30
ATOM     30  C   UNL     1      -0.231   1.483   2.830  0.00  0.00    +0.180 C 
ATOM     31  O   UNL     1       0.969   1.620   2.964  0.00  0.00    -0.291 OA
BRANCH  30  32
ATOM     32  C   UNL     1      -0.985   0.839   3.836  0.00  0.00    +0.055 A 
ATOM     33  C   UNL     1      -0.553   0.289   5.039  0.00  0.00    +0.019 A 
ATOM     34  C   UNL     1      -1.507  -0.279   5.842  0.00  0.00    +0.008 A 
ATOM     35  C   UNL     1      -2.804  -0.289   5.429  0.00  0.00    +0.046 A 
ATOM     36  S   UNL     1      -2.737   0.511   3.892  0.00  0.00    -0.094 S 
ENDBRANCH  30  32
ENDBRANCH   2  30
TORSDOF 7
