REMARK  Name = ZINC39016980
REMARK  11 active torsions:
REMARK  status: ('A' for Active; 'I' for Inactive)
REMARK    1  A    between atoms: C_1  and  C_2
REMARK    2  A    between atoms: C_4  and  C_15
REMARK    3  A    between atoms: C_5  and  C_14
REMARK    4  A    between atoms: N_7  and  C_8
REMARK    5  A    between atoms: N_16  and  N_17
REMARK    6  A    between atoms: C_18  and  C_20
REMARK    7  A    between atoms: C_23  and  C_26
REMARK    8  A    between atoms: C_29  and  C_32
REMARK    9  A    between atoms: C_32  and  C_33
REMARK   10  A    between atoms: C_33  and  C_34
REMARK   11  A    between atoms: C_33  and  C_35
REMARK                            x       y       z     vdW  Elec       q    Type
REMARK                         _______ _______ _______ _____ _____    ______ ____
ROOT
ATOM      1  N   UNL     1       0.884  -0.567  -4.884  0.00  0.00    -0.205 N 
ATOM      2  C   UNL     1       1.665  -1.087  -5.852  0.00  0.00    +0.263 C 
ATOM      3  O   UNL     1       2.640  -1.746  -5.556  0.00  0.00    -0.271 OA
ATOM      4  H   UNL     1       0.105  -0.040  -5.120  0.00  0.00    +0.177 HD
ENDROOT
BRANCH   2   5
ATOM      5  C   UNL     1       1.327  -0.849  -7.301  0.00  0.00    +0.240 C 
ATOM      6  C   UNL     1       0.268  -1.830  -7.773  0.00  0.00    +0.041 C 
ATOM      7  C   UNL     1       0.882  -2.521  -8.753  0.00  0.00    +0.092 C 
ATOM      8  N   UNL     1       2.156  -2.078  -8.919  0.00  0.00    -0.153 NA
ATOM      9  N   UNL     1       2.482  -1.157  -8.161  0.00  0.00    -0.170 NA
BRANCH   7  10
ATOM     10  C   UNL     1       0.256  -3.612  -9.539  0.00  0.00    +0.002 A 
ATOM     11  C   UNL     1      -1.063  -3.986  -9.289  0.00  0.00    +0.010 A 
ATOM     12  C   UNL     1      -1.640  -5.002 -10.024  0.00  0.00    +0.004 A 
ATOM     13  C   UNL     1      -0.912  -5.648 -11.007  0.00  0.00    -0.047 A 
ATOM     14  C   UNL     1       0.397  -5.281 -11.259  0.00  0.00    +0.004 A 
ATOM     15  C   UNL     1       0.983  -4.263 -10.534  0.00  0.00    +0.010 A 
BRANCH  13  16
ATOM     16  C   UNL     1      -1.548  -6.757 -11.806  0.00  0.00    +0.038 C 
BRANCH  16  17
ATOM     17  C   UNL     1      -2.221  -6.169 -13.048  0.00  0.00    -0.013 C 
ATOM     18  C   UNL     1      -1.157  -5.567 -13.967  0.00  0.00    +0.007 C 
ATOM     19  C   UNL     1      -2.972  -7.275 -13.792  0.00  0.00    +0.007 C 
ENDBRANCH  16  17
ENDBRANCH  13  16
ENDBRANCH   7  10
ENDBRANCH   2   5
BRANCH   1  21
ATOM     20  C   UNL     1       0.444  -0.285  -2.602  0.00  0.00    +0.137 C 
ATOM     21  N   UNL     1       1.198  -0.787  -3.537  0.00  0.00    -0.188 NA
BRANCH  20  24
ATOM     22  C   UNL     1      -0.019   1.526   0.010  0.00  0.00    +0.035 C 
ATOM     23  C   UNL     1       0.002  -0.004   0.002  0.00  0.00    +0.124 C 
ATOM     24  C   UNL     1       0.772  -0.515  -1.196  0.00  0.00    +0.012 C 
ATOM     25  C   UNL     1       1.812  -1.219  -0.725  0.00  0.00    +0.025 C 
ATOM     26  N   UNL     1       1.828  -1.239   0.646  0.00  0.00    -0.267 N 
ATOM     27  N   UNL     1       0.745  -0.514   1.166  0.00  0.00    -0.246 N 
ATOM     28  C   UNL     1       2.835  -1.904  -1.595  0.00  0.00    +0.062 C 
ATOM     29  H   UNL     1       2.497  -1.694   1.183  0.00  0.00    +0.170 HD
BRANCH  27  30
ATOM     30  C   UNL     1       0.434  -0.315   2.513  0.00  0.00    +0.048 A 
ATOM     31  C   UNL     1      -0.684   0.429   2.867  0.00  0.00    +0.025 A 
ATOM     32  C   UNL     1      -0.988   0.624   4.200  0.00  0.00    +0.002 A 
ATOM     33  C   UNL     1      -0.181   0.079   5.182  0.00  0.00    +0.000 A 
ATOM     34  C   UNL     1       0.933  -0.662   4.833  0.00  0.00    +0.002 A 
ATOM     35  C   UNL     1       1.240  -0.866   3.502  0.00  0.00    +0.025 A 
ENDBRANCH  27  30
ENDBRANCH  20  24
ENDBRANCH   1  21
TORSDOF 7
