REMARK  Name = ZINC13004701
REMARK  14 active torsions:
REMARK  status: ('A' for Active; 'I' for Inactive)
REMARK    1  A    between atoms: C_1  and  C_2
REMARK    2  A    between atoms: C_3  and  C_29
REMARK    3  A    between atoms: C_4  and  C_28
REMARK    4  A    between atoms: C_7  and  C_8
REMARK    5  A    between atoms: C_8  and  C_10
REMARK    6  A    between atoms: C_10  and  N_66
REMARK    7  A    between atoms: C_11  and  C_13
REMARK    8  A    between atoms: C_11  and  C_25
REMARK    9  A    between atoms: C_11  and  N_66
REMARK   10  A    between atoms: C_16  and  C_19
REMARK   11  A    between atoms: C_25  and  C_26
REMARK   12  A    between atoms: C_25  and  C_27
REMARK   13  A    between atoms: C_29  and  O_31
REMARK   14  A    between atoms: O_31  and  C_32
REMARK                            x       y       z     vdW  Elec       q    Type
REMARK                         _______ _______ _______ _____ _____    ______ ____
ROOT
ATOM      1  N   UNL     1       4.231  -0.308  -0.041  0.00  0.00    +0.389 N 
ATOM      2  H   UNL     1       4.635   0.129   0.796  0.00  0.00    -0.084 HD
ATOM      3  H   UNL     1       4.618   0.138  -0.881  0.00  0.00    -0.084 HD
ENDROOT
BRANCH   1   4
ATOM      4  C   UNL     1       2.767  -0.128  -0.025  0.00  0.00    +0.001 C 
BRANCH   4   5
ATOM      5  C   UNL     1       2.450   1.345  -0.015  0.00  0.00    +0.163 C 
ATOM      6  O   UNL     1       3.351   2.160  -0.019  0.00  0.00    -0.293 OA
BRANCH   5  13
ATOM      7  C   UNL     1       1.546   4.320   0.011  0.00  0.00    +0.047 C 
ATOM      8  C   UNL     1       0.675   3.090   0.012  0.00  0.00    -0.008 A 
ATOM      9  C   UNL     1      -0.736   3.058   0.025  0.00  0.00    +0.083 A 
ATOM     10  C   UNL     1      -1.115   1.727   0.016  0.00  0.00    +0.028 A 
ATOM     11  N   UNL     1      -0.011   0.966   0.007  0.00  0.00    -0.355 N 
ATOM     12  H   UNL     1       0.002  -0.004   0.002  0.00  0.00    +0.166 HD
ATOM     13  C   UNL     1       1.103   1.780   0.001  0.00  0.00    +0.084 A 
ATOM     14  C   UNL     1      -2.533   1.218   0.019  0.00  0.00    +0.064 C 
BRANCH   9  15
ATOM     15  C   UNL     1      -1.636   4.224   0.040  0.00  0.00    +0.341 C 
ATOM     16  O   UNL     1      -2.018   4.710  -1.006  0.00  0.00    -0.245 OA
BRANCH  15  17
ATOM     17  O   UNL     1      -2.037   4.751   1.214  0.00  0.00    -0.464 OA
ATOM     18  C   UNL     1      -2.924   5.898   1.153  0.00  0.00    +0.280 C 
ENDBRANCH  15  17
ENDBRANCH   9  15
ENDBRANCH   5  13
ENDBRANCH   4   5
ENDBRANCH   1   4
BRANCH   1  19
ATOM     19  C   UNL     1       4.570  -1.743  -0.052  0.00  0.00    -0.038 C 
BRANCH  19  20
ATOM     20  C   UNL     1       5.934  -1.924  -0.667  0.00  0.00    -0.061 A 
ATOM     21  C   UNL     1       6.945  -1.025  -0.384  0.00  0.00    +0.002 A 
ATOM     22  C   UNL     1       8.197  -1.194  -0.944  0.00  0.00    +0.004 A 
ATOM     23  C   UNL     1       8.436  -2.256  -1.796  0.00  0.00    -0.044 A 
ATOM     24  C   UNL     1       7.424  -3.153  -2.083  0.00  0.00    +0.004 A 
ATOM     25  C   UNL     1       6.173  -2.987  -1.518  0.00  0.00    +0.002 A 
BRANCH  23  26
ATOM     26  C   UNL     1       9.800  -2.437  -2.411  0.00  0.00    +0.019 C 
ATOM     27  C   UNL     1      10.840  -2.610  -1.303  0.00  0.00    +0.008 C 
ATOM     28  C   UNL     1      12.225  -2.794  -1.927  0.00  0.00    +0.001 C 
ATOM     29  C   UNL     1      12.573  -1.562  -2.766  0.00  0.00    +0.000 C 
ATOM     30  C   UNL     1      11.533  -1.389  -3.874  0.00  0.00    +0.001 C 
ATOM     31  C   UNL     1      10.148  -1.205  -3.249  0.00  0.00    +0.008 C 
ENDBRANCH  23  26
ENDBRANCH  19  20
BRANCH  19  32
ATOM     32  C   UNL     1       4.583  -2.276   1.382  0.00  0.00    -0.027 C 
ATOM     33  C   UNL     1       4.944  -3.763   1.371  0.00  0.00    +0.006 C 
ATOM     34  C   UNL     1       5.619  -1.506   2.204  0.00  0.00    +0.006 C 
ENDBRANCH  19  32
ENDBRANCH   1  19
TORSDOF 9
