REMARK  Name = ZINC00731994
REMARK  8 active torsions:
REMARK  status: ('A' for Active; 'I' for Inactive)
REMARK    1  A    between atoms: C_4  and  O_7
REMARK    2  A    between atoms: O_7  and  C_8
REMARK    3  A    between atoms: C_8  and  C_9
REMARK    4  A    between atoms: N_11  and  C_12
REMARK    5  A    between atoms: C_12  and  C_14
REMARK    6  A    between atoms: C_12  and  N_18
REMARK    7  A    between atoms: N_18  and  C_19
REMARK    8  A    between atoms: C_20  and  C_28
REMARK                            x       y       z     vdW  Elec       q    Type
REMARK                         _______ _______ _______ _____ _____    ______ ____
ROOT
ATOM      1  C   UNL     1      -2.306   7.238  -3.039  0.00  0.00    +0.210 C 
ENDROOT
BRANCH   1   4
ATOM      2  C   UNL     1      -0.390   7.304  -4.542  0.00  0.00    +0.252 C 
ATOM      3  O   UNL     1      -0.589   6.136  -4.800  0.00  0.00    -0.272 OA
ATOM      4  N   UNL     1      -1.193   7.949  -3.672  0.00  0.00    -0.291 N 
ATOM      5  H   UNL     1      -1.012   9.008  -3.438  0.00  0.00    +0.151 HD
BRANCH   2   6
ATOM      6  C   UNL     1       0.756   8.035  -5.193  0.00  0.00    +0.324 C 
BRANCH   6   7
ATOM      7  O   UNL     1       1.454   7.145  -6.066  0.00  0.00    -0.483 OA
BRANCH   7  11
ATOM      8  C   UNL     1       4.697   8.679  -8.102  0.00  0.00    +0.000 A 
ATOM      9  C   UNL     1       4.332   7.358  -8.282  0.00  0.00    +0.004 A 
ATOM     10  C   UNL     1       3.246   6.842  -7.602  0.00  0.00    +0.045 A 
ATOM     11  C   UNL     1       2.522   7.651  -6.737  0.00  0.00    +0.121 A 
ATOM     12  C   UNL     1       2.888   8.977  -6.563  0.00  0.00    +0.045 A 
ATOM     13  C   UNL     1       3.978   9.487  -7.241  0.00  0.00    +0.004 A 
ENDBRANCH   7  11
ENDBRANCH   6   7
ENDBRANCH   2   6
ENDBRANCH   1   4
BRANCH   1  14
ATOM     14  C   UNL     1      -3.560   8.114  -3.081  0.00  0.00    +0.225 C 
ATOM     15 CL   UNL     1      -3.249   9.653  -2.196  0.00  0.00    -0.080 Cl
ATOM     16 CL   UNL     1      -3.979   8.480  -4.796  0.00  0.00    -0.080 Cl
ATOM     17 CL   UNL     1      -4.931   7.239  -2.302  0.00  0.00    -0.080 Cl
ENDBRANCH   1  14
BRANCH   1  18
ATOM     18  N   UNL     1      -1.966   6.940  -1.645  0.00  0.00    -0.317 N 
ATOM     19  H   UNL     1      -1.984   7.741  -0.891  0.00  0.00    +0.148 HD
BRANCH  18  20
ATOM     20  C   UNL     1      -1.623   5.653  -1.278  0.00  0.00    +0.080 A 
ATOM     21  C   UNL     1      -1.273   5.178  -0.020  0.00  0.00    +0.068 A 
ATOM     22  C   UNL     1      -0.952   3.765   0.098  0.00  0.00    -0.023 A 
ATOM     23  C   UNL     1      -1.032   3.059  -1.049  0.00  0.00    -0.005 A 
ATOM     24  S   UNL     1      -1.524   4.239  -2.274  0.00  0.00    -0.078 S 
ATOM     25  C   UNL     1      -0.761   1.597  -1.232  0.00  0.00    +0.043 C 
ATOM     26  C   UNL     1      -0.013   1.086   0.008  0.00  0.00    +0.005 C 
ATOM     27  C   UNL     1      -0.735   1.583   1.264  0.00  0.00    +0.005 C 
ATOM     28  C   UNL     1      -0.551   3.094   1.406  0.00  0.00    +0.037 C 
BRANCH  21  29
ATOM     29  C   UNL     1      -1.228   6.068   1.142  0.00  0.00    +0.244 C 
ATOM     30  O   UNL     1      -2.222   6.225   1.827  0.00  0.00    -0.270 OA
ATOM     31  N   UNL     1      -0.086   6.712   1.454  0.00  0.00    -0.325 N 
ATOM     32  H   UNL     1      -0.052   7.380   2.328  0.00  0.00    +0.145 HD
ATOM     33  H   UNL     1       0.812   6.570   0.836  0.00  0.00    +0.145 HD
ENDBRANCH  21  29
ENDBRANCH  18  20
ENDBRANCH   1  18
TORSDOF 8
