REMARK  Name = ZINC37063712
REMARK  7 active torsions:
REMARK  status: ('A' for Active; 'I' for Inactive)
REMARK    1  A    between atoms: C_1  and  C_2
REMARK    2  A    between atoms: C_5  and  N_21
REMARK    3  A    between atoms: C_6  and  S_9
REMARK    4  A    between atoms: C_7  and  C_8
REMARK    5  A    between atoms: S_9  and  N_12
REMARK    6  A    between atoms: N_12  and  C_13
REMARK    7  A    between atoms: C_18  and  C_19
REMARK                            x       y       z     vdW  Elec       q    Type
REMARK                         _______ _______ _______ _____ _____    ______ ____
ROOT
ATOM      1  S   UNL     1      -0.768  -2.960   2.745  0.00  0.00    +0.074 S 
ATOM      2  O   UNL     1      -1.657  -2.509   3.757  0.00  0.00    -0.150 OA
ATOM      3  O   UNL     1      -0.984  -4.164   2.022  0.00  0.00    -0.150 OA
ENDROOT
BRANCH   1   9
ATOM      4  C   UNL     1      -1.748   1.930   1.183  0.00  0.00    +0.044 C 
ATOM      5  C   UNL     1      -1.142   0.582   0.885  0.00  0.00    -0.046 A 
ATOM      6  C   UNL     1      -0.509   0.363  -0.325  0.00  0.00    +0.005 A 
ATOM      7  C   UNL     1       0.047  -0.870  -0.602  0.00  0.00    +0.025 A 
ATOM      8  C   UNL     1      -0.030  -1.891   0.337  0.00  0.00    +0.052 A 
ATOM      9  C   UNL     1      -0.666  -1.668   1.551  0.00  0.00    +0.132 A 
ATOM     10  C   UNL     1      -1.216  -0.430   1.824  0.00  0.00    -0.019 A 
ATOM     11  C   UNL     1      -1.901  -0.185   3.143  0.00  0.00    +0.046 C 
BRANCH   8  12
ATOM     12  N   UNL     1       0.531  -3.140   0.060  0.00  0.00    -0.356 N 
ATOM     13  H   UNL     1       0.747  -3.383  -0.854  0.00  0.00    +0.142 HD
ATOM     14  H   UNL     1       0.704  -3.765   0.782  0.00  0.00    +0.142 HD
ENDBRANCH   8  12
ENDBRANCH   1   9
BRANCH   1  15
ATOM     15  N   UNL     1       0.725  -3.093   3.450  0.00  0.00    -0.216 N 
ATOM     16  H   UNL     1       1.260  -3.888   3.305  0.00  0.00    +0.174 HD
BRANCH  15  17
ATOM     17  C   UNL     1       1.212  -2.059   4.254  0.00  0.00    +0.052 A 
ATOM     18  C   UNL     1       0.346  -1.352   5.079  0.00  0.00    +0.025 A 
ATOM     19  C   UNL     1       0.831  -0.331   5.873  0.00  0.00    +0.003 A 
ATOM     20  C   UNL     1       2.176  -0.012   5.847  0.00  0.00    +0.020 A 
ATOM     21  C   UNL     1       3.041  -0.714   5.027  0.00  0.00    +0.046 A 
ATOM     22  C   UNL     1       2.563  -1.741   4.234  0.00  0.00    -0.010 A 
ATOM     23  C   UNL     1       3.507  -2.510   3.345  0.00  0.00    +0.047 C 
ATOM     24 CL   UNL     1       4.729  -0.309   4.998  0.00  0.00    -0.083 Cl
ENDBRANCH  15  17
ENDBRANCH   1  15
TORSDOF 4
