REMARK  Name = ZINC02328367
REMARK  8 active torsions:
REMARK  status: ('A' for Active; 'I' for Inactive)
REMARK    1  A    between atoms: C_1  and  C_2
REMARK    2  A    between atoms: C_2  and  C_3
REMARK    3  A    between atoms: C_3  and  O_4
REMARK    4  A    between atoms: O_4  and  C_5
REMARK    5  A    between atoms: C_8  and  C_11
REMARK    6  A    between atoms: C_12  and  C_22
REMARK    7  A    between atoms: N_24  and  N_25
REMARK    8  A    between atoms: C_26  and  C_27
REMARK                            x       y       z     vdW  Elec       q    Type
REMARK                         _______ _______ _______ _____ _____    ______ ____
ROOT
ATOM      1  C   UNL     1      -5.086  -4.208  -0.006  0.00  0.00    +0.109 A 
ATOM      2  C   UNL     1      -4.955  -2.823   0.007  0.00  0.00    +0.177 A 
ATOM      3  N   UNL     1      -6.186  -2.287   0.016  0.00  0.00    -0.124 NA
ATOM      4  N   UNL     1      -7.073  -3.218   0.014  0.00  0.00    -0.058 NA
ATOM      5  N   UNL     1      -6.428  -4.463   0.005  0.00  0.00    -0.187 N 
ATOM      6  C   UNL     1      -7.040  -5.720   0.001  0.00  0.00    +0.241 A 
ATOM      7  C   UNL     1      -8.484  -5.972   0.006  0.00  0.00    +0.206 A 
ATOM      8  N   UNL     1      -8.675  -7.262  -0.001  0.00  0.00    -0.032 NA
ATOM      9  O   UNL     1      -7.405  -7.889  -0.011  0.00  0.00    -0.239 OA
ATOM     10  N   UNL     1      -6.423  -6.868  -0.015  0.00  0.00    -0.027 NA
ATOM     11  N   UNL     1      -9.480  -5.001   0.017  0.00  0.00    -0.337 N 
ATOM     12  H   UNL     1      -9.240  -4.061   0.021  0.00  0.00    +0.144 HD
ATOM     13  H   UNL     1     -10.413  -5.264   0.020  0.00  0.00    +0.144 HD
ENDROOT
BRANCH   1  17
ATOM     14  C   UNL     1      -1.947  -7.068  -0.057  0.00  0.00    +0.121 A 
ATOM     15  C   UNL     1      -1.891  -5.963  -0.897  0.00  0.00    +0.046 A 
ATOM     16  C   UNL     1      -2.907  -5.033  -0.884  0.00  0.00    +0.013 A 
ATOM     17  C   UNL     1      -3.995  -5.202  -0.023  0.00  0.00    +0.003 A 
ATOM     18  C   UNL     1      -4.044  -6.311   0.824  0.00  0.00    +0.013 A 
ATOM     19  C   UNL     1      -3.026  -7.239   0.800  0.00  0.00    +0.046 A 
BRANCH  14  20
ATOM     20  O   UNL     1      -0.943  -7.982  -0.073  0.00  0.00    -0.492 OA
BRANCH  20  21
ATOM     21  C   UNL     1      -1.063  -9.094   0.817  0.00  0.00    +0.229 C 
BRANCH  21  23
ATOM     22  C   UNL     1       0.023 -11.199   1.610  0.00  0.00    +0.007 C 
ATOM     23  C   UNL     1       0.152 -10.009   0.658  0.00  0.00    +0.038 C 
ENDBRANCH  21  23
ENDBRANCH  20  21
ENDBRANCH  14  20
ENDBRANCH   1  17
BRANCH   2  24
ATOM     24  C   UNL     1      -3.688  -2.075   0.006  0.00  0.00    +0.286 C 
ATOM     25  O   UNL     1      -2.628  -2.674  -0.002  0.00  0.00    -0.267 OA
ATOM     26  N   UNL     1      -3.700  -0.728   0.014  0.00  0.00    -0.202 N 
ATOM     27  H   UNL     1      -4.545  -0.250   0.021  0.00  0.00    +0.178 HD
BRANCH  26  28
ATOM     28  N   UNL     1      -2.494  -0.016   0.013  0.00  0.00    -0.187 NA
ATOM     29  C   UNL     1      -2.506   1.282   0.020  0.00  0.00    +0.141 C 
BRANCH  29  30
ATOM     30  C   UNL     1      -1.236   2.031   0.019  0.00  0.00    +0.032 A 
ATOM     31  C   UNL     1      -1.245   3.428   0.033  0.00  0.00    +0.050 A 
ATOM     32  C   UNL     1      -0.052   4.123   0.025  0.00  0.00    +0.124 A 
ATOM     33  C   UNL     1       1.153   3.438   0.010  0.00  0.00    +0.041 A 
ATOM     34  C   UNL     1       1.170   2.056   0.002  0.00  0.00    +0.042 A 
ATOM     35  C   UNL     1      -0.016   1.347   0.009  0.00  0.00    +0.132 A 
ATOM     36  F   UNL     1       0.002  -0.004   0.002  0.00  0.00    -0.205 F 
ATOM     37  F   UNL     1      -0.059   5.474   0.033  0.00  0.00    -0.205 F 
ENDBRANCH  29  30
ENDBRANCH  26  28
ENDBRANCH   2  24
TORSDOF 7
