REMARK  Name = ZINC40137953
REMARK  10 active torsions:
REMARK  status: ('A' for Active; 'I' for Inactive)
REMARK    1  A    between atoms: C_1  and  C_2
REMARK    2  A    between atoms: C_7  and  O_8
REMARK    3  A    between atoms: O_8  and  C_9
REMARK    4  A    between atoms: C_9  and  C_10
REMARK    5  A    between atoms: C_10  and  N_11
REMARK    6  A    between atoms: N_19  and  N_20
REMARK    7  A    between atoms: C_21  and  C_23
REMARK    8  A    between atoms: C_23  and  C_24
REMARK    9  A    between atoms: C_24  and  N_25
REMARK   10  A    between atoms: C_26  and  C_28
REMARK                            x       y       z     vdW  Elec       q    Type
REMARK                         _______ _______ _______ _____ _____    ______ ____
ROOT
ATOM      1  N   UNL     1      -1.214   0.848   4.843  0.00  0.00    -0.262 N 
ATOM      2  C   UNL     1      -1.422   2.079   4.231  0.00  0.00    +0.046 A 
ATOM      3  C   UNL     1      -0.582   2.887   3.471  0.00  0.00    +0.025 A 
ATOM      4  C   UNL     1      -1.042   4.087   2.969  0.00  0.00    +0.022 A 
ATOM      5  C   UNL     1      -2.341   4.503   3.214  0.00  0.00    +0.042 A 
ATOM      6  C   UNL     1      -3.189   3.714   3.967  0.00  0.00    +0.032 A 
ATOM      7  C   UNL     1      -2.734   2.503   4.476  0.00  0.00    +0.030 A 
ATOM      8  C   UNL     1      -3.368   1.447   5.299  0.00  0.00    +0.153 C 
ATOM      9  N   UNL     1      -4.594   1.424   5.762  0.00  0.00    -0.175 NA
ATOM     10  C   UNL     1      -2.319   0.423   5.479  0.00  0.00    +0.271 C 
ATOM     11  O   UNL     1      -2.434  -0.619   6.097  0.00  0.00    -0.268 OA
ATOM     12 CL   UNL     1      -2.902   6.017   2.576  0.00  0.00    -0.084 Cl
ENDROOT
BRANCH   9  13
ATOM     13  N   UNL     1      -5.032   0.338   6.530  0.00  0.00    -0.206 N 
ATOM     14  C   UNL     1      -6.293   0.314   7.007  0.00  0.00    +0.234 C 
ATOM     15  O   UNL     1      -7.048   1.233   6.771  0.00  0.00    -0.274 OA
ATOM     16  H   UNL     1      -4.429  -0.398   6.719  0.00  0.00    +0.177 HD
BRANCH  14  17
ATOM     17  C   UNL     1      -6.764  -0.855   7.833  0.00  0.00    +0.116 C 
BRANCH  17  18
ATOM     18  C   UNL     1      -8.221  -0.634   8.245  0.00  0.00    +0.114 C 
BRANCH  18  19
ATOM     19  N   UNL     1      -8.680  -1.770   9.048  0.00  0.00    -0.311 N 
ATOM     20  C   UNL     1      -9.940  -1.794   9.524  0.00  0.00    +0.244 C 
ATOM     21  O   UNL     1     -10.697  -0.872   9.287  0.00  0.00    -0.270 OA
ATOM     22  H   UNL     1      -8.076  -2.505   9.237  0.00  0.00    +0.149 HD
BRANCH  20  23
ATOM     23  C   UNL     1     -10.403  -2.940  10.335  0.00  0.00    +0.037 A 
ATOM     24  C   UNL     1      -9.535  -3.997  10.613  0.00  0.00    +0.013 A 
ATOM     25  C   UNL     1      -9.973  -5.064  11.371  0.00  0.00    +0.001 A 
ATOM     26  C   UNL     1     -11.269  -5.088  11.853  0.00  0.00    +0.000 A 
ATOM     27  C   UNL     1     -12.135  -4.043  11.581  0.00  0.00    +0.001 A 
ATOM     28  C   UNL     1     -11.708  -2.968  10.830  0.00  0.00    +0.013 A 
ENDBRANCH  20  23
ENDBRANCH  18  19
ENDBRANCH  17  18
ENDBRANCH  14  17
ENDBRANCH   9  13
BRANCH   1  29
ATOM     29  C   UNL     1       0.047   0.104   4.793  0.00  0.00    +0.155 C 
BRANCH  29  30
ATOM     30  C   UNL     1       0.048  -0.820   3.574  0.00  0.00    +0.248 C 
BRANCH  30  31
ATOM     31  O   UNL     1       0.025  -0.033   2.381  0.00  0.00    -0.490 OA
BRANCH  31  38
ATOM     32  C   UNL     1      -0.018   1.503   0.010  0.00  0.00    +0.047 C 
ATOM     33  C   UNL     1       0.002  -0.004   0.002  0.00  0.00    -0.009 A 
ATOM     34  C   UNL     1       0.006  -0.689  -1.198  0.00  0.00    +0.007 A 
ATOM     35  C   UNL     1       0.024  -2.071  -1.206  0.00  0.00    +0.000 A 
ATOM     36  C   UNL     1       0.039  -2.772  -0.014  0.00  0.00    +0.004 A 
ATOM     37  C   UNL     1       0.036  -2.092   1.188  0.00  0.00    +0.046 A 
ATOM     38  C   UNL     1       0.023  -0.705   1.199  0.00  0.00    +0.123 A 
ENDBRANCH  31  38
ENDBRANCH  30  31
ENDBRANCH  29  30
ENDBRANCH   1  29
TORSDOF 9
