REMARK  Name = ZINC59301775
REMARK  4 active torsions:
REMARK  status: ('A' for Active; 'I' for Inactive)
REMARK    1  A    between atoms: C_2  and  C_30
REMARK    2  A    between atoms: C_8  and  N_9
REMARK    3  A    between atoms: C_10  and  C_12
REMARK    4  A    between atoms: C_18  and  C_20
REMARK                            x       y       z     vdW  Elec       q    Type
REMARK                         _______ _______ _______ _____ _____    ______ ____
ROOT
ATOM      1  C   UNL     1      -2.646  -2.902  -0.117  0.00  0.00    +0.162 C 
ATOM      2  C   UNL     1      -3.598  -2.544  -1.276  0.00  0.00    +0.033 C 
ATOM      3  C   UNL     1      -3.317  -3.662  -2.315  0.00  0.00    +0.021 C 
ATOM      4  C   UNL     1      -3.056  -4.881  -1.397  0.00  0.00    +0.108 C 
ATOM      5  N   UNL     1      -2.328  -4.333  -0.234  0.00  0.00    -0.289 N 
ATOM      6  C   UNL     1      -1.509  -5.025   0.582  0.00  0.00    +0.222 C 
ATOM      7  O   UNL     1      -1.028  -4.488   1.557  0.00  0.00    -0.275 OA
ENDROOT
BRANCH   6   8
ATOM      8  C   UNL     1      -1.190  -6.467   0.283  0.00  0.00    +0.048 C 
ATOM      9  C   UNL     1      -0.432  -6.558  -1.043  0.00  0.00    +0.019 C 
ATOM     10  C   UNL     1      -0.108  -8.022  -1.347  0.00  0.00    -0.009 C 
ATOM     11  C   UNL     1       0.757  -8.597  -0.223  0.00  0.00    +0.007 C 
ATOM     12  C   UNL     1      -0.001  -8.506   1.102  0.00  0.00    -0.009 C 
ATOM     13  C   UNL     1      -0.325  -7.042   1.406  0.00  0.00    +0.019 C 
ATOM     14  C   UNL     1      -1.302  -9.306   1.001  0.00  0.00    +0.007 C 
ATOM     15  C   UNL     1      -2.168  -8.731  -0.122  0.00  0.00    -0.009 C 
ATOM     16  C   UNL     1      -1.409  -8.821  -1.448  0.00  0.00    +0.007 C 
ATOM     17  C   UNL     1      -2.491  -7.267   0.181  0.00  0.00    +0.019 C 
ENDBRANCH   6   8
BRANCH   1  19
ATOM     18  N   UNL     1      -1.440  -0.742  -0.145  0.00  0.00    -0.280 N 
ATOM     19  C   UNL     1      -1.382  -2.087  -0.221  0.00  0.00    +0.238 C 
ATOM     20  O   UNL     1      -0.314  -2.641  -0.372  0.00  0.00    -0.273 OA
ATOM     21  H   UNL     1      -2.282  -0.303   0.050  0.00  0.00    +0.155 HD
BRANCH  18  29
ATOM     22  C   UNL     1       0.168   0.869   0.625  0.00  0.00    +0.042 A 
ATOM     23  C   UNL     1       1.329   1.621   0.395  0.00  0.00    +0.073 A 
ATOM     24  C   UNL     1       1.990   1.504  -0.779  0.00  0.00    +0.098 A 
ATOM     25  N   UNL     1       1.544   0.662  -1.749  0.00  0.00    -0.327 N 
ATOM     26  H   UNL     1       2.032   0.592  -2.584  0.00  0.00    +0.168 HD
ATOM     27  C   UNL     1       0.433  -0.076  -1.563  0.00  0.00    +0.270 A 
ATOM     28  O   UNL     1       0.045  -0.828  -2.442  0.00  0.00    -0.266 OA
ATOM     29  C   UNL     1      -0.282   0.021  -0.349  0.00  0.00    +0.099 A 
BRANCH  23  30
ATOM     30  C   UNL     1       1.840   2.561   1.456  0.00  0.00    +0.419 C 
ATOM     31  F   UNL     1       3.001   3.194   0.999  0.00  0.00    -0.166 F 
ATOM     32  F   UNL     1       0.864   3.523   1.737  0.00  0.00    -0.166 F 
ATOM     33  F   UNL     1       2.130   1.839   2.619  0.00  0.00    -0.166 F 
ENDBRANCH  23  30
ENDBRANCH  18  29
ENDBRANCH   1  19
TORSDOF 4
