REMARK  Name = ZINC67164458
REMARK  12 active torsions:
REMARK  status: ('A' for Active; 'I' for Inactive)
REMARK    1  A    between atoms: C_1  and  C_2
REMARK    2  A    between atoms: N_8  and  C_9
REMARK    3  A    between atoms: C_9  and  C_10
REMARK    4  A    between atoms: C_13  and  C_16
REMARK    5  A    between atoms: C_16  and  N_17
REMARK    6  A    between atoms: C_18  and  C_20
REMARK    7  A    between atoms: C_20  and  N_21
REMARK    8  A    between atoms: C_22  and  O_24
REMARK    9  A    between atoms: O_24  and  C_25
REMARK   10  A    between atoms: C_25  and  C_26
REMARK   11  A    between atoms: C_25  and  C_27
REMARK   12  A    between atoms: C_25  and  C_28
REMARK                            x       y       z     vdW  Elec       q    Type
REMARK                         _______ _______ _______ _____ _____    ______ ____
ROOT
ATOM      1  C   UNL     1       0.865  -0.347   3.613  0.00  0.00    -0.064 A 
ATOM      2  C   UNL     1       0.585  -1.532   4.268  0.00  0.00    +0.002 A 
ATOM      3  C   UNL     1       1.316  -1.895   5.383  0.00  0.00    +0.005 A 
ATOM      4  C   UNL     1       2.329  -1.075   5.843  0.00  0.00    -0.030 A 
ATOM      5  C   UNL     1       2.610   0.110   5.187  0.00  0.00    +0.005 A 
ATOM      6  C   UNL     1       1.881   0.471   4.070  0.00  0.00    +0.002 A 
ENDROOT
BRANCH   1   7
ATOM      7  C   UNL     1       0.067   0.050   2.397  0.00  0.00    -0.043 C 
BRANCH   7  14
ATOM      8  C   UNL     1      -0.019   1.526   0.010  0.00  0.00    -0.013 C 
ATOM      9  C   UNL     1       0.002  -0.004   0.002  0.00  0.00    -0.071 C 
ATOM     10  C   UNL     1       0.717  -0.497  -1.258  0.00  0.00    -0.016 C 
ATOM     11  C   UNL     1       0.735  -2.028  -1.262  0.00  0.00    -0.003 C 
ATOM     12  C   UNL     1       1.410  -2.524   0.020  0.00  0.00    -0.019 C 
ATOM     13  C   UNL     1       0.669  -1.956   1.232  0.00  0.00    -0.078 C 
ATOM     14  N   UNL     1       0.711  -0.490   1.192  0.00  0.00    +0.384 N 
ATOM     15  H   UNL     1       1.671  -0.182   1.159  0.00  0.00    -0.081 HD
ENDBRANCH   7  14
ENDBRANCH   1   7
BRANCH   4  16
ATOM     16  C   UNL     1       3.126  -1.471   7.059  0.00  0.00    +0.139 C 
BRANCH  16  17
ATOM     17  N   UNL     1       4.288  -2.261   6.645  0.00  0.00    -0.310 N 
ATOM     18  C   UNL     1       5.150  -2.728   7.570  0.00  0.00    +0.231 C 
ATOM     19  O   UNL     1       4.964  -2.493   8.745  0.00  0.00    -0.274 OA
ATOM     20  H   UNL     1       4.437  -2.449   5.705  0.00  0.00    +0.149 HD
BRANCH  18  21
ATOM     21  C   UNL     1       6.345  -3.541   7.144  0.00  0.00    +0.203 C 
BRANCH  21  22
ATOM     22  N   UNL     1       7.120  -3.926   8.326  0.00  0.00    -0.273 N 
ATOM     23  C   UNL     1       8.240  -4.662   8.187  0.00  0.00    +0.401 C 
ATOM     24  O   UNL     1       8.607  -5.007   7.081  0.00  0.00    -0.226 OA
ATOM     25  H   UNL     1       6.827  -3.650   9.209  0.00  0.00    +0.153 HD
BRANCH  23  26
ATOM     26  O   UNL     1       8.953  -5.016   9.274  0.00  0.00    -0.445 OA
BRANCH  26  27
ATOM     27  C   UNL     1      10.129  -5.797   9.052  0.00  0.00    +0.107 C 
ATOM     28  C   UNL     1      11.098  -5.018   8.161  0.00  0.00    +0.055 C 
ATOM     29  C   UNL     1      10.800  -6.100  10.393  0.00  0.00    +0.055 C 
ATOM     30  C   UNL     1       9.747  -7.110   8.365  0.00  0.00    +0.055 C 
ENDBRANCH  26  27
ENDBRANCH  23  26
ENDBRANCH  21  22
ENDBRANCH  18  21
ENDBRANCH  16  17
ENDBRANCH   4  16
TORSDOF 8
