REMARK  Name = ZINC44854219
REMARK  10 active torsions:
REMARK  status: ('A' for Active; 'I' for Inactive)
REMARK    1  A    between atoms: C_1  and  C_2
REMARK    2  A    between atoms: C_2  and  C_4
REMARK    3  A    between atoms: C_2  and  N_14
REMARK    4  A    between atoms: C_4  and  C_5
REMARK    5  A    between atoms: C_5  and  C_6
REMARK    6  A    between atoms: C_5  and  C_7
REMARK    7  A    between atoms: C_5  and  C_8
REMARK    8  A    between atoms: C_15  and  C_17
REMARK    9  A    between atoms: N_22  and  C_24
REMARK   10  A    between atoms: C_24  and  C_25
REMARK                            x       y       z     vdW  Elec       q    Type
REMARK                         _______ _______ _______ _____ _____    ______ ____
ROOT
ATOM      1  N   UNL     1      -1.202  -0.298  -0.150  0.00  0.00    -0.313 N 
ATOM      2  C   UNL     1      -1.744  -0.358  -1.382  0.00  0.00    +0.215 C 
ATOM      3  O   UNL     1      -1.066  -0.109  -2.356  0.00  0.00    -0.276 OA
ATOM      4  H   UNL     1      -1.745  -0.497   0.629  0.00  0.00    +0.149 HD
ENDROOT
BRANCH   2   5
ATOM      5  C   UNL     1      -3.194  -0.735  -1.550  0.00  0.00    +0.058 C 
ATOM      6  C   UNL     1      -4.074   0.277  -0.809  0.00  0.00    +0.009 C 
ATOM      7  C   UNL     1      -5.546  -0.070  -1.051  0.00  0.00    -0.018 C 
ATOM      8  C   UNL     1      -5.821  -0.085  -2.556  0.00  0.00    -0.078 C 
ATOM      9  N   UNL     1      -4.968  -1.089  -3.203  0.00  0.00    +0.383 N 
ATOM     10  C   UNL     1      -3.555  -0.726  -3.037  0.00  0.00    -0.066 C 
ATOM     11  H   UNL     1      -5.133  -1.991  -2.781  0.00  0.00    -0.081 HD
BRANCH   9  12
ATOM     12  C   UNL     1      -5.290  -1.155  -4.634  0.00  0.00    -0.040 C 
BRANCH  12  13
ATOM     13  C   UNL     1      -6.700  -1.656  -4.810  0.00  0.00    -0.027 A 
ATOM     14  C   UNL     1      -6.944  -3.013  -4.924  0.00  0.00    +0.044 A 
ATOM     15  C   UNL     1      -8.239  -3.472  -5.085  0.00  0.00    +0.020 A 
ATOM     16  C   UNL     1      -9.290  -2.575  -5.132  0.00  0.00    +0.003 A 
ATOM     17  C   UNL     1      -9.047  -1.219  -5.018  0.00  0.00    +0.020 A 
ATOM     18  C   UNL     1      -7.753  -0.759  -4.850  0.00  0.00    +0.044 A 
ATOM     19 CL   UNL     1      -7.450   0.944  -4.699  0.00  0.00    -0.083 Cl
ATOM     20 CL   UNL     1      -5.624  -4.139  -4.866  0.00  0.00    -0.083 Cl
ENDBRANCH  12  13
ENDBRANCH   9  12
ENDBRANCH   2   5
BRANCH   1  22
ATOM     21  C   UNL     1       0.338   1.592   0.042  0.00  0.00    +0.028 C 
ATOM     22  C   UNL     1       0.207   0.068   0.013  0.00  0.00    +0.071 C 
BRANCH  22  23
ATOM     23  C   UNL     1       0.736  -0.514   1.326  0.00  0.00    +0.033 C 
BRANCH  23  24
ATOM     24  C   UNL     1       0.763  -2.041   1.233  0.00  0.00    -0.008 C 
ATOM     25  C   UNL     1      -0.668  -2.570   1.118  0.00  0.00    +0.016 C 
ATOM     26  C   UNL     1       1.563  -2.463  -0.001  0.00  0.00    +0.016 C 
BRANCH  24  27
ATOM     27  C   UNL     1       1.410  -2.608   2.470  0.00  0.00    -0.042 A 
ATOM     28  C   UNL     1       1.862  -1.761   3.464  0.00  0.00    +0.004 A 
ATOM     29  C   UNL     1       2.456  -2.281   4.599  0.00  0.00    +0.000 A 
ATOM     30  C   UNL     1       2.597  -3.649   4.740  0.00  0.00    +0.000 A 
ATOM     31  C   UNL     1       2.145  -4.496   3.746  0.00  0.00    +0.000 A 
ATOM     32  C   UNL     1       1.547  -3.976   2.613  0.00  0.00    +0.004 A 
ENDBRANCH  24  27
ENDBRANCH  23  24
ENDBRANCH  22  23
ENDBRANCH   1  22
TORSDOF 7
