REMARK  Name = ZINC65964832
REMARK  8 active torsions:
REMARK  status: ('A' for Active; 'I' for Inactive)
REMARK    1  A    between atoms: C_1  and  C_2
REMARK    2  A    between atoms: C_6  and  N_9
REMARK    3  A    between atoms: C_7  and  C_8
REMARK    4  A    between atoms: C_10  and  C_12
REMARK    5  A    between atoms: C_12  and  C_13
REMARK    6  A    between atoms: C_12  and  N_14
REMARK    7  A    between atoms: C_17  and  C_20
REMARK    8  A    between atoms: N_22  and  C_23
REMARK                            x       y       z     vdW  Elec       q    Type
REMARK                         _______ _______ _______ _____ _____    ______ ____
ROOT
ATOM      1  N   UNL     1       1.388  -5.557   4.526  0.00  0.00    +0.387 N 
ATOM      2  C   UNL     1       2.009  -5.983   5.787  0.00  0.00    -0.077 C 
ATOM      3  C   UNL     1       1.384  -7.301   6.248  0.00  0.00    -0.006 C 
ATOM      4  C   UNL     1       1.615  -8.371   5.177  0.00  0.00    +0.071 C 
ATOM      5  C   UNL     1       1.029  -7.885   3.849  0.00  0.00    -0.006 C 
ATOM      6  C   UNL     1       1.667  -6.545   3.476  0.00  0.00    -0.077 C 
ATOM      7  H   UNL     1       0.391  -5.477   4.655  0.00  0.00    -0.081 HD
ENDROOT
BRANCH   4   8
ATOM      8  C   UNL     1       0.935  -9.651   5.589  0.00  0.00    +0.216 C 
ATOM      9  O   UNL     1       0.325  -9.704   6.636  0.00  0.00    -0.276 OA
ATOM     10  N   UNL     1       1.004 -10.737   4.794  0.00  0.00    -0.312 N 
ATOM     11  H   UNL     1       1.492 -10.695   3.957  0.00  0.00    +0.149 HD
BRANCH  10  12
ATOM     12  C   UNL     1       0.343 -11.982   5.195  0.00  0.00    +0.073 C 
ATOM     13  C   UNL     1       1.270 -12.778   6.116  0.00  0.00    +0.022 C 
ATOM     14  C   UNL     1       0.579 -14.078   6.534  0.00  0.00    +0.002 C 
ATOM     15  C   UNL     1       0.260 -14.909   5.290  0.00  0.00    +0.000 C 
ATOM     16  C   UNL     1      -0.667 -14.113   4.369  0.00  0.00    +0.002 C 
ATOM     17  C   UNL     1       0.024 -12.813   3.950  0.00  0.00    +0.022 C 
ENDBRANCH  10  12
ENDBRANCH   4   8
BRANCH   1  18
ATOM     18  C   UNL     1       1.936  -4.254   4.128  0.00  0.00    +0.016 C 
ATOM     19  C   UNL     1       1.695  -3.237   5.246  0.00  0.00    -0.004 C 
BRANCH  18  21
ATOM     20  N   UNL     1       1.897  -2.957   2.022  0.00  0.00    -0.314 N 
ATOM     21  C   UNL     1       1.254  -3.786   2.868  0.00  0.00    +0.199 C 
ATOM     22  O   UNL     1       0.127  -4.156   2.615  0.00  0.00    -0.278 OA
ATOM     23  H   UNL     1       2.798  -2.662   2.224  0.00  0.00    +0.149 HD
BRANCH  20  29
ATOM     24  C   UNL     1       1.754   0.638  -1.369  0.00  0.00    +0.008 C 
ATOM     25  C   UNL     1       1.148  -0.695  -0.925  0.00  0.00    -0.009 C 
ATOM     26  C   UNL     1       1.346  -1.737  -2.029  0.00  0.00    +0.003 C 
ATOM     27  C   UNL     1       0.740  -3.070  -1.585  0.00  0.00    +0.002 C 
ATOM     28  C   UNL     1       1.432  -3.545  -0.306  0.00  0.00    +0.022 C 
ATOM     29  C   UNL     1       1.234  -2.503   0.797  0.00  0.00    +0.076 C 
ATOM     30  C   UNL     1       1.840  -1.170   0.354  0.00  0.00    +0.009 C 
ATOM     31  C   UNL     1       1.643  -0.128   1.457  0.00  0.00    +0.009 C 
ENDBRANCH  20  29
ENDBRANCH  18  21
ENDBRANCH   1  18
TORSDOF 5
