REMARK  Name = ZINC12242174
REMARK  10 active torsions:
REMARK  status: ('A' for Active; 'I' for Inactive)
REMARK    1  A    between atoms: C_1  and  C_2
REMARK    2  A    between atoms: C_7  and  C_20
REMARK    3  A    between atoms: N_10  and  C_13
REMARK    4  A    between atoms: C_13  and  C_14
REMARK    5  A    between atoms: C_20  and  N_64
REMARK    6  A    between atoms: C_21  and  N_64
REMARK    7  A    between atoms: C_22  and  C_24
REMARK    8  A    between atoms: C_22  and  C_25
REMARK    9  A    between atoms: C_22  and  N_64
REMARK   10  A    between atoms: C_27  and  C_31
REMARK                            x       y       z     vdW  Elec       q    Type
REMARK                         _______ _______ _______ _____ _____    ______ ____
ROOT
ATOM      1  C   UNL     1      -2.558   3.851   0.046  0.00  0.00    +0.044 C 
ATOM      2  C   UNL     1      -1.233   3.134   0.030  0.00  0.00    -0.048 A 
ATOM      3  C   UNL     1      -1.203   1.746   0.017  0.00  0.00    +0.004 A 
ATOM      4  C   UNL     1      -0.013   1.076   0.008  0.00  0.00    +0.010 A 
ATOM      5  C   UNL     1       1.188   1.795   0.000  0.00  0.00    -0.001 A 
ATOM      6  C   UNL     1       2.481   1.109  -0.015  0.00  0.00    +0.017 A 
ATOM      7  C   UNL     1       3.611   1.858  -0.022  0.00  0.00    +0.001 A 
ATOM      8  C   UNL     1       3.530   3.267  -0.013  0.00  0.00    +0.253 A 
ATOM      9  O   UNL     1       4.558   3.922  -0.019  0.00  0.00    -0.267 OA
ATOM     10  N   UNL     1       2.347   3.906   0.001  0.00  0.00    -0.302 N 
ATOM     11  C   UNL     1       1.161   3.202   0.008  0.00  0.00    +0.053 A 
ATOM     12  C   UNL     1      -0.063   3.862   0.023  0.00  0.00    +0.030 A 
ENDROOT
BRANCH  10  13
ATOM     13  C   UNL     1       2.317   5.370   0.008  0.00  0.00    +0.180 C 
BRANCH  13  14
ATOM     14  C   UNL     1       2.294   5.879  -1.410  0.00  0.00    +0.061 A 
ATOM     15  C   UNL     1       1.085   6.184  -2.007  0.00  0.00    +0.025 A 
ATOM     16  C   UNL     1       1.074   6.652  -3.312  0.00  0.00    +0.003 A 
ATOM     17  C   UNL     1       2.286   6.797  -3.971  0.00  0.00    +0.020 A 
ATOM     18  C   UNL     1       3.455   6.472  -3.310  0.00  0.00    +0.111 A 
ATOM     19  N   UNL     1       3.427   6.034  -2.066  0.00  0.00    -0.258 NA
ENDBRANCH  13  14
ENDBRANCH  10  13
BRANCH   7  20
ATOM     20  C   UNL     1       4.959   1.184  -0.037  0.00  0.00    -0.037 C 
BRANCH  20  22
ATOM     21  C   UNL     1       4.587   0.177  -2.207  0.00  0.00    -0.095 C 
ATOM     22  N   UNL     1       5.437   1.106  -1.433  0.00  0.00    +0.386 N 
ATOM     23  H   UNL     1       5.382   2.039  -1.857  0.00  0.00    -0.081 HD
BRANCH  22  24
ATOM     24  C   UNL     1       6.842   0.647  -1.462  0.00  0.00    -0.020 C 
ATOM     25  C   UNL     1       6.937  -0.816  -1.024  0.00  0.00    -0.007 C 
BRANCH  24  26
ATOM     26  C   UNL     1       7.370   0.787  -2.866  0.00  0.00    +0.050 A 
ATOM     27  C   UNL     1       8.710   0.956  -3.219  0.00  0.00    +0.051 A 
ATOM     28  C   UNL     1       8.777   1.041  -4.580  0.00  0.00    +0.066 A 
ATOM     29  N   UNL     1       7.505   0.928  -5.057  0.00  0.00    -0.277 N 
ATOM     30  H   UNL     1       7.231   0.956  -6.019  0.00  0.00    +0.189 HD
ATOM     31  N   UNL     1       6.651   0.765  -3.959  0.00  0.00    -0.180 NA
BRANCH  28  32
ATOM     32  C   UNL     1      10.003   1.223  -5.388  0.00  0.00    -0.000 A 
ATOM     33  C   UNL     1      11.245   1.331  -4.762  0.00  0.00    +0.010 A 
ATOM     34  C   UNL     1      12.385   1.494  -5.521  0.00  0.00    +0.001 A 
ATOM     35  C   UNL     1      12.298   1.564  -6.900  0.00  0.00    +0.000 A 
ATOM     36  C   UNL     1      11.068   1.464  -7.527  0.00  0.00    +0.001 A 
ATOM     37  C   UNL     1       9.921   1.294  -6.779  0.00  0.00    +0.010 A 
ENDBRANCH  28  32
ENDBRANCH  24  26
ENDBRANCH  22  24
ENDBRANCH  20  22
ENDBRANCH   7  20
TORSDOF 7
