REMARK  Name = ZINC00888111
REMARK  9 active torsions:
REMARK  status: ('A' for Active; 'I' for Inactive)
REMARK    1  A    between atoms: C_3  and  C_6
REMARK    2  A    between atoms: C_6  and  C_8
REMARK    3  A    between atoms: C_6  and  N_19
REMARK    4  A    between atoms: N_10  and  C_11
REMARK    5  A    between atoms: C_11  and  C_12
REMARK    6  A    between atoms: N_19  and  C_20
REMARK    7  A    between atoms: C_27  and  C_29
REMARK    8  A    between atoms: C_29  and  N_30
REMARK    9  A    between atoms: C_32  and  C_35
REMARK                            x       y       z     vdW  Elec       q    Type
REMARK                         _______ _______ _______ _____ _____    ______ ____
ROOT
ATOM      1  N   UNL     1       5.228   1.364  -0.510  0.00  0.00    -0.253 N 
ATOM      2  C   UNL     1       5.489   1.627  -1.806  0.00  0.00    +0.244 C 
ATOM      3  O   UNL     1       4.799   2.416  -2.415  0.00  0.00    -0.273 OA
ENDROOT
BRANCH   1   4
ATOM      4  C   UNL     1       5.606   0.135   0.045  0.00  0.00    +0.038 A 
ATOM      5  C   UNL     1       6.160  -0.851  -0.761  0.00  0.00    +0.026 A 
ATOM      6  C   UNL     1       6.533  -2.062  -0.212  0.00  0.00    +0.040 A 
ATOM      7  C   UNL     1       6.354  -2.294   1.141  0.00  0.00    +0.124 A 
ATOM      8  C   UNL     1       5.802  -1.312   1.947  0.00  0.00    +0.040 A 
ATOM      9  C   UNL     1       5.433  -0.098   1.403  0.00  0.00    +0.026 A 
ATOM     10  F   UNL     1       6.719  -3.479   1.676  0.00  0.00    -0.205 F 
ENDBRANCH   1   4
BRANCH   1  11
ATOM     11  C   UNL     1       4.548   2.363   0.318  0.00  0.00    +0.204 C 
BRANCH  11  14
ATOM     12  C   UNL     1       0.870   1.680   1.038  0.00  0.00    +0.008 A 
ATOM     13  C   UNL     1       1.973   2.352   0.546  0.00  0.00    +0.013 A 
ATOM     14  C   UNL     1       3.206   1.828   0.750  0.00  0.00    +0.019 A 
ATOM     15  S   UNL     1       2.830   0.341   1.662  0.00  0.00    -0.099 S 
ATOM     16  C   UNL     1       1.054   0.518   1.710  0.00  0.00    +0.045 A 
ENDBRANCH  11  14
BRANCH  11  17
ATOM     17  C   UNL     1       5.385   2.661   1.535  0.00  0.00    +0.239 C 
ATOM     18  O   UNL     1       6.446   2.095   1.695  0.00  0.00    -0.273 OA
ATOM     19  N   UNL     1       4.955   3.557   2.446  0.00  0.00    -0.309 N 
ATOM     20  H   UNL     1       4.107   4.010   2.317  0.00  0.00    +0.149 HD
BRANCH  19  21
ATOM     21  C   UNL     1       5.769   3.847   3.628  0.00  0.00    +0.139 C 
BRANCH  21  22
ATOM     22  C   UNL     1       5.070   4.875   4.480  0.00  0.00    -0.030 A 
ATOM     23  C   UNL     1       5.302   6.221   4.269  0.00  0.00    +0.008 A 
ATOM     24  C   UNL     1       4.660   7.164   5.049  0.00  0.00    +0.038 A 
ATOM     25  C   UNL     1       3.785   6.761   6.042  0.00  0.00    +0.123 A 
ATOM     26  C   UNL     1       3.553   5.412   6.253  0.00  0.00    +0.038 A 
ATOM     27  C   UNL     1       4.192   4.471   5.468  0.00  0.00    +0.008 A 
ATOM     28  F   UNL     1       3.158   7.682   6.806  0.00  0.00    -0.205 F 
ENDBRANCH  21  22
ENDBRANCH  19  21
ENDBRANCH  11  17
ENDBRANCH   1  11
BRANCH   2  29
ATOM     29  C   UNL     1       6.640   0.942  -2.496  0.00  0.00    +0.264 C 
BRANCH  29  30
ATOM     30  N   UNL     1       7.407   1.928  -3.262  0.00  0.00    -0.154 N 
ATOM     31  N   UNL     1       7.186   2.257  -4.488  0.00  0.00    -0.130 NA
ATOM     32  C   UNL     1       8.075   3.168  -4.829  0.00  0.00    +0.205 A 
ATOM     33  N   UNL     1       8.844   3.376  -3.751  0.00  0.00    -0.108 NA
ATOM     34  N   UNL     1       8.405   2.607  -2.813  0.00  0.00    -0.045 NA
BRANCH  32  35
ATOM     35  C   UNL     1       8.200   3.835  -6.149  0.00  0.00    +0.023 A 
ATOM     36  C   UNL     1       7.317   3.517  -7.179  0.00  0.00    +0.014 A 
ATOM     37  C   UNL     1       7.437   4.139  -8.405  0.00  0.00    +0.039 A 
ATOM     38  C   UNL     1       8.433   5.079  -8.612  0.00  0.00    +0.123 A 
ATOM     39  C   UNL     1       9.313   5.398  -7.591  0.00  0.00    +0.039 A 
ATOM     40  C   UNL     1       9.197   4.785  -6.360  0.00  0.00    +0.014 A 
ATOM     41  F   UNL     1       8.547   5.685  -9.814  0.00  0.00    -0.205 F 
ENDBRANCH  32  35
ENDBRANCH  29  30
ENDBRANCH   2  29
TORSDOF 9
