REMARK  Name = ZINC35706113
REMARK  11 active torsions:
REMARK  status: ('A' for Active; 'I' for Inactive)
REMARK    1  A    between atoms: C_1  and  N_2
REMARK    2  A    between atoms: N_2  and  C_3
REMARK    3  A    between atoms: N_2  and  C_4
REMARK    4  A    between atoms: C_4  and  C_5
REMARK    5  A    between atoms: C_5  and  N_6
REMARK    6  A    between atoms: N_6  and  C_7
REMARK    7  A    between atoms: C_7  and  C_8
REMARK    8  A    between atoms: C_19  and  C_22
REMARK    9  A    between atoms: C_25  and  O_28
REMARK   10  A    between atoms: O_28  and  C_29
REMARK   11  A    between atoms: C_30  and  C_32
REMARK                            x       y       z     vdW  Elec       q    Type
REMARK                         _______ _______ _______ _____ _____    ______ ____
ROOT
ATOM      1  C   UNL     1      -4.072  -3.377  -1.576  0.00  0.00    +0.233 C 
ATOM      2  O   UNL     1      -3.141  -4.155  -1.572  0.00  0.00    -0.274 OA
ATOM      3  N   UNL     1      -5.013  -3.457  -2.538  0.00  0.00    -0.297 N 
ATOM      4  C   UNL     1      -6.143  -2.518  -2.558  0.00  0.00    +0.126 C 
ATOM      5  C   UNL     1      -6.181  -1.827  -3.927  0.00  0.00    +0.125 C 
ATOM      6  N   UNL     1      -6.096  -2.855  -4.974  0.00  0.00    -0.311 N 
ATOM      7  C   UNL     1      -4.966  -3.795  -4.953  0.00  0.00    +0.125 C 
ATOM      8  C   UNL     1      -4.924  -4.481  -3.588  0.00  0.00    +0.126 C 
ATOM      9  C   UNL     1      -7.066  -2.937  -5.966  0.00  0.00    +0.144 A 
ATOM     10  C   UNL     1      -8.010  -1.918  -6.106  0.00  0.00    +0.047 A 
ATOM     11  C   UNL     1      -8.957  -2.043  -7.107  0.00  0.00    +0.033 A 
ATOM     12  C   UNL     1      -8.909  -3.184  -7.917  0.00  0.00    +0.093 A 
ATOM     13  N   UNL     1      -7.974  -4.101  -7.708  0.00  0.00    -0.147 NA
ATOM     14  N   UNL     1      -7.093  -3.980  -6.783  0.00  0.00    -0.134 NA
ENDROOT
BRANCH  12  15
ATOM     15  C   UNL     1      -9.901  -3.366  -9.003  0.00  0.00    +0.002 A 
ATOM     16  C   UNL     1     -10.880  -2.399  -9.225  0.00  0.00    +0.013 A 
ATOM     17  C   UNL     1     -11.801  -2.572 -10.236  0.00  0.00    +0.046 A 
ATOM     18  C   UNL     1     -11.754  -3.707 -11.034  0.00  0.00    +0.120 A 
ATOM     19  C   UNL     1     -10.780  -4.673 -10.815  0.00  0.00    +0.046 A 
ATOM     20  C   UNL     1      -9.853  -4.503  -9.809  0.00  0.00    +0.013 A 
BRANCH  18  21
ATOM     21  O   UNL     1     -12.663  -3.875 -12.030  0.00  0.00    -0.495 OA
ATOM     22  C   UNL     1     -12.557  -5.066 -12.812  0.00  0.00    +0.277 C 
ENDBRANCH  18  21
ENDBRANCH  12  15
BRANCH   1  23
ATOM     23  C   UNL     1      -4.176  -2.322  -0.505  0.00  0.00    +0.203 C 
BRANCH  23  24
ATOM     24  N   UNL     1      -3.041  -2.444   0.413  0.00  0.00    -0.294 N 
ATOM     25  C   UNL     1      -3.136  -3.235   1.500  0.00  0.00    +0.219 C 
ATOM     26  O   UNL     1      -2.234  -3.263   2.310  0.00  0.00    -0.275 OA
BRANCH  25  27
ATOM     27  C   UNL     1      -4.363  -4.085   1.708  0.00  0.00    +0.075 C 
ATOM     28  C   UNL     1      -4.098  -5.593   1.567  0.00  0.00    +0.013 C 
ATOM     29  C   UNL     1      -3.774  -5.598   3.071  0.00  0.00    +0.001 C 
ATOM     30  C   UNL     1      -4.678  -4.359   3.188  0.00  0.00    +0.013 C 
ENDBRANCH  25  27
BRANCH  24  31
ATOM     31  C   UNL     1      -1.803  -1.706   0.149  0.00  0.00    +0.090 C 
BRANCH  31  32
ATOM     32  C   UNL     1      -1.851  -0.356   0.869  0.00  0.00    -0.060 C 
BRANCH  32  34
ATOM     33  C   UNL     1      -0.773   1.774   1.099  0.00  0.00    -0.097 C 
ATOM     34  N   UNL     1      -0.668   0.435   0.505  0.00  0.00    +0.377 N 
ATOM     35  C   UNL     1       0.540  -0.232   1.008  0.00  0.00    -0.097 C 
ATOM     36  H   UNL     1      -0.614   0.516  -0.500  0.00  0.00    -0.083 HD
ENDBRANCH  32  34
ENDBRANCH  31  32
ENDBRANCH  24  31
ENDBRANCH  23  24
ENDBRANCH   1  23
TORSDOF 8
