REMARK  Name = ZINC63694411
REMARK  7 active torsions:
REMARK  status: ('A' for Active; 'I' for Inactive)
REMARK    1  A    between atoms: C_1  and  C_2
REMARK    2  A    between atoms: C_4  and  S_17
REMARK    3  A    between atoms: C_5  and  C_16
REMARK    4  A    between atoms: N_7  and  C_8
REMARK    5  A    between atoms: S_17  and  N_20
REMARK    6  A    between atoms: N_20  and  C_21
REMARK    7  A    between atoms: C_21  and  C_22
REMARK                            x       y       z     vdW  Elec       q    Type
REMARK                         _______ _______ _______ _____ _____    ______ ____
ROOT
ATOM      1  S   UNL     1      -2.861  -0.351  -0.700  0.00  0.00    +0.058 S 
ATOM      2  O   UNL     1      -3.947  -0.913   0.023  0.00  0.00    -0.153 OA
ATOM      3  O   UNL     1      -2.845   1.008  -1.118  0.00  0.00    -0.153 OA
ENDROOT
BRANCH   1   6
ATOM      4  C   UNL     1      -0.104   1.525   0.073  0.00  0.00    +0.032 C 
ATOM      5  C   UNL     1      -0.048  -0.004   0.037  0.00  0.00    +0.124 C 
ATOM      6  C   UNL     1      -1.421  -0.590   0.287  0.00  0.00    +0.119 C 
ATOM      7  C   UNL     1      -1.332  -1.314   1.384  0.00  0.00    +0.040 C 
ATOM      8  N   UNL     1      -0.056  -1.288   1.912  0.00  0.00    -0.280 N 
ATOM      9  N   UNL     1       0.777  -0.516   1.150  0.00  0.00    -0.216 NA
ATOM     10  C   UNL     1      -2.483  -2.076   1.990  0.00  0.00    +0.063 C 
ATOM     11  H   UNL     1       0.214  -1.757   2.718  0.00  0.00    +0.166 HD
BRANCH   9  12
ATOM     12  C   UNL     1       1.342   0.587   1.938  0.00  0.00    +0.099 C 
ATOM     13  C   UNL     1       2.749   0.928   1.419  0.00  0.00    +0.045 C 
ATOM     14  C   UNL     1       3.473   1.853   2.428  0.00  0.00    +0.167 C 
ATOM     15  S   UNL     1       2.701   1.386   4.030  0.00  0.00    -0.029 S 
ATOM     16  O   UNL     1       3.666   0.716   4.830  0.00  0.00    -0.174 OA
ATOM     17  O   UNL     1       2.015   2.512   4.559  0.00  0.00    -0.174 OA
ATOM     18  C   UNL     1       1.466   0.158   3.428  0.00  0.00    +0.186 C 
ENDBRANCH   9  12
ENDBRANCH   1   6
BRANCH   1  19
ATOM     19  N   UNL     1      -2.676  -1.268  -2.066  0.00  0.00    -0.186 NA
ATOM     20  H   UNL     1      -2.601  -0.839  -2.933  0.00  0.00    +0.148 HD
BRANCH  19  21
ATOM     21  C   UNL     1      -2.626  -2.729  -1.966  0.00  0.00    +0.152 C 
BRANCH  21  22
ATOM     22  C   UNL     1      -2.828  -3.342  -3.353  0.00  0.00    +0.190 C 
ATOM     23  N   UNL     1      -1.815  -2.828  -4.284  0.00  0.00    -0.362 N 
ATOM     24  C   UNL     1      -2.442  -2.210  -5.242  0.00  0.00    +0.060 A 
ATOM     25  C   UNL     1      -1.981  -1.501  -6.444  0.00  0.00    +0.027 A 
ATOM     26  C   UNL     1      -2.885  -0.945  -7.276  0.00  0.00    +0.002 A 
ATOM     27  C   UNL     1      -4.270  -1.012  -7.044  0.00  0.00    +0.002 A 
ATOM     28  C   UNL     1      -4.799  -1.637  -5.973  0.00  0.00    +0.027 A 
ATOM     29  C   UNL     1      -3.909  -2.281  -4.997  0.00  0.00    +0.060 A 
ATOM     30  N   UNL     1      -4.131  -2.941  -3.897  0.00  0.00    -0.362 N 
ATOM     31  H   UNL     1      -0.854  -2.931  -4.200  0.00  0.00    +0.162 HD
ATOM     32  H   UNL     1      -4.999  -3.132  -3.508  0.00  0.00    +0.162 HD
ENDBRANCH  21  22
ENDBRANCH  19  21
ENDBRANCH   1  19
TORSDOF 5
