REMARK  Name = ZINC36694533
REMARK  9 active torsions:
REMARK  status: ('A' for Active; 'I' for Inactive)
REMARK    1  A    between atoms: C_1  and  C_2
REMARK    2  A    between atoms: C_5  and  C_8
REMARK    3  A    between atoms: C_8  and  N_9
REMARK    4  A    between atoms: C_11  and  C_15
REMARK    5  A    between atoms: C_12  and  C_14
REMARK    6  A    between atoms: N_17  and  C_18
REMARK    7  A    between atoms: C_18  and  C_19
REMARK    8  A    between atoms: C_19  and  C_21
REMARK    9  A    between atoms: C_19  and  N_28
REMARK                            x       y       z     vdW  Elec       q    Type
REMARK                         _______ _______ _______ _____ _____    ______ ____
ROOT
ATOM      1  C   UNL     1       4.593  -5.515  -2.411  0.00  0.00    +0.249 C 
ATOM      2  O   UNL     1       5.426  -4.794  -2.924  0.00  0.00    -0.270 OA
ATOM      3  N   UNL     1       4.764  -6.852  -2.414  0.00  0.00    -0.312 N 
ATOM      4  H   UNL     1       4.099  -7.427  -2.005  0.00  0.00    +0.149 HD
ENDROOT
BRANCH   1   7
ATOM      5  N   UNL     1       1.369  -4.134  -1.484  0.00  0.00    -0.248 N 
ATOM      6  C   UNL     1       2.188  -4.667  -2.406  0.00  0.00    +0.140 A 
ATOM      7  C   UNL     1       3.396  -4.927  -1.785  0.00  0.00    +0.096 A 
ATOM      8  C   UNL     1       3.265  -4.524  -0.436  0.00  0.00    +0.074 A 
ATOM      9  N   UNL     1       2.062  -4.050  -0.271  0.00  0.00    -0.174 NA
ATOM     10  C   UNL     1       4.333  -4.619   0.623  0.00  0.00    +0.068 C 
ATOM     11 CL   UNL     1       1.802  -4.972  -4.071  0.00  0.00    -0.062 Cl
BRANCH   5  12
ATOM     12  C   UNL     1      -0.014  -3.708  -1.711  0.00  0.00    +0.180 C 
BRANCH  12  17
ATOM     13  C   UNL     1      -0.079   1.831  -3.357  0.00  0.00    +0.044 C 
ATOM     14  C   UNL     1      -0.062   0.387  -2.928  0.00  0.00    -0.050 A 
ATOM     15  C   UNL     1       0.031  -0.615  -3.876  0.00  0.00    +0.004 A 
ATOM     16  C   UNL     1       0.046  -1.940  -3.482  0.00  0.00    +0.006 A 
ATOM     17  C   UNL     1      -0.030  -2.263  -2.140  0.00  0.00    -0.026 A 
ATOM     18  C   UNL     1      -0.121  -1.261  -1.192  0.00  0.00    +0.006 A 
ATOM     19  C   UNL     1      -0.133   0.064  -1.585  0.00  0.00    +0.004 A 
ENDBRANCH  12  17
ENDBRANCH   5  12
ENDBRANCH   1   7
BRANCH   3  20
ATOM     20  C   UNL     1       5.954  -7.436  -3.037  0.00  0.00    +0.094 C 
BRANCH  20  21
ATOM     21  C   UNL     1       5.843  -8.962  -3.018  0.00  0.00    -0.019 C 
BRANCH  21  22
ATOM     22  C   UNL     1       5.857  -9.449  -1.592  0.00  0.00    -0.041 A 
ATOM     23  C   UNL     1       4.672  -9.788  -0.966  0.00  0.00    +0.003 A 
ATOM     24  C   UNL     1       4.684 -10.235   0.342  0.00  0.00    +0.000 A 
ATOM     25  C   UNL     1       5.882 -10.344   1.025  0.00  0.00    +0.001 A 
ATOM     26  C   UNL     1       7.067 -10.006   0.400  0.00  0.00    +0.020 A 
ATOM     27  C   UNL     1       7.056  -9.563  -0.912  0.00  0.00    +0.043 A 
ATOM     28 CL   UNL     1       8.544  -9.145  -1.700  0.00  0.00    -0.083 Cl
ENDBRANCH  21  22
BRANCH  21  29
ATOM     29  N   UNL     1       4.587  -9.369  -3.662  0.00  0.00    +0.385 N 
ATOM     30  C   UNL     1       4.542  -8.867  -5.060  0.00  0.00    -0.078 C 
ATOM     31  C   UNL     1       3.514  -9.805  -5.740  0.00  0.00    -0.020 C 
ATOM     32  C   UNL     1       3.810 -11.175  -5.087  0.00  0.00    -0.020 C 
ATOM     33  C   UNL     1       4.518 -10.843  -3.761  0.00  0.00    -0.078 C 
ATOM     34  H   UNL     1       3.798  -9.018  -3.140  0.00  0.00    -0.081 HD
ENDBRANCH  21  29
ENDBRANCH  20  21
ENDBRANCH   3  20
TORSDOF 7
