REMARK  Name = ZINC29528514
REMARK  7 active torsions:
REMARK  status: ('A' for Active; 'I' for Inactive)
REMARK    1  A    between atoms: C_1  and  C_2
REMARK    2  A    between atoms: C_2  and  C_26
REMARK    3  A    between atoms: N_5  and  C_9
REMARK    4  A    between atoms: C_9  and  C_10
REMARK    5  A    between atoms: N_12  and  C_13
REMARK    6  A    between atoms: N_17  and  C_18
REMARK    7  A    between atoms: C_18  and  C_19
REMARK                            x       y       z     vdW  Elec       q    Type
REMARK                         _______ _______ _______ _____ _____    ______ ____
ROOT
ATOM      1  C   UNL     1      -2.601  -3.391   1.225  0.00  0.00    +0.236 C 
ATOM      2  O   UNL     1      -1.714  -3.759   0.484  0.00  0.00    -0.274 OA
ATOM      3  N   UNL     1      -3.594  -4.239   1.560  0.00  0.00    -0.269 N 
ATOM      4  H   UNL     1      -4.304  -3.944   2.152  0.00  0.00    +0.156 HD
ENDROOT
BRANCH   3   5
ATOM      5  C   UNL     1      -3.602  -5.539   1.054  0.00  0.00    +0.124 A 
ATOM      6  C   UNL     1      -2.672  -6.084   0.223  0.00  0.00    +0.065 A 
ATOM      7  C   UNL     1      -3.054  -7.402  -0.040  0.00  0.00    +0.136 A 
ATOM      8  N   UNL     1      -4.166  -7.644   0.604  0.00  0.00    -0.178 NA
ATOM      9  N   UNL     1      -4.531  -6.489   1.306  0.00  0.00    -0.246 N 
BRANCH   9  10
ATOM     10  C   UNL     1      -5.712  -6.335   2.159  0.00  0.00    +0.182 C 
BRANCH  10  11
ATOM     11  C   UNL     1      -6.870  -5.842   1.330  0.00  0.00    -0.008 A 
ATOM     12  C   UNL     1      -7.145  -4.489   1.261  0.00  0.00    +0.007 A 
ATOM     13  C   UNL     1      -8.207  -4.037   0.500  0.00  0.00    +0.000 A 
ATOM     14  C   UNL     1      -8.995  -4.938  -0.192  0.00  0.00    +0.001 A 
ATOM     15  C   UNL     1      -8.721  -6.291  -0.123  0.00  0.00    +0.020 A 
ATOM     16  C   UNL     1      -7.655  -6.743   0.633  0.00  0.00    +0.046 A 
ATOM     17 CL   UNL     1      -7.306  -8.442   0.715  0.00  0.00    -0.083 Cl
ENDBRANCH  10  11
ENDBRANCH   9  10
ENDBRANCH   3   5
BRANCH   1  18
ATOM     18  C   UNL     1      -2.593  -1.987   1.771  0.00  0.00    +0.214 C 
BRANCH  18  23
ATOM     19  C   UNL     1      -0.019   1.526   0.010  0.00  0.00    +0.050 C 
ATOM     20  C   UNL     1       0.002  -0.004   0.002  0.00  0.00    +0.168 C 
ATOM     21  C   UNL     1      -1.404  -0.557   0.121  0.00  0.00    +0.254 C 
ATOM     22  O   UNL     1      -2.324  -0.392  -0.652  0.00  0.00    -0.272 OA
ATOM     23  N   UNL     1      -1.419  -1.272   1.263  0.00  0.00    -0.215 N 
ATOM     24  C   UNL     1      -0.231  -1.248   1.876  0.00  0.00    +0.310 C 
ATOM     25  O   UNL     1       0.001  -1.819   2.923  0.00  0.00    -0.252 OA
ATOM     26  N   UNL     1       0.679  -0.520   1.204  0.00  0.00    -0.279 N 
ATOM     27  H   UNL     1       1.602  -0.365   1.461  0.00  0.00    +0.152 HD
BRANCH  20  28
ATOM     28  C   UNL     1       0.673  -0.517  -1.246  0.00  0.00    +0.137 A 
ATOM     29  C   UNL     1       1.988  -0.767  -1.386  0.00  0.00    +0.047 A 
ATOM     30  C   UNL     1       2.178  -1.229  -2.709  0.00  0.00    +0.041 A 
ATOM     31  C   UNL     1       0.968  -1.234  -3.297  0.00  0.00    +0.195 A 
ATOM     32  O   UNL     1       0.060  -0.807  -2.405  0.00  0.00    -0.465 OA
ENDBRANCH  20  28
ENDBRANCH  18  23
ENDBRANCH   1  18
TORSDOF 6
