REMARK  Name = ZINC44662736
REMARK  10 active torsions:
REMARK  status: ('A' for Active; 'I' for Inactive)
REMARK    1  A    between atoms: C_1  and  C_2
REMARK    2  A    between atoms: C_4  and  C_12
REMARK    3  A    between atoms: C_12  and  C_14
REMARK    4  A    between atoms: C_14  and  S_15
REMARK    5  A    between atoms: S_15  and  C_16
REMARK    6  A    between atoms: N_26  and  C_27
REMARK    7  A    between atoms: C_27  and  C_29
REMARK    8  A    between atoms: C_27  and  C_30
REMARK    9  A    between atoms: C_30  and  O_31
REMARK   10  A    between atoms: O_31  and  C_32
REMARK                            x       y       z     vdW  Elec       q    Type
REMARK                         _______ _______ _______ _____ _____    ______ ____
ROOT
ATOM      1  C   UNL     1       1.289  -1.331  -6.333  0.00  0.00    +0.173 A 
ATOM      2  N   UNL     1       2.221  -2.070  -5.784  0.00  0.00    -0.223 NA
ATOM      3  C   UNL     1       3.230  -2.591  -6.511  0.00  0.00    +0.079 A 
ATOM      4  C   UNL     1       4.224  -3.380  -5.926  0.00  0.00    +0.028 A 
ATOM      5  C   UNL     1       5.229  -3.887  -6.701  0.00  0.00    +0.002 A 
ATOM      6  C   UNL     1       5.278  -3.631  -8.065  0.00  0.00    +0.001 A 
ATOM      7  C   UNL     1       4.320  -2.863  -8.667  0.00  0.00    +0.015 A 
ATOM      8  C   UNL     1       3.283  -2.333  -7.900  0.00  0.00    +0.065 A 
ATOM      9  C   UNL     1       2.226  -1.501  -8.492  0.00  0.00    +0.263 A 
ATOM     10  O   UNL     1       2.217  -1.244  -9.682  0.00  0.00    -0.267 OA
ATOM     11  N   UNL     1       1.260  -1.037  -7.666  0.00  0.00    -0.282 N 
ENDROOT
BRANCH  11  12
ATOM     12  C   UNL     1       0.179  -0.208  -8.205  0.00  0.00    +0.115 C 
ATOM     13  C   UNL     1       0.775   0.961  -8.990  0.00  0.00    +0.033 C 
BRANCH  12  14
ATOM     14  C   UNL     1      -0.696  -1.052  -9.134  0.00  0.00    +0.184 C 
BRANCH  14  15
ATOM     15  O   UNL     1       0.061  -1.435 -10.284  0.00  0.00    -0.381 OA
ATOM     16  C   UNL     1      -0.668  -2.230 -11.222  0.00  0.00    +0.194 C 
ENDBRANCH  14  15
ENDBRANCH  12  14
ENDBRANCH  11  12
BRANCH   1  17
ATOM     17  S   UNL     1       0.008  -0.693  -5.304  0.00  0.00    -0.080 S 
BRANCH  17  18
ATOM     18  C   UNL     1       0.425  -1.312  -3.651  0.00  0.00    +0.156 C 
BRANCH  18  19
ATOM     19  C   UNL     1      -0.605  -0.832  -2.661  0.00  0.00    +0.172 C 
ATOM     20  O   UNL     1      -1.530  -0.140  -3.034  0.00  0.00    -0.291 OA
BRANCH  19  23
ATOM     21  C   UNL     1      -1.465   0.724  -0.022  0.00  0.00    +0.035 C 
ATOM     22  C   UNL     1      -1.428  -0.798  -0.174  0.00  0.00    +0.111 C 
ATOM     23  C   UNL     1      -0.494  -1.186  -1.299  0.00  0.00    +0.027 C 
ATOM     24  C   UNL     1       0.491  -1.962  -0.715  0.00  0.00    +0.006 A 
ATOM     25  C   UNL     1       1.634  -2.616  -1.231  0.00  0.00    +0.010 A 
ATOM     26  C   UNL     1       2.443  -3.324  -0.411  0.00  0.00    +0.001 A 
ATOM     27  C   UNL     1       2.199  -3.446   0.967  0.00  0.00    +0.002 A 
ATOM     28  C   UNL     1       1.136  -2.861   1.559  0.00  0.00    +0.026 A 
ATOM     29  C   UNL     1       0.204  -2.071   0.737  0.00  0.00    +0.043 A 
ATOM     30  N   UNL     1      -0.881  -1.414   1.040  0.00  0.00    -0.377 N 
ATOM     31  H   UNL     1      -1.266  -1.342   1.927  0.00  0.00    +0.160 HD
ENDBRANCH  19  23
ENDBRANCH  18  19
ENDBRANCH  17  18
ENDBRANCH   1  17
TORSDOF 7
