REMARK  Name = ZINC36120638
REMARK  11 active torsions:
REMARK  status: ('A' for Active; 'I' for Inactive)
REMARK    1  A    between atoms: C_1  and  C_2
REMARK    2  A    between atoms: C_2  and  C_3
REMARK    3  A    between atoms: C_3  and  C_5
REMARK    4  A    between atoms: C_3  and  C_6
REMARK    5  A    between atoms: C_6  and  N_7
REMARK    6  A    between atoms: N_7  and  C_8
REMARK    7  A    between atoms: C_8  and  C_9
REMARK    8  A    between atoms: C_19  and  C_21
REMARK    9  A    between atoms: C_21  and  O_22
REMARK   10  A    between atoms: O_22  and  C_23
REMARK   11  A    between atoms: C_30  and  C_32
REMARK                            x       y       z     vdW  Elec       q    Type
REMARK                         _______ _______ _______ _____ _____    ______ ____
ROOT
ATOM      1  C   UNL     1       3.608  -3.098  -1.522  0.00  0.00    +0.234 C 
ATOM      2  O   UNL     1       2.813  -3.911  -1.099  0.00  0.00    -0.274 OA
ATOM      3  N   UNL     1       4.926  -3.261  -1.291  0.00  0.00    -0.289 N 
ATOM      4  C   UNL     1       5.897  -2.278  -1.794  0.00  0.00    +0.114 C 
ATOM      5  C   UNL     1       6.792  -2.971  -2.833  0.00  0.00    +0.061 C 
ATOM      6  C   UNL     1       7.169  -4.321  -2.315  0.00  0.00    -0.004 A 
ATOM      7  C   UNL     1       6.590  -5.020  -1.301  0.00  0.00    -0.014 A 
ATOM      8  C   UNL     1       7.130  -6.273  -1.017  0.00  0.00    +0.013 A 
ATOM      9  C   UNL     1       8.182  -6.735  -1.731  0.00  0.00    +0.046 A 
ATOM     10  S   UNL     1       8.470  -5.391  -2.872  0.00  0.00    -0.101 S 
ATOM     11  C   UNL     1       5.411  -4.419  -0.529  0.00  0.00    +0.144 C 
ENDROOT
BRANCH   1  12
ATOM     12  C   UNL     1       3.121  -1.906  -2.305  0.00  0.00    +0.204 C 
BRANCH  12  13
ATOM     13  N   UNL     1       1.661  -1.958  -2.417  0.00  0.00    -0.288 N 
ATOM     14  C   UNL     1       1.087  -2.292  -3.590  0.00  0.00    +0.250 C 
ATOM     15  O   UNL     1      -0.124  -2.302  -3.692  0.00  0.00    -0.270 OA
BRANCH  14  16
ATOM     16  C   UNL     1       1.929  -2.645  -4.750  0.00  0.00    +0.072 A 
ATOM     17  C   UNL     1       3.211  -3.163  -4.555  0.00  0.00    +0.016 A 
ATOM     18  C   UNL     1       3.992  -3.491  -5.643  0.00  0.00    +0.001 A 
ATOM     19  C   UNL     1       3.510  -3.307  -6.928  0.00  0.00    +0.003 A 
ATOM     20  C   UNL     1       2.243  -2.794  -7.131  0.00  0.00    +0.039 A 
ATOM     21  C   UNL     1       1.445  -2.466  -6.050  0.00  0.00    +0.135 A 
ATOM     22  F   UNL     1       0.204  -1.970  -6.249  0.00  0.00    -0.205 F 
ENDBRANCH  14  16
BRANCH  13  23
ATOM     23  C   UNL     1       0.826  -1.648  -1.254  0.00  0.00    +0.112 C 
BRANCH  23  24
ATOM     24  C   UNL     1       0.640  -0.133  -1.150  0.00  0.00    +0.003 C 
ATOM     25  C   UNL     1      -0.163   0.367  -2.353  0.00  0.00    +0.009 C 
BRANCH  24  27
ATOM     26  C   UNL     1      -0.189   1.720   0.307  0.00  0.00    +0.004 C 
ATOM     27  C   UNL     1      -0.112   0.201   0.140  0.00  0.00    +0.001 C 
ENDBRANCH  24  27
ENDBRANCH  23  24
ENDBRANCH  13  23
ENDBRANCH  12  13
ENDBRANCH   1  12
BRANCH  11  28
ATOM     28  C   UNL     1       5.871  -3.970   0.859  0.00  0.00    +0.256 C 
BRANCH  28  29
ATOM     29  O   UNL     1       7.001  -3.106   0.731  0.00  0.00    -0.487 OA
BRANCH  29  30
ATOM     30  C   UNL     1       7.537  -2.615   1.880  0.00  0.00    +0.156 A 
ATOM     31  C   UNL     1       6.989  -2.962   3.105  0.00  0.00    +0.048 A 
ATOM     32  C   UNL     1       7.534  -2.462   4.272  0.00  0.00    +0.004 A 
ATOM     33  C   UNL     1       8.626  -1.615   4.219  0.00  0.00    +0.003 A 
ATOM     34  C   UNL     1       9.175  -1.266   2.999  0.00  0.00    +0.042 A 
ATOM     35  C   UNL     1       8.637  -1.769   1.829  0.00  0.00    +0.165 A 
ATOM     36  F   UNL     1       9.177  -1.433   0.637  0.00  0.00    -0.202 F 
ENDBRANCH  29  30
ENDBRANCH  28  29
ENDBRANCH  11  28
TORSDOF 9
