REMARK  Name = ZINC32594710
REMARK  4 active torsions:
REMARK  status: ('A' for Active; 'I' for Inactive)
REMARK    1  A    between atoms: C_4  and  O_35
REMARK    2  A    between atoms: C_5  and  C_7
REMARK    3  A    between atoms: N_22  and  C_25
REMARK    4  A    between atoms: C_30  and  C_31
REMARK                            x       y       z     vdW  Elec       q    Type
REMARK                         _______ _______ _______ _____ _____    ______ ____
ROOT
ATOM      1  C   UNL     1      -1.061   5.199   0.041  0.00  0.00    +0.078 C 
ATOM      2  C   UNL     1      -0.489   3.821   0.025  0.00  0.00    +0.033 A 
ATOM      3  C   UNL     1       0.802   3.431   0.008  0.00  0.00    +0.087 A 
ATOM      4  N   UNL     1       1.024   2.074   0.003  0.00  0.00    -0.311 N 
ATOM      5  H   UNL     1       2.053   1.685  -0.005  0.00  0.00    +0.170 HD
ATOM      6  C   UNL     1      -0.014   1.214   0.009  0.00  0.00    +0.289 A 
ATOM      7  O   UNL     1       0.002  -0.004   0.002  0.00  0.00    -0.260 OA
ATOM      8  S   UNL     1      -1.381   2.284   0.020  0.00  0.00    -0.030 S 
ATOM      9  S   UNL     1       2.114   4.636  -0.013  0.00  0.00    -0.106 S 
ATOM     10  C   UNL     1       1.229   6.169   0.410  0.00  0.00    +0.093 C 
ATOM     11  C   UNL     1      -0.048   6.233  -0.427  0.00  0.00    +0.077 C 
ATOM     12  C   UNL     1      -0.652   7.645  -0.360  0.00  0.00    +0.114 C 
ATOM     13  C   UNL     1      -0.612   8.113  -1.800  0.00  0.00    +0.227 C 
ATOM     14  O   UNL     1      -0.998   9.190  -2.200  0.00  0.00    -0.275 OA
ATOM     15  N   UNL     1      -0.081   7.147  -2.561  0.00  0.00    -0.209 N 
ATOM     16  C   UNL     1       0.273   6.042  -1.889  0.00  0.00    +0.235 C 
ATOM     17  O   UNL     1       0.770   5.050  -2.377  0.00  0.00    -0.274 OA
ENDROOT
BRANCH   1  22
ATOM     18  C   UNL     1      -3.231   4.986  -3.041  0.00  0.00    +0.001 A 
ATOM     19  C   UNL     1      -4.472   5.322  -2.533  0.00  0.00    +0.004 A 
ATOM     20  C   UNL     1      -4.613   5.618  -1.191  0.00  0.00    +0.046 A 
ATOM     21  C   UNL     1      -3.509   5.574  -0.353  0.00  0.00    +0.121 A 
ATOM     22  C   UNL     1      -2.263   5.242  -0.866  0.00  0.00    +0.003 A 
ATOM     23  C   UNL     1      -2.128   4.946  -2.209  0.00  0.00    +0.008 A 
BRANCH  21  24
ATOM     24  O   UNL     1      -3.646   5.861   0.969  0.00  0.00    -0.506 OA
ATOM     25  H   UNL     1      -2.769   5.826   1.633  0.00  0.00    +0.292 HD
ENDBRANCH  21  24
ENDBRANCH   1  22
BRANCH  15  26
ATOM     26  C   UNL     1       0.092   7.280  -3.946  0.00  0.00    +0.056 A 
ATOM     27  C   UNL     1      -0.916   6.881  -4.814  0.00  0.00    +0.024 A 
ATOM     28  C   UNL     1      -0.745   7.018  -6.178  0.00  0.00    +0.002 A 
ATOM     29  C   UNL     1       0.432   7.543  -6.679  0.00  0.00    +0.001 A 
ATOM     30  C   UNL     1       1.439   7.937  -5.817  0.00  0.00    +0.014 A 
ATOM     31  C   UNL     1       1.272   7.807  -4.452  0.00  0.00    +0.077 A 
BRANCH  31  32
ATOM     32  C   UNL     1       2.370   8.237  -3.514  0.00  0.00    +0.419 C 
ATOM     33  F   UNL     1       3.450   8.730  -4.254  0.00  0.00    -0.166 F 
ATOM     34  F   UNL     1       1.891   9.239  -2.663  0.00  0.00    -0.166 F 
ATOM     35  F   UNL     1       2.788   7.140  -2.752  0.00  0.00    -0.166 F 
ENDBRANCH  31  32
ENDBRANCH  15  26
TORSDOF 4
