REMARK  Name = ZINC40545942
REMARK  5 active torsions:
REMARK  status: ('A' for Active; 'I' for Inactive)
REMARK    1  A    between atoms: C_1  and  C_2
REMARK    2  A    between atoms: C_5  and  C_9
REMARK    3  A    between atoms: C_6  and  C_8
REMARK    4  A    between atoms: C_9  and  C_11
REMARK    5  A    between atoms: C_15  and  C_21
REMARK                            x       y       z     vdW  Elec       q    Type
REMARK                         _______ _______ _______ _____ _____    ______ ____
ROOT
ATOM      1  C   UNL     1       0.086   1.472   0.431  0.00  0.00    +0.086 C 
ATOM      2  C   UNL     1       0.052  -0.018   0.207  0.00  0.00    +0.104 C 
ATOM      3  C   UNL     1      -1.102  -0.641   0.255  0.00  0.00    +0.087 C 
ATOM      4  C   UNL     1      -1.194  -2.126   0.040  0.00  0.00    +0.232 C 
ATOM      5  C   UNL     1       0.166  -2.756   0.168  0.00  0.00    +0.098 C 
ATOM      6  C   UNL     1       1.278  -1.997   0.122  0.00  0.00    +0.114 C 
ATOM      7  O   UNL     1       1.208  -0.667  -0.043  0.00  0.00    -0.465 OA
ATOM      8  C   UNL     1       2.627  -2.656   0.254  0.00  0.00    +0.087 C 
ATOM      9  N   UNL     1      -2.114  -2.719   1.018  0.00  0.00    -0.297 N 
ATOM     10  C   UNL     1      -3.142  -3.317   0.275  0.00  0.00    +0.074 A 
ATOM     11  C   UNL     1      -4.267  -4.019   0.682  0.00  0.00    +0.035 A 
ATOM     12  C   UNL     1      -5.154  -4.522  -0.267  0.00  0.00    -0.015 A 
ATOM     13  C   UNL     1      -4.906  -4.317  -1.623  0.00  0.00    +0.027 A 
ATOM     14  C   UNL     1      -3.787  -3.618  -2.024  0.00  0.00    +0.062 A 
ATOM     15  C   UNL     1      -2.898  -3.114  -1.080  0.00  0.00    +0.159 A 
ATOM     16  O   UNL     1      -1.747  -2.406  -1.247  0.00  0.00    -0.457 OA
ATOM     17 BR   UNL     1      -3.458  -3.344  -3.866  0.00  0.00    -0.046 Br
ATOM     18  H   UNL     1      -2.027  -2.702   1.984  0.00  0.00    +0.151 HD
ENDROOT
BRANCH  12  19
ATOM     19  C   UNL     1      -6.358  -5.274   0.165  0.00  0.00    -0.018 A 
ATOM     20  C   UNL     1      -6.608  -5.474   1.521  0.00  0.00    +0.008 A 
ATOM     21  C   UNL     1      -7.730  -6.174   1.917  0.00  0.00    +0.001 A 
ATOM     22  C   UNL     1      -8.604  -6.677   0.970  0.00  0.00    +0.000 A 
ATOM     23  C   UNL     1      -8.360  -6.482  -0.377  0.00  0.00    +0.001 A 
ATOM     24  C   UNL     1      -7.245  -5.778  -0.784  0.00  0.00    +0.008 A 
ENDBRANCH  12  19
BRANCH   5  25
ATOM     25  C   UNL     1       0.276  -4.148   0.336  0.00  0.00    +0.165 C 
ATOM     26  O   UNL     1       0.702  -4.601   1.379  0.00  0.00    -0.292 OA
ATOM     27  C   UNL     1      -0.132  -5.076  -0.779  0.00  0.00    +0.091 C 
ENDBRANCH   5  25
TORSDOF 2
