REMARK  Name = ZINC67292294
REMARK  8 active torsions:
REMARK  status: ('A' for Active; 'I' for Inactive)
REMARK    1  A    between atoms: C_1  and  O_2
REMARK    2  A    between atoms: O_2  and  C_3
REMARK    3  A    between atoms: C_5  and  N_11
REMARK    4  A    between atoms: C_7  and  O_9
REMARK    5  A    between atoms: O_9  and  C_10
REMARK    6  A    between atoms: C_13  and  C_23
REMARK    7  A    between atoms: N_25  and  C_26
REMARK    8  A    between atoms: C_26  and  C_27
REMARK                            x       y       z     vdW  Elec       q    Type
REMARK                         _______ _______ _______ _____ _____    ______ ____
ROOT
ATOM      1  N   UNL     1       1.386  -3.998   2.207  0.00  0.00    -0.325 N 
ATOM      2  C   UNL     1       2.517  -4.593   2.521  0.00  0.00    +0.212 A 
ATOM      3  C   UNL     1       2.585  -6.058   2.692  0.00  0.00    +0.097 A 
ATOM      4  C   UNL     1       3.811  -6.665   2.457  0.00  0.00    +0.030 A 
ATOM      5  C   UNL     1       4.926  -5.802   2.060  0.00  0.00    +0.019 A 
ATOM      6  C   UNL     1       6.109  -6.348   1.550  0.00  0.00    +0.026 A 
ATOM      7  C   UNL     1       7.141  -5.513   1.182  0.00  0.00    +0.019 A 
ATOM      8  C   UNL     1       7.012  -4.137   1.314  0.00  0.00    +0.019 A 
ATOM      9  C   UNL     1       5.851  -3.585   1.816  0.00  0.00    +0.048 A 
ATOM     10  C   UNL     1       4.800  -4.406   2.196  0.00  0.00    +0.137 A 
ATOM     11  O   UNL     1       3.659  -3.878   2.692  0.00  0.00    -0.439 OA
ATOM     12 BR   UNL     1       8.742  -6.245   0.493  0.00  0.00    -0.050 Br
ATOM     13  H   UNL     1       0.600  -4.529   2.003  0.00  0.00    +0.169 HD
ENDROOT
BRANCH   1  16
ATOM     14  C   UNL     1       0.617  -0.610   1.070  0.00  0.00    +0.126 A 
ATOM     15  C   UNL     1       0.683  -1.993   1.104  0.00  0.00    +0.071 A 
ATOM     16  C   UNL     1       1.319  -2.633   2.170  0.00  0.00    +0.049 A 
ATOM     17  C   UNL     1       1.885  -1.875   3.197  0.00  0.00    +0.071 A 
ATOM     18  C   UNL     1       1.813  -0.493   3.154  0.00  0.00    +0.126 A 
ATOM     19  C   UNL     1       1.186   0.139   2.090  0.00  0.00    +0.091 A 
BRANCH  14  21
ATOM     20  C   UNL     1      -0.028   1.443   0.059  0.00  0.00    +0.277 C 
ATOM     21  O   UNL     1      -0.002   0.014   0.033  0.00  0.00    -0.495 OA
ENDBRANCH  14  21
BRANCH  18  22
ATOM     22  O   UNL     1       2.364   0.246   4.153  0.00  0.00    -0.495 OA
ATOM     23  C   UNL     1       2.254   1.667   4.046  0.00  0.00    +0.277 C 
ENDBRANCH  18  22
ENDBRANCH   1  16
BRANCH   3  24
ATOM     24  C   UNL     1       1.404  -6.840   3.094  0.00  0.00    +0.249 C 
ATOM     25  O   UNL     1       0.323  -6.294   3.209  0.00  0.00    -0.270 OA
ATOM     26  N   UNL     1       1.520  -8.161   3.336  0.00  0.00    -0.309 N 
ATOM     27  H   UNL     1       2.394  -8.582   3.317  0.00  0.00    +0.149 HD
BRANCH  26  28
ATOM     28  C   UNL     1       0.328  -8.960   3.626  0.00  0.00    +0.136 C 
BRANCH  28  29
ATOM     29  C   UNL     1       0.735 -10.417   3.860  0.00  0.00    +0.135 C 
ATOM     30  C   UNL     1      -0.525 -11.289   4.047  0.00  0.00    +0.035 C 
ATOM     31  C   UNL     1      -0.085 -12.267   5.171  0.00  0.00    +0.031 C 
ATOM     32  C   UNL     1       0.836 -11.350   6.014  0.00  0.00    +0.160 C 
ATOM     33  O   UNL     1       1.514 -10.517   5.057  0.00  0.00    -0.375 OA
ENDBRANCH  28  29
ENDBRANCH  26  28
ENDBRANCH   3  24
TORSDOF 6
