REMARK  Name = ZINC13296405
REMARK  8 active torsions:
REMARK  status: ('A' for Active; 'I' for Inactive)
REMARK    1  A    between atoms: C_1  and  C_2
REMARK    2  A    between atoms: C_2  and  N_3
REMARK    3  A    between atoms: N_3  and  C_4
REMARK    4  A    between atoms: C_12  and  C_14
REMARK    5  A    between atoms: C_14  and  C_16
REMARK    6  A    between atoms: C_14  and  S_17
REMARK    7  A    between atoms: S_17  and  C_18
REMARK    8  A    between atoms: N_22  and  C_27
REMARK                            x       y       z     vdW  Elec       q    Type
REMARK                         _______ _______ _______ _____ _____    ______ ____
ROOT
ATOM      1  C   UNL     1       1.112   2.021   0.002  0.00  0.00    +0.112 A 
ATOM      2  C   UNL     1       2.336   1.323  -0.013  0.00  0.00    +0.071 A 
ATOM      3  C   UNL     1       3.695   1.703  -0.024  0.00  0.00    +0.147 A 
ATOM      4  N   UNL     1       4.427   0.625  -0.037  0.00  0.00    -0.172 NA
ATOM      5  N   UNL     1       3.600  -0.506  -0.036  0.00  0.00    -0.214 N 
ATOM      6  C   UNL     1       2.301  -0.085  -0.021  0.00  0.00    +0.167 A 
ATOM      7  N   UNL     1       1.119  -0.699  -0.013  0.00  0.00    -0.216 NA
ATOM      8  C   UNL     1       0.002  -0.004   0.002  0.00  0.00    +0.224 A 
ATOM      9  N   UNL     1      -0.016   1.317   0.009  0.00  0.00    -0.228 NA
ENDROOT
BRANCH   5  10
ATOM     10  C   UNL     1       4.032  -1.839  -0.047  0.00  0.00    +0.068 A 
ATOM     11  C   UNL     1       3.319  -2.807   0.649  0.00  0.00    +0.030 A 
ATOM     12  C   UNL     1       3.743  -4.121   0.632  0.00  0.00    +0.040 A 
ATOM     13  C   UNL     1       4.884  -4.473  -0.070  0.00  0.00    +0.124 A 
ATOM     14  C   UNL     1       5.599  -3.508  -0.760  0.00  0.00    +0.040 A 
ATOM     15  C   UNL     1       5.176  -2.194  -0.750  0.00  0.00    +0.030 A 
ATOM     16  F   UNL     1       5.300  -5.758  -0.081  0.00  0.00    -0.205 F 
ENDBRANCH   5  10
BRANCH   1  17
ATOM     17  S   UNL     1       1.077   3.782   0.011  0.00  0.00    -0.093 S 
BRANCH  17  18
ATOM     18  C   UNL     1      -0.711   4.061   0.030  0.00  0.00    +0.136 C 
ATOM     19  C   UNL     1      -1.321   3.544  -1.275  0.00  0.00    +0.029 C 
BRANCH  18  21
ATOM     20  N   UNL     1      -2.154   5.958   0.693  0.00  0.00    -0.296 N 
ATOM     21  C   UNL     1      -0.989   5.536   0.164  0.00  0.00    +0.229 C 
ATOM     22  O   UNL     1      -0.163   6.344  -0.205  0.00  0.00    -0.274 OA
BRANCH  20  23
ATOM     23  C   UNL     1      -2.424   7.392   0.823  0.00  0.00    +0.098 C 
ATOM     24  C   UNL     1      -2.356   8.061  -0.560  0.00  0.00    +0.046 C 
ATOM     25  C   UNL     1      -2.319   9.600  -0.401  0.00  0.00    +0.168 C 
ATOM     26  S   UNL     1      -1.525   9.816   1.244  0.00  0.00    -0.029 S 
ATOM     27  O   UNL     1      -2.446  10.447   2.123  0.00  0.00    -0.174 OA
ATOM     28  O   UNL     1      -0.233  10.380   1.064  0.00  0.00    -0.174 OA
ATOM     29  C   UNL     1      -1.345   8.049   1.731  0.00  0.00    +0.188 C 
ENDBRANCH  20  23
BRANCH  20  31
ATOM     30  C   UNL     1      -2.905   4.634   2.607  0.00  0.00    +0.024 C 
ATOM     31  C   UNL     1      -3.152   4.982   1.138  0.00  0.00    +0.105 C 
ENDBRANCH  20  31
ENDBRANCH  18  21
ENDBRANCH  17  18
ENDBRANCH   1  17
TORSDOF 6
