REMARK  Name = ZINC19354953
REMARK  13 active torsions:
REMARK  status: ('A' for Active; 'I' for Inactive)
REMARK    1  A    between atoms: C_1  and  C_2
REMARK    2  A    between atoms: C_2  and  O_3
REMARK    3  A    between atoms: O_3  and  C_4
REMARK    4  A    between atoms: C_4  and  C_6
REMARK    5  A    between atoms: C_7  and  C_19
REMARK    6  A    between atoms: C_12  and  C_14
REMARK    7  A    between atoms: C_19  and  S_20
REMARK    8  A    between atoms: S_20  and  C_21
REMARK    9  A    between atoms: C_24  and  C_26
REMARK   10  A    between atoms: C_29  and  C_32
REMARK   11  A    between atoms: C_32  and  C_33
REMARK   12  A    between atoms: C_32  and  C_34
REMARK   13  A    between atoms: C_32  and  C_35
REMARK                            x       y       z     vdW  Elec       q    Type
REMARK                         _______ _______ _______ _____ _____    ______ ____
ROOT
ATOM      1  C   UNL     1      -0.696   1.689   3.586  0.00  0.00    +0.082 C 
ATOM      2  C   UNL     1      -0.317   1.171   4.774  0.00  0.00    +0.034 C 
ATOM      3  N   UNL     1      -0.973   1.498   5.926  0.00  0.00    -0.272 N 
ATOM      4  C   UNL     1      -2.023   2.327   5.973  0.00  0.00    +0.304 C 
ATOM      5  O   UNL     1      -2.546   2.554   7.047  0.00  0.00    -0.252 OA
ATOM      6  N   UNL     1      -2.521   2.918   4.869  0.00  0.00    -0.285 N 
ATOM      7  C   UNL     1      -1.880   2.635   3.574  0.00  0.00    +0.179 C 
ATOM      8  H   UNL     1      -0.644   1.073   6.886  0.00  0.00    +0.156 HD
ATOM      9  H   UNL     1      -3.385   3.597   4.918  0.00  0.00    +0.151 HD
ENDROOT
BRANCH   7  10
ATOM     10  C   UNL     1      -1.423   3.945   2.985  0.00  0.00    +0.130 A 
ATOM     11  C   UNL     1      -1.626   4.352   1.720  0.00  0.00    +0.047 A 
ATOM     12  C   UNL     1      -1.034   5.630   1.601  0.00  0.00    +0.041 A 
ATOM     13  C   UNL     1      -0.505   5.928   2.801  0.00  0.00    +0.195 A 
ATOM     14  O   UNL     1      -0.749   4.905   3.638  0.00  0.00    -0.466 OA
ENDBRANCH   7  10
BRANCH   1  15
ATOM     15  C   UNL     1      -0.015   1.355   2.392  0.00  0.00    +0.339 C 
ATOM     16  O   UNL     1      -0.493   0.539   1.626  0.00  0.00    -0.245 OA
BRANCH  15  17
ATOM     17  O   UNL     1       1.165   1.942   2.101  0.00  0.00    -0.462 OA
BRANCH  17  19
ATOM     18  C   UNL     1       3.113   2.323   0.723  0.00  0.00    +0.048 C 
ATOM     19  C   UNL     1       1.798   1.558   0.879  0.00  0.00    +0.229 C 
ENDBRANCH  17  19
ENDBRANCH  15  17
ENDBRANCH   1  15
BRANCH   2  20
ATOM     20  C   UNL     1       0.852   0.222   4.830  0.00  0.00    +0.130 C 
BRANCH  20  21
ATOM     21  S   UNL     1       2.293   1.079   5.511  0.00  0.00    -0.060 S 
BRANCH  21  22
ATOM     22  C   UNL     1       3.476  -0.226   5.463  0.00  0.00    +0.278 A 
ATOM     23  N   UNL     1       3.265  -1.451   5.038  0.00  0.00    -0.101 NA
ATOM     24  N   UNL     1       4.351  -2.133   5.144  0.00  0.00    -0.106 NA
ATOM     25  C   UNL     1       5.294  -1.376   5.649  0.00  0.00    +0.249 A 
ATOM     26  O   UNL     1       4.760  -0.153   5.862  0.00  0.00    -0.411 OA
BRANCH  25  27
ATOM     27  C   UNL     1       6.685  -1.784   5.933  0.00  0.00    +0.039 A 
ATOM     28  C   UNL     1       7.590  -0.866   6.468  0.00  0.00    +0.013 A 
ATOM     29  C   UNL     1       8.887  -1.255   6.735  0.00  0.00    +0.005 A 
ATOM     30  C   UNL     1       9.293  -2.550   6.463  0.00  0.00    -0.042 A 
ATOM     31  C   UNL     1       8.403  -3.463   5.928  0.00  0.00    +0.005 A 
ATOM     32  C   UNL     1       7.102  -3.089   5.661  0.00  0.00    +0.013 A 
BRANCH  30  33
ATOM     33  C   UNL     1      10.712  -2.966   6.753  0.00  0.00    -0.013 C 
ATOM     34  C   UNL     1      11.384  -3.424   5.457  0.00  0.00    +0.015 C 
ATOM     35  C   UNL     1      11.483  -1.780   7.336  0.00  0.00    +0.015 C 
ATOM     36  C   UNL     1      10.710  -4.118   7.761  0.00  0.00    +0.015 C 
ENDBRANCH  30  33
ENDBRANCH  25  27
ENDBRANCH  21  22
ENDBRANCH  20  21
ENDBRANCH   2  20
TORSDOF 9
