REMARK  Name = ZINC47214097
REMARK  7 active torsions:
REMARK  status: ('A' for Active; 'I' for Inactive)
REMARK    1  A    between atoms: C_1  and  C_2
REMARK    2  A    between atoms: C_5  and  O_9
REMARK    3  A    between atoms: C_7  and  C_8
REMARK    4  A    between atoms: O_9  and  S_10
REMARK    5  A    between atoms: S_10  and  C_13
REMARK    6  A    between atoms: C_16  and  S_19
REMARK    7  A    between atoms: S_19  and  N_22
REMARK                            x       y       z     vdW  Elec       q    Type
REMARK                         _______ _______ _______ _____ _____    ______ ____
ROOT
ATOM      1  C   UNL     1       2.114  -4.544   1.592  0.00  0.00    +0.128 A 
ATOM      2  C   UNL     1       2.823  -3.405   1.924  0.00  0.00    +0.032 A 
ATOM      3  C   UNL     1       3.340  -3.259   3.198  0.00  0.00    +0.030 A 
ATOM      4  C   UNL     1       3.148  -4.253   4.140  0.00  0.00    +0.106 A 
ATOM      5  C   UNL     1       2.438  -5.392   3.808  0.00  0.00    +0.030 A 
ATOM      6  C   UNL     1       1.917  -5.536   2.536  0.00  0.00    +0.032 A 
ENDROOT
BRANCH   1   7
ATOM      7  S   UNL     1       1.455  -4.730  -0.031  0.00  0.00    +0.151 S 
ATOM      8  O   UNL     1       1.296  -6.125  -0.248  0.00  0.00    -0.131 OA
ATOM      9  O   UNL     1       2.242  -3.912  -0.885  0.00  0.00    -0.131 OA
BRANCH   7  10
ATOM     10  O   UNL     1       0.057  -4.129  -0.021  0.00  0.00    -0.342 OA
BRANCH  10  15
ATOM     11  C   UNL     1      -0.018   1.503   0.010  0.00  0.00    +0.044 C 
ATOM     12  C   UNL     1       0.002  -0.004   0.002  0.00  0.00    -0.047 A 
ATOM     13  C   UNL     1       0.006  -0.688  -1.200  0.00  0.00    +0.007 A 
ATOM     14  C   UNL     1       0.024  -2.069  -1.210  0.00  0.00    +0.049 A 
ATOM     15  C   UNL     1       0.039  -2.770  -0.013  0.00  0.00    +0.157 A 
ATOM     16  C   UNL     1       0.036  -2.082   1.191  0.00  0.00    +0.052 A 
ATOM     17  C   UNL     1       0.023  -0.701   1.196  0.00  0.00    -0.044 A 
ATOM     18  C   UNL     1       0.025   0.048   2.504  0.00  0.00    +0.044 C 
ENDBRANCH  10  15
ENDBRANCH   7  10
ENDBRANCH   1   7
BRANCH   4  19
ATOM     19  S   UNL     1       3.808  -4.068   5.763  0.00  0.00    +0.061 S 
ATOM     20  O   UNL     1       3.957  -5.378   6.293  0.00  0.00    -0.153 OA
ATOM     21  O   UNL     1       4.896  -3.160   5.658  0.00  0.00    -0.153 OA
BRANCH  19  22
ATOM     22  N   UNL     1       2.651  -3.316   6.679  0.00  0.00    -0.177 NA
ATOM     23  C   UNL     1       2.499  -1.863   6.844  0.00  0.00    +0.109 C 
ATOM     24  C   UNL     1       1.310  -1.633   7.801  0.00  0.00    +0.018 C 
ATOM     25  C   UNL     1       1.216  -2.978   8.568  0.00  0.00    +0.018 C 
ATOM     26  C   UNL     1       1.599  -3.993   7.460  0.00  0.00    +0.109 C 
ENDBRANCH  19  22
ENDBRANCH   4  19
TORSDOF 5
