REMARK  Name = ZINC63506572
REMARK  6 active torsions:
REMARK  status: ('A' for Active; 'I' for Inactive)
REMARK    1  A    between atoms: C_1  and  C_2
REMARK    2  A    between atoms: C_5  and  C_8
REMARK    3  A    between atoms: C_8  and  N_9
REMARK    4  A    between atoms: C_24  and  C_25
REMARK    5  A    between atoms: C_24  and  C_26
REMARK    6  A    between atoms: N_28  and  C_29
REMARK                            x       y       z     vdW  Elec       q    Type
REMARK                         _______ _______ _______ _____ _____    ______ ____
ROOT
ATOM      1  N   UNL     1       1.274  -4.923   0.078  0.00  0.00    -0.280 N 
ATOM      2  C   UNL     1       1.570  -5.104  -1.175  0.00  0.00    +0.244 C 
ATOM      3  O   UNL     1       0.665  -4.916  -1.961  0.00  0.00    -0.273 OA
ATOM      4  C   UNL     1       2.879  -5.514  -1.781  0.00  0.00    +0.204 C 
ATOM      5  C   UNL     1       4.006  -4.698  -1.181  0.00  0.00    +0.026 C 
ATOM      6  C   UNL     1       4.490  -3.893  -2.202  0.00  0.00    +0.010 A 
ATOM      7  C   UNL     1       5.491  -2.898  -2.244  0.00  0.00    +0.011 A 
ATOM      8  C   UNL     1       5.767  -2.268  -3.414  0.00  0.00    +0.001 A 
ATOM      9  C   UNL     1       5.080  -2.577  -4.590  0.00  0.00    +0.002 A 
ATOM     10  C   UNL     1       4.104  -3.518  -4.621  0.00  0.00    +0.026 A 
ATOM     11  C   UNL     1       3.758  -4.216  -3.437  0.00  0.00    +0.044 A 
ATOM     12  N   UNL     1       2.852  -5.168  -3.212  0.00  0.00    -0.369 N 
ATOM     13  S   UNL     1       4.555  -4.813   0.368  0.00  0.00    -0.124 S 
ATOM     14  C   UNL     1       3.301  -5.785   1.231  0.00  0.00    +0.109 C 
ATOM     15  C   UNL     1       1.991  -5.023   1.318  0.00  0.00    +0.120 C 
ATOM     16  C   UNL     1       1.106  -5.751   2.331  0.00  0.00    +0.042 C 
ATOM     17  H   UNL     1       2.268  -5.568  -3.875  0.00  0.00    +0.161 HD
ENDROOT
BRANCH  15  18
ATOM     18  C   UNL     1       2.246  -3.630   1.833  0.00  0.00    +0.237 C 
ATOM     19  O   UNL     1       2.187  -3.403   3.023  0.00  0.00    -0.273 OA
ATOM     20  N   UNL     1       2.540  -2.636   0.971  0.00  0.00    -0.311 N 
ATOM     21  H   UNL     1       2.516  -2.800   0.016  0.00  0.00    +0.149 HD
BRANCH  20  22
ATOM     22  C   UNL     1       2.896  -1.308   1.478  0.00  0.00    +0.073 C 
ATOM     23  C   UNL     1       1.619  -0.486   1.748  0.00  0.00    +0.022 C 
ATOM     24  C   UNL     1       2.000   0.956   1.331  0.00  0.00    +0.002 C 
ATOM     25  C   UNL     1       2.883   0.728   0.079  0.00  0.00    +0.002 C 
ATOM     26  C   UNL     1       3.700  -0.537   0.417  0.00  0.00    +0.022 C 
ENDBRANCH  20  22
ENDBRANCH  15  18
BRANCH   1  27
ATOM     27  C   UNL     1      -0.120  -4.515   0.270  0.00  0.00    +0.144 C 
BRANCH  27  32
ATOM     28  C   UNL     1      -3.507  -9.197   0.345  0.00  0.00    +0.044 C 
ATOM     29  C   UNL     1      -2.624  -7.976   0.326  0.00  0.00    -0.050 A 
ATOM     30  C   UNL     1      -2.175  -7.428   1.513  0.00  0.00    +0.003 A 
ATOM     31  C   UNL     1      -1.365  -6.309   1.495  0.00  0.00    +0.005 A 
ATOM     32  C   UNL     1      -1.003  -5.737   0.290  0.00  0.00    -0.030 A 
ATOM     33  C   UNL     1      -1.451  -6.285  -0.898  0.00  0.00    +0.005 A 
ATOM     34  C   UNL     1      -2.258  -7.407  -0.880  0.00  0.00    +0.003 A 
ENDBRANCH  27  32
ENDBRANCH   1  27
TORSDOF 4
