REMARK  Name = ZINC23448272
REMARK  11 active torsions:
REMARK  status: ('A' for Active; 'I' for Inactive)
REMARK    1  A    between atoms: C_1  and  C_2
REMARK    2  A    between atoms: C_5  and  N_10
REMARK    3  A    between atoms: C_6  and  O_8
REMARK    4  A    between atoms: O_8  and  C_9
REMARK    5  A    between atoms: C_11  and  C_23
REMARK    6  A    between atoms: C_23  and  C_24
REMARK    7  A    between atoms: C_24  and  C_25
REMARK    8  A    between atoms: N_27  and  C_28
REMARK    9  A    between atoms: C_28  and  C_29
REMARK   10  A    between atoms: C_29  and  C_30
REMARK   11  A    between atoms: N_35  and  C_36
REMARK                            x       y       z     vdW  Elec       q    Type
REMARK                         _______ _______ _______ _____ _____    ______ ____
ROOT
ATOM      1  N   UNL     1      -2.457   0.171   0.150  0.00  0.00    -0.309 N 
ATOM      2  C   UNL     1      -3.116   0.445  -1.021  0.00  0.00    +0.025 A 
ATOM      3  C   UNL     1      -4.314   1.007  -0.721  0.00  0.00    +0.030 A 
ATOM      4  C   UNL     1      -4.401   1.097   0.663  0.00  0.00    +0.016 A 
ATOM      5  C   UNL     1      -3.238   0.568   1.183  0.00  0.00    +0.064 A 
ATOM      6  C   UNL     1      -3.062   0.525   2.647  0.00  0.00    +0.041 A 
ATOM      7  C   UNL     1      -1.841   0.271   3.251  0.00  0.00    +0.013 A 
ATOM      8  C   UNL     1      -1.752   0.264   4.630  0.00  0.00    +0.001 A 
ATOM      9  C   UNL     1      -2.876   0.510   5.398  0.00  0.00    +0.004 A 
ATOM     10  C   UNL     1      -4.099   0.757   4.803  0.00  0.00    +0.046 A 
ATOM     11  C   UNL     1      -4.213   0.762   3.423  0.00  0.00    +0.130 A 
ATOM     12  O   UNL     1      -5.410   0.984   2.829  0.00  0.00    -0.487 OA
ATOM     13  C   UNL     1      -5.480   1.641   1.560  0.00  0.00    +0.266 C 
ENDROOT
BRANCH   1  18
ATOM     14  C   UNL     1       2.682  -2.206   0.604  0.00  0.00    +0.044 C 
ATOM     15  C   UNL     1       1.320  -1.573   0.480  0.00  0.00    -0.047 A 
ATOM     16  C   UNL     1       0.189  -2.369   0.458  0.00  0.00    +0.005 A 
ATOM     17  C   UNL     1      -1.062  -1.794   0.344  0.00  0.00    +0.030 A 
ATOM     18  C   UNL     1      -1.187  -0.415   0.259  0.00  0.00    +0.089 A 
ATOM     19  C   UNL     1      -0.048   0.386   0.276  0.00  0.00    +0.144 A 
ATOM     20  C   UNL     1       1.204  -0.198   0.390  0.00  0.00    +0.051 A 
BRANCH  19  21
ATOM     21  O   UNL     1      -0.163   1.738   0.188  0.00  0.00    -0.493 OA
ATOM     22  C   UNL     1       1.048   2.496   0.218  0.00  0.00    +0.277 C 
ENDBRANCH  19  21
ENDBRANCH   1  18
BRANCH   2  23
ATOM     23  C   UNL     1      -2.599   0.164  -2.408  0.00  0.00    +0.063 C 
BRANCH  23  24
ATOM     24  C   UNL     1      -1.923   1.419  -2.964  0.00  0.00    +0.102 C 
BRANCH  24  25
ATOM     25  C   UNL     1      -1.406   1.138  -4.351  0.00  0.00    +0.213 C 
ATOM     26  O   UNL     1      -1.563   0.043  -4.847  0.00  0.00    -0.276 OA
ATOM     27  N   UNL     1      -0.769   2.105  -5.042  0.00  0.00    -0.315 N 
ATOM     28  H   UNL     1      -0.627   3.099  -4.592  0.00  0.00    +0.149 HD
BRANCH  27  29
ATOM     29  C   UNL     1      -0.267   1.832  -6.391  0.00  0.00    +0.102 C 
BRANCH  29  30
ATOM     30  C   UNL     1       0.410   3.087  -6.946  0.00  0.00    +0.003 C 
BRANCH  30  31
ATOM     31  C   UNL     1       0.821   2.843  -8.400  0.00  0.00    -0.068 C 
ATOM     32  C   UNL     1       1.918   1.759  -8.460  0.00  0.00    -0.017 C 
ATOM     33  C   UNL     1       2.860   2.276  -9.579  0.00  0.00    -0.020 C 
ATOM     34  C   UNL     1       2.795   3.808  -9.359  0.00  0.00    -0.079 C 
ATOM     35  N   UNL     1       1.393   4.075  -8.972  0.00  0.00    +0.380 N 
ATOM     36  C   UNL     1       1.314   5.187  -8.015  0.00  0.00    -0.096 C 
ATOM     37  H   UNL     1       0.813   4.376  -9.857  0.00  0.00    -0.082 HD
ENDBRANCH  30  31
ENDBRANCH  29  30
ENDBRANCH  27  29
ENDBRANCH  24  25
ENDBRANCH  23  24
ENDBRANCH   2  23
TORSDOF 8
