REMARK  Name = ZINC19220544
REMARK  8 active torsions:
REMARK  status: ('A' for Active; 'I' for Inactive)
REMARK    1  A    between atoms: C_1  and  C_2
REMARK    2  A    between atoms: C_8  and  C_12
REMARK    3  A    between atoms: C_12  and  C_14
REMARK    4  A    between atoms: C_12  and  O_34
REMARK    5  A    between atoms: C_14  and  N_15
REMARK    6  A    between atoms: C_22  and  O_33
REMARK    7  A    between atoms: C_26  and  C_32
REMARK    8  A    between atoms: C_27  and  C_31
REMARK                            x       y       z     vdW  Elec       q    Type
REMARK                         _______ _______ _______ _____ _____    ______ ____
ROOT
ATOM      1  N   UNL     1       6.857   1.690  -1.490  0.00  0.00    +0.382 N 
ATOM      2  C   UNL     1       7.220   0.627  -0.544  0.00  0.00    -0.075 C 
ATOM      3  C   UNL     1       8.743   0.499  -0.478  0.00  0.00    +0.029 C 
ATOM      4  C   UNL     1       9.285   0.179  -1.872  0.00  0.00    +0.110 C 
ATOM      5  C   UNL     1       8.850   1.271  -2.851  0.00  0.00    +0.029 C 
ATOM      6  C   UNL     1       7.323   1.375  -2.846  0.00  0.00    -0.075 C 
ATOM      7  C   UNL     1      10.816   0.117  -1.824  0.00  0.00    +0.084 C 
ATOM      8  C   UNL     1      11.222  -0.906  -0.759  0.00  0.00    +0.152 C 
ATOM      9  C   UNL     1      10.438  -2.179  -0.954  0.00  0.00    +0.023 A 
ATOM     10  C   UNL     1      10.899  -3.343  -0.361  0.00  0.00    +0.013 A 
ATOM     11  C   UNL     1      10.203  -4.526  -0.514  0.00  0.00    -0.047 A 
ATOM     12  C   UNL     1       9.040  -4.551  -1.261  0.00  0.00    -0.044 A 
ATOM     13  C   UNL     1       8.576  -3.396  -1.854  0.00  0.00    +0.049 A 
ATOM     14  C   UNL     1       9.275  -2.202  -1.704  0.00  0.00    +0.127 A 
ATOM     15  O   UNL     1       8.790  -1.086  -2.307  0.00  0.00    -0.485 OA
ATOM     16  C   UNL     1       8.279  -5.842  -1.427  0.00  0.00    +0.044 C 
ATOM     17  C   UNL     1      10.710  -5.788   0.135  0.00  0.00    +0.044 C 
ATOM     18  H   UNL     1       7.361   2.613  -1.168  0.00  0.00    -0.082 HD
ENDROOT
BRANCH   8  19
ATOM     19  O   UNL     1      12.619  -1.185  -0.878  0.00  0.00    -0.387 OA
ATOM     20  H   UNL     1      13.097  -1.901  -0.193  0.00  0.00    +0.210 HD
ENDBRANCH   8  19
BRANCH   1  21
ATOM     21  C   UNL     1       5.409   1.936  -1.475  0.00  0.00    -0.042 C 
BRANCH  21  22
ATOM     22  C   UNL     1       4.945   2.166  -0.035  0.00  0.00    +0.130 C 
BRANCH  22  30
ATOM     23  C   UNL     1       1.120  -2.098   0.034  0.00  0.00    +0.044 C 
ATOM     24  C   UNL     1       1.155  -0.591   0.023  0.00  0.00    -0.050 A 
ATOM     25  C   UNL     1      -0.035   0.124   0.029  0.00  0.00    +0.005 A 
ATOM     26  C   UNL     1      -0.026   1.502   0.018  0.00  0.00    +0.026 A 
ATOM     27  C   UNL     1       1.186   2.185   0.001  0.00  0.00    +0.047 A 
ATOM     28  C   UNL     1       2.388   1.455  -0.005  0.00  0.00    +0.005 A 
ATOM     29  C   UNL     1       2.356   0.059   0.006  0.00  0.00    +0.013 A 
ATOM     30  C   UNL     1       3.465   2.448  -0.023  0.00  0.00    +0.004 A 
ATOM     31  C   UNL     1       2.883   3.658  -0.026  0.00  0.00    +0.089 A 
ATOM     32  N   UNL     1       1.521   3.520  -0.012  0.00  0.00    -0.360 N 
ATOM     33  H   UNL     1       0.731   4.286  -0.010  0.00  0.00    +0.165 HD
ENDBRANCH  22  30
BRANCH  22  34
ATOM     34  O   UNL     1       5.647   3.280   0.519  0.00  0.00    -0.389 OA
ATOM     35  H   UNL     1       6.744   3.257   0.594  0.00  0.00    +0.210 HD
ENDBRANCH  22  34
ENDBRANCH  21  22
ENDBRANCH   1  21
TORSDOF 5
