REMARK  Name = ZINC57121247
REMARK  10 active torsions:
REMARK  status: ('A' for Active; 'I' for Inactive)
REMARK    1  A    between atoms: C_1  and  C_2
REMARK    2  A    between atoms: C_2  and  C_3
REMARK    3  A    between atoms: C_3  and  C_5
REMARK    4  A    between atoms: C_3  and  N_6
REMARK    5  A    between atoms: C_7  and  C_9
REMARK    6  A    between atoms: C_12  and  N_15
REMARK    7  A    between atoms: N_15  and  S_16
REMARK    8  A    between atoms: S_16  and  C_19
REMARK    9  A    between atoms: C_21  and  C_27
REMARK   10  A    between atoms: C_22  and  C_24
REMARK                            x       y       z     vdW  Elec       q    Type
REMARK                         _______ _______ _______ _____ _____    ______ ____
ROOT
ATOM      1  C   UNL     1      -0.217   0.414  -4.823  0.00  0.00    +0.037 A 
ATOM      2  C   UNL     1      -1.593   0.639  -4.718  0.00  0.00    +0.015 A 
ATOM      3  C   UNL     1      -2.317   1.000  -5.832  0.00  0.00    +0.027 A 
ATOM      4  C   UNL     1      -1.680   1.140  -7.062  0.00  0.00    +0.074 A 
ATOM      5  C   UNL     1      -0.310   0.916  -7.170  0.00  0.00    +0.027 A 
ATOM      6  C   UNL     1       0.420   0.562  -6.058  0.00  0.00    +0.015 A 
ENDROOT
BRANCH   1   8
ATOM      7  N   UNL     1      -0.055  -0.114  -2.441  0.00  0.00    -0.309 N 
ATOM      8  C   UNL     1       0.561   0.028  -3.631  0.00  0.00    +0.244 C 
ATOM      9  O   UNL     1       1.758  -0.163  -3.722  0.00  0.00    -0.270 OA
ATOM     10  H   UNL     1      -1.010   0.038  -2.368  0.00  0.00    +0.149 HD
BRANCH   7  11
ATOM     11  C   UNL     1       0.718  -0.497  -1.257  0.00  0.00    +0.070 C 
ATOM     12  C   UNL     1       0.849  -2.021  -1.205  0.00  0.00    +0.028 C 
BRANCH  11  14
ATOM     13  C   UNL     1      -0.019   1.526   0.010  0.00  0.00    +0.005 C 
ATOM     14  C   UNL     1       0.002  -0.004   0.002  0.00  0.00    +0.018 C 
ENDBRANCH  11  14
ENDBRANCH   7  11
ENDBRANCH   1   8
BRANCH   4  15
ATOM     15  N   UNL     1      -2.414   1.504  -8.185  0.00  0.00    -0.097 NA
BRANCH  15  16
ATOM     16  S   UNL     1      -1.658   1.672  -9.649  0.00  0.00    +0.098 S 
ATOM     17  O   UNL     1      -0.776   2.780  -9.527  0.00  0.00    -0.148 OA
ATOM     18  O   UNL     1      -1.207   0.378 -10.024  0.00  0.00    -0.148 OA
BRANCH  16  19
ATOM     19  C   UNL     1      -2.889   2.135 -10.821  0.00  0.00    +0.149 A 
ATOM     20  C   UNL     1      -3.283   3.388 -11.166  0.00  0.00    +0.041 A 
ATOM     21  C   UNL     1      -4.267   3.542 -12.110  0.00  0.00    -0.027 A 
ATOM     22  C   UNL     1      -4.784   2.366 -12.640  0.00  0.00    +0.105 A 
ATOM     23  S   UNL     1      -3.840   1.128 -11.773  0.00  0.00    -0.061 S 
ATOM     24  C   UNL     1      -4.757   4.900 -12.543  0.00  0.00    +0.045 C 
BRANCH  22  25
ATOM     25  C   UNL     1      -5.796   2.196 -13.618  0.00  0.00    +0.393 C 
ATOM     26  O   UNL     1      -6.339   3.176 -14.115  0.00  0.00    -0.240 OA
ATOM     27  O   UNL     1      -6.127   1.070 -13.968  0.00  0.00    -0.240 OA
ENDBRANCH  22  25
ENDBRANCH  16  19
ENDBRANCH  15  16
ENDBRANCH   4  15
TORSDOF 7
