REMARK  Name = ZINC49601562
REMARK  17 active torsions:
REMARK  status: ('A' for Active; 'I' for Inactive)
REMARK    1  A    between atoms: C_1  and  C_2
REMARK    2  A    between atoms: C_3  and  O_33
REMARK    3  A    between atoms: C_4  and  C_32
REMARK    4  A    between atoms: C_8  and  C_9
REMARK    5  A    between atoms: C_9  and  C_10
REMARK    6  A    between atoms: C_9  and  C_11
REMARK    7  A    between atoms: C_9  and  O_31
REMARK    8  A    between atoms: C_12  and  C_13
REMARK    9  A    between atoms: C_12  and  C_14
REMARK   10  A    between atoms: C_14  and  C_16
REMARK   11  A    between atoms: C_14  and  O_30
REMARK   12  A    between atoms: C_16  and  C_29
REMARK   13  A    between atoms: C_17  and  C_18
REMARK   14  A    between atoms: C_18  and  C_28
REMARK   15  A    between atoms: C_21  and  C_27
REMARK   16  A    between atoms: C_23  and  C_26
REMARK   17  A    between atoms: O_33  and  C_34
REMARK                            x       y       z     vdW  Elec       q    Type
REMARK                         _______ _______ _______ _____ _____    ______ ____
ROOT
ATOM      1  C   UNL     1      -2.143   0.444   2.710  0.00  0.00    +0.016 C 
ATOM      2  C   UNL     1      -2.323  -0.189   3.842  0.00  0.00    -0.041 C 
ATOM      3  C   UNL     1      -1.135  -0.613   4.667  0.00  0.00    +0.042 C 
ENDROOT
BRANCH   1   4
ATOM      4  C   UNL     1      -0.752   0.611   2.154  0.00  0.00    +0.139 C 
ATOM      5  C   UNL     1      -0.148   1.916   2.676  0.00  0.00    +0.054 C 
BRANCH   4  13
ATOM      6  C   UNL     1       1.410  -0.427   0.629  0.00  0.00    +0.051 C 
ATOM      7  C   UNL     1       0.211   0.161  -0.070  0.00  0.00    +0.033 A 
ATOM      8  C   UNL     1       0.158   0.191  -1.482  0.00  0.00    +0.136 A 
ATOM      9  C   UNL     1      -0.956   0.738  -2.092  0.00  0.00    +0.076 A 
ATOM     10  C   UNL     1      -1.988   1.240  -1.290  0.00  0.00    +0.343 A 
ATOM     11  O   UNL     1      -2.980   1.725  -1.809  0.00  0.00    -0.245 OA
ATOM     12  O   UNL     1      -1.889   1.187   0.049  0.00  0.00    -0.423 OA
ATOM     13  C   UNL     1      -0.815   0.654   0.649  0.00  0.00    +0.150 A 
ATOM     14  C   UNL     1      -1.057   0.792  -3.595  0.00  0.00    +0.055 C 
BRANCH   8  15
ATOM     15  O   UNL     1       1.178  -0.304  -2.222  0.00  0.00    -0.494 OA
ATOM     16  C   UNL     1       1.407  -1.713  -2.150  0.00  0.00    +0.277 C 
ENDBRANCH   8  15
ENDBRANCH   4  13
BRANCH   4  17
ATOM     17  O   UNL     1       0.062  -0.489   2.566  0.00  0.00    -0.377 OA
ATOM     18  H   UNL     1      -0.223  -1.343   2.212  0.00  0.00    +0.211 HD
ENDBRANCH   4  17
ENDBRANCH   1   4
BRANCH   2  19
ATOM     19  C   UNL     1      -3.719  -0.494   4.321  0.00  0.00    +0.166 C 
BRANCH  19  20
ATOM     20  C   UNL     1      -3.957  -1.981   4.263  0.00  0.00    -0.042 C 
ATOM     21  C   UNL     1      -4.797  -2.477   3.388  0.00  0.00    +0.012 C 
ATOM     22  C   UNL     1      -3.228  -2.898   5.211  0.00  0.00    +0.042 C 
BRANCH  21  23
ATOM     23  C   UNL     1      -5.154  -3.940   3.432  0.00  0.00    +0.114 C 
ATOM     24  C   UNL     1      -6.634  -4.145   3.039  0.00  0.00    +0.189 C 
ATOM     25  C   UNL     1      -7.112  -5.288   3.962  0.00  0.00    +0.122 C 
ATOM     26  O   UNL     1      -7.018  -5.414   2.506  0.00  0.00    -0.359 OA
ATOM     27  C   UNL     1      -5.865  -5.639   4.803  0.00  0.00    +0.151 C 
ATOM     28  O   UNL     1      -5.058  -4.441   4.783  0.00  0.00    -0.361 OA
ATOM     29  C   UNL     1      -6.270  -5.987   6.236  0.00  0.00    +0.041 C 
ATOM     30  C   UNL     1      -8.479  -5.284   4.649  0.00  0.00    +0.047 C 
ATOM     31  C   UNL     1      -4.238  -4.739   2.501  0.00  0.00    +0.049 C 
ENDBRANCH  21  23
ENDBRANCH  19  20
BRANCH  19  32
ATOM     32  O   UNL     1      -3.871  -0.040   5.667  0.00  0.00    -0.383 OA
ATOM     33  H   UNL     1      -3.259  -0.451   6.293  0.00  0.00    +0.211 HD
ENDBRANCH  19  32
ENDBRANCH   2  19
TORSDOF 8
