REMARK  Name = ZINC08918599
REMARK  7 active torsions:
REMARK  status: ('A' for Active; 'I' for Inactive)
REMARK    1  A    between atoms: C_1  and  C_2
REMARK    2  A    between atoms: C_2  and  C_27
REMARK    3  A    between atoms: C_10  and  C_16
REMARK    4  A    between atoms: C_12  and  O_15
REMARK    5  A    between atoms: C_17  and  C_18
REMARK    6  A    between atoms: C_22  and  O_24
REMARK    7  A    between atoms: O_24  and  C_25
REMARK                            x       y       z     vdW  Elec       q    Type
REMARK                         _______ _______ _______ _____ _____    ______ ____
ROOT
ATOM      1  C   UNL     1      -0.019   1.526   0.010  0.00  0.00    +0.020 C 
ATOM      2  C   UNL     1       0.002  -0.004   0.002  0.00  0.00    +0.037 C 
ATOM      3  C   UNL     1      -1.403  -0.554   0.140  0.00  0.00    -0.015 A 
ATOM      4  C   UNL     1      -2.539  -0.333  -0.612  0.00  0.00    +0.021 A 
ATOM      5  C   UNL     1      -3.731  -0.946  -0.269  0.00  0.00    +0.018 A 
ATOM      6  C   UNL     1      -3.781  -1.784   0.831  0.00  0.00    +0.017 A 
ATOM      7  C   UNL     1      -2.647  -2.014   1.580  0.00  0.00    +0.024 A 
ATOM      8  C   UNL     1      -1.438  -1.406   1.236  0.00  0.00    +0.036 A 
ATOM      9  N   UNL     1      -0.182  -1.532   1.814  0.00  0.00    -0.301 N 
ATOM     10  C   UNL     1       0.738  -0.537   1.235  0.00  0.00    +0.159 C 
ATOM     11  N   UNL     1       1.976  -1.224   0.887  0.00  0.00    -0.224 NA
ATOM     12  C   UNL     1       2.269  -2.392   1.304  0.00  0.00    +0.186 C 
ATOM     13  C   UNL     1       1.428  -3.283   2.163  0.00  0.00    +0.114 C 
ATOM     14  C   UNL     1       0.278  -2.504   2.817  0.00  0.00    +0.117 C 
ATOM     15 BR   UNL     1      -5.286  -0.641  -1.301  0.00  0.00    -0.050 Br
ATOM     16  C   UNL     1       0.659  -0.522  -1.279  0.00  0.00    +0.020 C 
ENDROOT
BRANCH  12  17
ATOM     17  O   UNL     1       3.470  -2.879   0.930  0.00  0.00    -0.496 OA
ATOM     18  H   UNL     1       3.984  -2.275   0.376  0.00  0.00    +0.293 HD
ENDBRANCH  12  17
BRANCH  10  19
ATOM     19  C   UNL     1       0.995   0.578   2.216  0.00  0.00    +0.024 C 
ATOM     20  C   UNL     1       0.495   0.510   3.442  0.00  0.00    +0.008 C 
BRANCH  20  21
ATOM     21  C   UNL     1       0.747   1.603   4.404  0.00  0.00    -0.022 A 
ATOM     22  C   UNL     1       1.507   2.710   4.024  0.00  0.00    +0.008 A 
ATOM     23  C   UNL     1       1.740   3.729   4.925  0.00  0.00    +0.004 A 
ATOM     24  C   UNL     1       1.223   3.657   6.205  0.00  0.00    +0.045 A 
ATOM     25  C   UNL     1       0.466   2.560   6.593  0.00  0.00    +0.121 A 
ATOM     26  C   UNL     1       0.221   1.535   5.694  0.00  0.00    +0.053 A 
BRANCH  25  27
ATOM     27  O   UNL     1      -0.039   2.494   7.852  0.00  0.00    -0.495 OA
ATOM     28  C   UNL     1       0.248   3.589   8.725  0.00  0.00    +0.277 C 
ENDBRANCH  25  27
ENDBRANCH  20  21
ENDBRANCH  10  19
TORSDOF 4
