REMARK  Name = ZINC26980733
REMARK  9 active torsions:
REMARK  status: ('A' for Active; 'I' for Inactive)
REMARK    1  A    between atoms: C_1  and  C_2
REMARK    2  A    between atoms: C_4  and  C_34
REMARK    3  A    between atoms: C_5  and  N_9
REMARK    4  A    between atoms: C_10  and  C_12
REMARK    5  A    between atoms: C_12  and  C_14
REMARK    6  A    between atoms: C_12  and  S_15
REMARK    7  A    between atoms: S_15  and  C_16
REMARK    8  A    between atoms: C_19  and  C_24
REMARK    9  A    between atoms: N_20  and  C_21
REMARK                            x       y       z     vdW  Elec       q    Type
REMARK                         _______ _______ _______ _____ _____    ______ ____
ROOT
ATOM      1  C   UNL     1       1.521   0.381  -7.464  0.00  0.00    +0.193 A 
ATOM      2  N   UNL     1       1.058   1.584  -7.215  0.00  0.00    -0.122 NA
ATOM      3  N   UNL     1       1.276   2.358  -8.217  0.00  0.00    -0.128 NA
ATOM      4  C   UNL     1       1.891   1.696  -9.171  0.00  0.00    +0.167 A 
ATOM      5  N   UNL     1       2.072   0.410  -8.716  0.00  0.00    -0.299 N 
ENDROOT
BRANCH   4   6
ATOM      6  C   UNL     1       2.313   2.232 -10.480  0.00  0.00    +0.044 A 
ATOM      7  C   UNL     1       3.054   1.589 -11.419  0.00  0.00    +0.095 A 
ATOM      8  N   UNL     1       3.241   2.405 -12.497  0.00  0.00    -0.360 N 
ATOM      9  H   UNL     1       3.822   2.051 -13.361  0.00  0.00    +0.165 HD
ATOM     10  C   UNL     1       2.620   3.618 -12.289  0.00  0.00    +0.047 A 
ATOM     11  C   UNL     1       2.007   3.566 -11.025  0.00  0.00    +0.010 A 
ATOM     12  C   UNL     1       1.304   4.668 -10.545  0.00  0.00    +0.011 A 
ATOM     13  C   UNL     1       1.204   5.803 -11.319  0.00  0.00    +0.001 A 
ATOM     14  C   UNL     1       1.803   5.854 -12.569  0.00  0.00    +0.002 A 
ATOM     15  C   UNL     1       2.506   4.774 -13.055  0.00  0.00    +0.026 A 
ENDBRANCH   4   6
BRANCH   5  16
ATOM     16  C   UNL     1       2.718  -0.697  -9.425  0.00  0.00    +0.091 C 
ATOM     17  C   UNL     1       2.729  -2.064  -8.739  0.00  0.00    +0.027 C 
ATOM     18  C   UNL     1       4.019  -1.248  -8.838  0.00  0.00    +0.027 C 
ENDBRANCH   5  16
BRANCH   1  19
ATOM     19  S   UNL     1       1.450  -1.010  -6.385  0.00  0.00    -0.073 S 
BRANCH  19  20
ATOM     20  C   UNL     1       0.605  -0.266  -4.968  0.00  0.00    +0.137 C 
ATOM     21  C   UNL     1      -0.813   0.139  -5.375  0.00  0.00    +0.029 C 
BRANCH  20  23
ATOM     22  N   UNL     1       0.333  -0.843  -2.578  0.00  0.00    -0.283 N 
ATOM     23  C   UNL     1       0.539  -1.264  -3.841  0.00  0.00    +0.230 C 
ATOM     24  O   UNL     1       0.671  -2.448  -4.072  0.00  0.00    -0.274 OA
ATOM     25  H   UNL     1       0.155   0.224  -2.377  0.00  0.00    +0.155 HD
BRANCH  22  30
ATOM     26  C   UNL     1       0.376  -4.576   1.695  0.00  0.00    +0.044 C 
ATOM     27  C   UNL     1       0.367  -3.583   0.561  0.00  0.00    -0.049 A 
ATOM     28  C   UNL     1      -0.590  -2.585   0.526  0.00  0.00    +0.008 A 
ATOM     29  C   UNL     1      -0.601  -1.673  -0.511  0.00  0.00    -0.028 A 
ATOM     30  C   UNL     1       0.346  -1.762  -1.522  0.00  0.00    +0.055 A 
ATOM     31  C   UNL     1       1.310  -2.761  -1.481  0.00  0.00    +0.063 A 
ATOM     32  C   UNL     1       1.315  -3.671  -0.441  0.00  0.00    +0.025 A 
ATOM     33 CL   UNL     1       2.502  -2.872  -2.739  0.00  0.00    -0.082 Cl
ATOM     34  C   UNL     1      -1.644  -0.586  -0.548  0.00  0.00    +0.046 C 
ENDBRANCH  22  30
ENDBRANCH  20  23
ENDBRANCH  19  20
ENDBRANCH   1  19
TORSDOF 6
