REMARK  Name = ZINC13810903
REMARK  7 active torsions:
REMARK  status: ('A' for Active; 'I' for Inactive)
REMARK    1  A    between atoms: C_1  and  C_2
REMARK    2  A    between atoms: C_9  and  O_27
REMARK    3  A    between atoms: C_10  and  C_13
REMARK    4  A    between atoms: C_14  and  C_15
REMARK    5  A    between atoms: C_14  and  S_17
REMARK    6  A    between atoms: S_17  and  C_20
REMARK    7  A    between atoms: O_27  and  C_28
REMARK                            x       y       z     vdW  Elec       q    Type
REMARK                         _______ _______ _______ _____ _____    ______ ____
ROOT
ATOM      1  C   UNL     1      -2.385   5.593  -7.744  0.00  0.00    +0.047 C 
ATOM      2  C   UNL     1      -3.040   4.558  -6.867  0.00  0.00    -0.007 A 
ATOM      3  C   UNL     1      -4.253   4.036  -7.209  0.00  0.00    +0.008 A 
ATOM      4  C   UNL     1      -4.850   3.075  -6.382  0.00  0.00    +0.019 A 
ATOM      5  C   UNL     1      -4.226   2.669  -5.254  0.00  0.00    +0.096 A 
ATOM      6  N   UNL     1      -3.013   3.184  -4.904  0.00  0.00    -0.267 N 
ATOM      7  C   UNL     1      -2.406   4.123  -5.689  0.00  0.00    +0.147 A 
ATOM      8  N   UNL     1      -1.220   4.638  -5.362  0.00  0.00    -0.194 NA
ATOM      9  C   UNL     1      -0.579   4.265  -4.266  0.00  0.00    +0.235 A 
ATOM     10  C   UNL     1      -1.157   3.299  -3.415  0.00  0.00    +0.104 A 
ATOM     11  C   UNL     1      -2.413   2.753  -3.773  0.00  0.00    +0.269 A 
ATOM     12  O   UNL     1      -2.946   1.912  -3.070  0.00  0.00    -0.266 OA
ENDROOT
BRANCH  10  13
ATOM     13  C   UNL     1      -0.493   2.880  -2.234  0.00  0.00    +0.057 C 
ATOM     14  C   UNL     1       0.762   2.371  -2.306  0.00  0.00    +0.171 C 
BRANCH  14  15
ATOM     15  S   UNL     1       1.647   1.998  -0.829  0.00  0.00    +0.035 S 
ATOM     16  O   UNL     1       2.935   2.584  -0.968  0.00  0.00    -0.164 OA
ATOM     17  O   UNL     1       0.781   2.311   0.253  0.00  0.00    -0.164 OA
BRANCH  15  18
ATOM     18  C   UNL     1       1.889   0.253  -0.793  0.00  0.00    +0.094 A 
ATOM     19  C   UNL     1       0.951  -0.562  -0.187  0.00  0.00    +0.029 A 
ATOM     20  C   UNL     1       1.137  -1.931  -0.163  0.00  0.00    +0.022 A 
ATOM     21  C   UNL     1       2.268  -2.485  -0.736  0.00  0.00    +0.041 A 
ATOM     22  C   UNL     1       3.209  -1.669  -1.338  0.00  0.00    +0.022 A 
ATOM     23  C   UNL     1       3.019  -0.300  -1.366  0.00  0.00    +0.029 A 
ATOM     24 CL   UNL     1       2.506  -4.205  -0.701  0.00  0.00    -0.084 Cl
ENDBRANCH  15  18
ENDBRANCH  14  15
BRANCH  14  25
ATOM     25  C   UNL     1       1.368   2.137  -3.582  0.00  0.00    +0.119 C 
ATOM     26  N   UNL     1       1.848   1.951  -4.595  0.00  0.00    -0.189 NA
ENDBRANCH  14  25
ENDBRANCH  10  13
BRANCH   9  27
ATOM     27  O   UNL     1       0.622   4.806  -3.963  0.00  0.00    -0.436 OA
BRANCH  27  28
ATOM     28  C   UNL     1       1.083   5.817  -4.746  0.00  0.00    +0.149 A 
ATOM     29  C   UNL     1       1.939   5.543  -5.803  0.00  0.00    +0.048 A 
ATOM     30  C   UNL     1       2.402   6.571  -6.600  0.00  0.00    +0.004 A 
ATOM     31  C   UNL     1       2.022   7.875  -6.341  0.00  0.00    +0.002 A 
ATOM     32  C   UNL     1       1.172   8.152  -5.286  0.00  0.00    +0.024 A 
ATOM     33  C   UNL     1       0.701   7.127  -4.488  0.00  0.00    +0.083 A 
ATOM     34 CL   UNL     1      -0.365   7.476  -3.163  0.00  0.00    -0.080 Cl
ENDBRANCH  27  28
ENDBRANCH   9  27
TORSDOF 6
