REMARK  Name = ZINC28052749
REMARK  8 active torsions:
REMARK  status: ('A' for Active; 'I' for Inactive)
REMARK    1  A    between atoms: C_1  and  C_2
REMARK    2  A    between atoms: C_7  and  C_8
REMARK    3  A    between atoms: C_11  and  C_34
REMARK    4  A    between atoms: C_21  and  C_24
REMARK    5  A    between atoms: C_26  and  O_32
REMARK    6  A    between atoms: C_29  and  O_30
REMARK    7  A    between atoms: O_30  and  C_31
REMARK    8  A    between atoms: O_32  and  C_33
REMARK                            x       y       z     vdW  Elec       q    Type
REMARK                         _______ _______ _______ _____ _____    ______ ____
ROOT
ATOM      1  C   UNL     1      -1.097   1.917   0.096  0.00  0.00    +0.091 C 
ATOM      2  C   UNL     1      -0.300   0.653   0.166  0.00  0.00    +0.049 A 
ATOM      3  C   UNL     1      -0.668  -0.688   0.213  0.00  0.00    +0.087 A 
ATOM      4  N   UNL     1       0.448  -1.371   0.275  0.00  0.00    -0.081 NA
ATOM      5  O   UNL     1       1.424  -0.645   0.274  0.00  0.00    -0.339 OA
ATOM      6  C   UNL     1       1.071   0.634   0.206  0.00  0.00    +0.226 A 
ATOM      7  N   UNL     1       1.802   1.804   0.170  0.00  0.00    -0.286 N 
ATOM      8  C   UNL     1       1.166   2.965  -0.199  0.00  0.00    +0.019 C 
ATOM      9  C   UNL     1      -0.179   3.072  -0.251  0.00  0.00    +0.024 C 
ATOM     10  C   UNL     1      -0.795   4.279  -0.628  0.00  0.00    +0.162 C 
ATOM     11  O   UNL     1      -2.007   4.334  -0.686  0.00  0.00    -0.292 OA
ATOM     12  C   UNL     1       0.013   5.503  -0.961  0.00  0.00    +0.088 C 
ATOM     13  C   UNL     1       1.339   5.446  -0.195  0.00  0.00    +0.036 C 
ATOM     14  C   UNL     1       2.048   4.140  -0.558  0.00  0.00    +0.060 C 
ATOM     15  C   UNL     1      -2.069  -1.244   0.195  0.00  0.00    +0.069 C 
ATOM     16  H   UNL     1       2.870   1.793   0.433  0.00  0.00    +0.155 HD
ENDROOT
BRANCH   1  23
ATOM     17  C   UNL     1      -3.977   1.953   0.312  0.00  0.00    +0.044 C 
ATOM     18  C   UNL     1      -3.127   2.192   1.533  0.00  0.00    -0.046 A 
ATOM     19  C   UNL     1      -3.725   2.423   2.758  0.00  0.00    +0.003 A 
ATOM     20  C   UNL     1      -2.945   2.648   3.877  0.00  0.00    +0.000 A 
ATOM     21  C   UNL     1      -1.567   2.636   3.772  0.00  0.00    +0.000 A 
ATOM     22  C   UNL     1      -0.969   2.399   2.549  0.00  0.00    +0.005 A 
ATOM     23  C   UNL     1      -1.749   2.174   1.430  0.00  0.00    -0.032 A 
ENDBRANCH   1  23
BRANCH  13  24
ATOM     24  C   UNL     1       2.201   6.618  -0.586  0.00  0.00    +0.002 A 
ATOM     25  C   UNL     1       2.587   6.783  -1.902  0.00  0.00    +0.053 A 
ATOM     26  C   UNL     1       3.381   7.862  -2.262  0.00  0.00    +0.121 A 
ATOM     27  C   UNL     1       3.787   8.775  -1.300  0.00  0.00    +0.049 A 
ATOM     28  C   UNL     1       3.401   8.610   0.016  0.00  0.00    +0.049 A 
ATOM     29  C   UNL     1       2.604   7.534   0.375  0.00  0.00    +0.124 A 
BRANCH  29  30
ATOM     30  O   UNL     1       2.220   7.374   1.669  0.00  0.00    -0.495 OA
ATOM     31  C   UNL     1       2.670   8.355   2.606  0.00  0.00    +0.277 C 
ENDBRANCH  29  30
BRANCH  26  32
ATOM     32  O   UNL     1       3.760   8.025  -3.558  0.00  0.00    -0.495 OA
ATOM     33  C   UNL     1       4.577   9.159  -3.857  0.00  0.00    +0.277 C 
ENDBRANCH  26  32
ENDBRANCH  13  24
TORSDOF 4
