REMARK  Name = ZINC64938759
REMARK  8 active torsions:
REMARK  status: ('A' for Active; 'I' for Inactive)
REMARK    1  A    between atoms: C_1  and  C_2
REMARK    2  A    between atoms: C_2  and  C_3
REMARK    3  A    between atoms: C_3  and  C_4
REMARK    4  A    between atoms: C_4  and  C_5
REMARK    5  A    between atoms: C_5  and  N_6
REMARK    6  A    between atoms: N_9  and  N_10
REMARK    7  A    between atoms: N_10  and  S_11
REMARK    8  A    between atoms: S_11  and  C_14
REMARK                            x       y       z     vdW  Elec       q    Type
REMARK                         _______ _______ _______ _____ _____    ______ ____
ROOT
ATOM      1  N   UNL     1      -2.745  -6.779  -0.008  0.00  0.00    -0.107 NA
ATOM      2  H   UNL     1      -2.093  -6.592  -0.702  0.00  0.00    +0.172 HD
ENDROOT
BRANCH   1   6
ATOM      3  N   UNL     1      -2.828  -4.058   0.007  0.00  0.00    -0.298 N 
ATOM      4  C   UNL     1      -3.986  -4.748   0.015  0.00  0.00    +0.315 C 
ATOM      5  O   UNL     1      -5.047  -4.154   0.028  0.00  0.00    -0.251 OA
ATOM      6  N   UNL     1      -3.968  -6.095   0.007  0.00  0.00    -0.216 N 
ATOM      7  H   UNL     1      -1.982  -4.531  -0.003  0.00  0.00    +0.150 HD
ATOM      8  H   UNL     1      -4.801  -6.592   0.013  0.00  0.00    +0.172 HD
BRANCH   3   9
ATOM      9  C   UNL     1      -2.848  -2.593   0.015  0.00  0.00    +0.106 C 
BRANCH   9  10
ATOM     10  C   UNL     1      -1.413  -2.063   0.004  0.00  0.00    +0.019 C 
BRANCH  10  11
ATOM     11  C   UNL     1      -1.433  -0.534   0.013  0.00  0.00    +0.001 C 
BRANCH  11  13
ATOM     12  C   UNL     1      -0.019   1.526   0.010  0.00  0.00    +0.004 C 
ATOM     13  C   UNL     1       0.002  -0.004   0.002  0.00  0.00    -0.003 C 
ENDBRANCH  11  13
ENDBRANCH  10  11
ENDBRANCH   9  10
ENDBRANCH   3   9
ENDBRANCH   1   6
BRANCH   1  14
ATOM     14  S   UNL     1      -2.413  -7.907   1.157  0.00  0.00    +0.074 S 
ATOM     15  O   UNL     1      -1.183  -8.518   0.792  0.00  0.00    -0.152 OA
ATOM     16  O   UNL     1      -2.602  -7.265   2.411  0.00  0.00    -0.152 OA
BRANCH  14  17
ATOM     17  C   UNL     1      -3.650  -9.157   1.041  0.00  0.00    +0.107 A 
ATOM     18  C   UNL     1      -4.821  -9.044   1.768  0.00  0.00    +0.029 A 
ATOM     19  C   UNL     1      -5.783 -10.027   1.673  0.00  0.00    +0.006 A 
ATOM     20  C   UNL     1      -5.587 -11.131   0.852  0.00  0.00    -0.044 A 
ATOM     21  C   UNL     1      -4.423 -11.241   0.125  0.00  0.00    -0.042 A 
ATOM     22  C   UNL     1      -3.456 -10.248   0.220  0.00  0.00    +0.032 A 
ATOM     23  C   UNL     1      -4.150 -12.401  -0.797  0.00  0.00    +0.035 C 
ATOM     24  C   UNL     1      -5.073 -13.573  -0.473  0.00  0.00    +0.005 C 
ATOM     25  C   UNL     1      -6.516 -13.056  -0.431  0.00  0.00    +0.005 C 
ATOM     26  C   UNL     1      -6.675 -12.171   0.803  0.00  0.00    +0.035 C 
ENDBRANCH  14  17
ENDBRANCH   1  14
TORSDOF 7
