REMARK  Name = ZINC34831754
REMARK  4 active torsions:
REMARK  status: ('A' for Active; 'I' for Inactive)
REMARK    1  A    between atoms: C_1  and  C_2
REMARK    2  A    between atoms: C_7  and  C_10
REMARK    3  A    between atoms: C_11  and  C_13
REMARK    4  A    between atoms: C_23  and  C_25
REMARK                            x       y       z     vdW  Elec       q    Type
REMARK                         _______ _______ _______ _____ _____    ______ ____
ROOT
ATOM      1  C   UNL     1       4.167   0.958  -1.992  0.00  0.00    +0.152 A 
ATOM      2  C   UNL     1       4.917   1.721  -2.901  0.00  0.00    +0.023 A 
ATOM      3  C   UNL     1       6.133   1.900  -2.328  0.00  0.00    +0.043 A 
ATOM      4  N   UNL     1       6.106   1.270  -1.141  0.00  0.00    -0.280 N 
ATOM      5  H   UNL     1       6.846   1.231  -0.515  0.00  0.00    +0.189 HD
ATOM      6  N   UNL     1       4.951   0.730  -0.952  0.00  0.00    -0.169 NA
ATOM      7  C   UNL     1       7.261   2.676  -2.956  0.00  0.00    +0.074 C 
ATOM      8  C   UNL     1       6.985   2.820  -4.458  0.00  0.00    +0.114 C 
ATOM      9  N   UNL     1       5.581   3.209  -4.660  0.00  0.00    -0.296 N 
ATOM     10  C   UNL     1       4.526   2.262  -4.250  0.00  0.00    +0.147 C 
ATOM     11  C   UNL     1       5.266   4.400  -5.206  0.00  0.00    +0.219 C 
ATOM     12  O   UNL     1       4.104   4.705  -5.366  0.00  0.00    -0.275 OA
ENDROOT
BRANCH   1  21
ATOM     13  C   UNL     1      -0.041   1.542  -0.027  0.00  0.00    +0.039 C 
ATOM     14  C   UNL     1      -0.012   0.013  -0.012  0.00  0.00    +0.133 C 
ATOM     15  C   UNL     1       0.720  -0.497  -1.259  0.00  0.00    +0.139 C 
ATOM     16  N   UNL     1       2.139  -0.123  -1.149  0.00  0.00    -0.291 N 
ATOM     17  C   UNL     1       2.848  -0.454   0.098  0.00  0.00    +0.139 C 
ATOM     18  C   UNL     1       2.012   0.054   1.278  0.00  0.00    +0.133 C 
ATOM     19  O   UNL     1       0.675  -0.440   1.157  0.00  0.00    -0.371 OA
ATOM     20  C   UNL     1       2.624  -0.442   2.589  0.00  0.00    +0.039 C 
ATOM     21  C   UNL     1       2.771   0.504  -2.161  0.00  0.00    +0.267 C 
ATOM     22  O   UNL     1       2.193   0.696  -3.213  0.00  0.00    -0.268 OA
ENDBRANCH   1  21
BRANCH  11  23
ATOM     23  C   UNL     1       6.359   5.352  -5.618  0.00  0.00    +0.075 C 
ATOM     24  C   UNL     1       6.510   6.645  -4.814  0.00  0.00    +0.013 C 
ATOM     25  C   UNL     1       5.937   6.689  -6.232  0.00  0.00    +0.013 C 
ENDBRANCH  11  23
TORSDOF 2
