REMARK  Name = ZINC20478125
REMARK  5 active torsions:
REMARK  status: ('A' for Active; 'I' for Inactive)
REMARK    1  A    between atoms: C_1  and  C_2
REMARK    2  A    between atoms: C_12  and  C_14
REMARK    3  A    between atoms: N_21  and  C_22
REMARK    4  A    between atoms: C_22  and  C_23
REMARK    5  A    between atoms: C_23  and  C_24
REMARK                            x       y       z     vdW  Elec       q    Type
REMARK                         _______ _______ _______ _____ _____    ______ ____
ROOT
ATOM      1  C   UNL     1      -0.013   1.086   0.008  0.00  0.00    +0.066 C 
ATOM      2  C   UNL     1      -0.718   1.572   1.248  0.00  0.00    +0.047 C 
ATOM      3  C   UNL     1      -0.006   1.802   2.389  0.00  0.00    +0.091 C 
ATOM      4  C   UNL     1      -0.683   2.261   3.535  0.00  0.00    +0.249 C 
ATOM      5  O   UNL     1      -0.080   2.469   4.575  0.00  0.00    -0.270 OA
ATOM      6  N   UNL     1      -2.010   2.465   3.456  0.00  0.00    -0.211 N 
ATOM      7  C   UNL     1      -2.672   2.200   2.291  0.00  0.00    +0.229 C 
ATOM      8  N   UNL     1      -2.035   1.781   1.224  0.00  0.00    -0.219 NA
ATOM      9  N   UNL     1      -4.041   2.391   2.290  0.00  0.00    -0.183 NA
ATOM     10  C   UNL     1      -4.703   2.087   3.475  0.00  0.00    +0.194 C 
ATOM     11  N   UNL     1      -4.102   2.351   4.606  0.00  0.00    -0.335 N 
ATOM     12  C   UNL     1      -2.776   2.983   4.594  0.00  0.00    +0.211 C 
ATOM     13  N   UNL     1      -5.957   1.523   3.457  0.00  0.00    -0.315 N 
ATOM     14  H   UNL     1      -6.449   1.307   2.498  0.00  0.00    +0.149 HD
ATOM     15  H   UNL     1      -4.589   2.100   5.559  0.00  0.00    +0.164 HD
ENDROOT
BRANCH  12  16
ATOM     16  C   UNL     1      -2.931   4.476   4.459  0.00  0.00    -0.007 A 
ATOM     17  C   UNL     1      -1.953   5.218   3.821  0.00  0.00    +0.009 A 
ATOM     18  C   UNL     1      -2.097   6.586   3.692  0.00  0.00    +0.020 A 
ATOM     19  C   UNL     1      -3.214   7.216   4.212  0.00  0.00    +0.041 A 
ATOM     20  C   UNL     1      -4.189   6.474   4.855  0.00  0.00    +0.020 A 
ATOM     21  C   UNL     1      -4.047   5.105   4.978  0.00  0.00    +0.009 A 
ATOM     22 CL   UNL     1      -3.393   8.936   4.056  0.00  0.00    -0.084 Cl
ENDBRANCH  12  16
BRANCH  13  23
ATOM     23  C   UNL     1      -6.637   1.211   4.717  0.00  0.00    +0.109 C 
BRANCH  23  24
ATOM     24  C   UNL     1      -8.006   0.596   4.418  0.00  0.00    +0.056 C 
BRANCH  24  25
ATOM     25  C   UNL     1      -8.705   0.275   5.714  0.00  0.00    -0.021 A 
ATOM     26  C   UNL     1      -8.709  -0.908   6.348  0.00  0.00    +0.087 A 
ATOM     27  N   UNL     1      -9.450  -0.822   7.495  0.00  0.00    -0.360 N 
ATOM     28  H   UNL     1      -9.563  -1.702   8.144  0.00  0.00    +0.165 HD
ATOM     29  C   UNL     1      -9.955   0.452   7.630  0.00  0.00    +0.047 A 
ATOM     30  C   UNL     1      -9.506   1.197   6.524  0.00  0.00    +0.003 A 
ATOM     31  C   UNL     1      -9.873   2.537   6.392  0.00  0.00    +0.010 A 
ATOM     32  C   UNL     1     -10.657   3.123   7.345  0.00  0.00    +0.001 A 
ATOM     33  C   UNL     1     -11.098   2.394   8.441  0.00  0.00    +0.002 A 
ATOM     34  C   UNL     1     -10.752   1.069   8.588  0.00  0.00    +0.026 A 
ENDBRANCH  24  25
ENDBRANCH  23  24
ENDBRANCH  13  23
TORSDOF 4
