REMARK  Name = ZINC39352647
REMARK  9 active torsions:
REMARK  status: ('A' for Active; 'I' for Inactive)
REMARK    1  A    between atoms: C_1  and  C_2
REMARK    2  A    between atoms: C_2  and  C_3
REMARK    3  A    between atoms: C_2  and  C_4
REMARK    4  A    between atoms: C_4  and  C_5
REMARK    5  A    between atoms: C_7  and  C_11
REMARK    6  A    between atoms: C_20  and  C_33
REMARK    7  A    between atoms: N_24  and  C_25
REMARK    8  A    between atoms: C_25  and  C_26
REMARK    9  A    between atoms: C_26  and  N_27
REMARK                            x       y       z     vdW  Elec       q    Type
REMARK                         _______ _______ _______ _____ _____    ______ ____
ROOT
ATOM      1  C   UNL     1      -2.700  -5.035   0.559  0.00  0.00    +0.246 C 
ATOM      2  O   UNL     1      -3.597  -5.096  -0.255  0.00  0.00    -0.273 OA
ATOM      3  N   UNL     1      -2.823  -5.663   1.745  0.00  0.00    -0.295 N 
ATOM      4  C   UNL     1      -1.749  -5.597   2.746  0.00  0.00    +0.110 C 
ATOM      5  C   UNL     1      -2.315  -5.050   4.060  0.00  0.00    +0.046 C 
ATOM      6  C   UNL     1      -3.436  -5.966   4.556  0.00  0.00    +0.105 C 
ATOM      7  C   UNL     1      -4.471  -6.030   3.460  0.00  0.00    -0.035 C 
ATOM      8  C   UNL     1      -5.721  -5.735   3.704  0.00  0.00    -0.007 C 
ATOM      9  C   UNL     1      -6.135  -5.316   5.093  0.00  0.00    +0.128 C 
ATOM     10  C   UNL     1      -5.092  -5.215   6.178  0.00  0.00    +0.227 C 
ATOM     11  O   UNL     1      -5.405  -4.857   7.294  0.00  0.00    -0.275 OA
ATOM     12  N   UNL     1      -3.813  -5.521   5.897  0.00  0.00    -0.296 N 
ATOM     13  C   UNL     1      -4.038  -6.428   2.072  0.00  0.00    +0.140 C 
ENDROOT
BRANCH   9  14
ATOM     14  C   UNL     1      -6.799  -3.968   4.979  0.00  0.00    -0.029 A 
ATOM     15  C   UNL     1      -6.112  -2.880   4.464  0.00  0.00    +0.024 A 
ATOM     16  C   UNL     1      -6.753  -1.659   4.375  0.00  0.00    +0.111 A 
ATOM     17  N   UNL     1      -8.003  -1.523   4.773  0.00  0.00    -0.263 NA
ATOM     18  C   UNL     1      -8.688  -2.537   5.268  0.00  0.00    +0.111 A 
ATOM     19  C   UNL     1      -8.114  -3.789   5.381  0.00  0.00    +0.024 A 
ENDBRANCH   9  14
BRANCH   1  22
ATOM     20  C   UNL     1      -1.439  -2.038  -0.125  0.00  0.00    +0.062 C 
ATOM     21  C   UNL     1      -1.486  -2.890   0.901  0.00  0.00    +0.035 C 
ATOM     22  C   UNL     1      -1.448  -4.258   0.243  0.00  0.00    +0.238 C 
ATOM     23  N   UNL     1      -1.380  -3.933  -1.192  0.00  0.00    -0.170 NA
ATOM     24  N   UNL     1      -1.385  -2.704  -1.300  0.00  0.00    -0.158 NA
BRANCH  20  25
ATOM     25  C   UNL     1      -1.452  -0.537   0.007  0.00  0.00    +0.060 C 
BRANCH  25  27
ATOM     26  C   UNL     1      -0.032   1.518  -0.002  0.00  0.00    +0.007 C 
ATOM     27  C   UNL     1      -0.015  -0.011  -0.011  0.00  0.00    -0.011 C 
ATOM     28  C   UNL     1       0.729  -0.520   1.226  0.00  0.00    +0.007 C 
ENDBRANCH  25  27
ENDBRANCH  20  25
ENDBRANCH   1  22
BRANCH  12  29
ATOM     29  C   UNL     1      -2.795  -5.410   6.944  0.00  0.00    +0.090 C 
BRANCH  29  30
ATOM     30  C   UNL     1      -2.774  -6.695   7.774  0.00  0.00    -0.060 C 
BRANCH  30  31
ATOM     31  N   UNL     1      -1.844  -6.536   8.900  0.00  0.00    +0.381 N 
ATOM     32  C   UNL     1      -0.479  -6.374   8.386  0.00  0.00    -0.079 C 
ATOM     33  C   UNL     1       0.482  -6.127   9.551  0.00  0.00    -0.019 C 
ATOM     34  C   UNL     1       0.434  -7.322  10.508  0.00  0.00    -0.004 C 
ATOM     35  C   UNL     1      -1.008  -7.528  10.979  0.00  0.00    -0.019 C 
ATOM     36  C   UNL     1      -1.915  -7.723   9.762  0.00  0.00    -0.079 C 
ATOM     37  H   UNL     1      -2.100  -5.719   9.434  0.00  0.00    -0.082 HD
ENDBRANCH  30  31
ENDBRANCH  29  30
ENDBRANCH  12  29
TORSDOF 7
