REMARK  Name = ZINC63097812
REMARK  8 active torsions:
REMARK  status: ('A' for Active; 'I' for Inactive)
REMARK    1  A    between atoms: C_1  and  C_2
REMARK    2  A    between atoms: N_6  and  C_8
REMARK    3  A    between atoms: C_8  and  C_9
REMARK    4  A    between atoms: C_8  and  C_10
REMARK    5  A    between atoms: C_8  and  C_11
REMARK    6  A    between atoms: C_11  and  N_12
REMARK    7  A    between atoms: C_13  and  C_15
REMARK    8  A    between atoms: C_18  and  N_21
REMARK                            x       y       z     vdW  Elec       q    Type
REMARK                         _______ _______ _______ _____ _____    ______ ____
ROOT
ATOM      1  N   UNL     1       1.834  -4.411   0.914  0.00  0.00    -0.313 N 
ATOM      2  C   UNL     1       2.302  -5.671   0.813  0.00  0.00    +0.244 C 
ATOM      3  O   UNL     1       2.049  -6.484   1.681  0.00  0.00    -0.270 OA
ATOM      4  H   UNL     1       2.036  -3.761   0.223  0.00  0.00    +0.149 HD
ENDROOT
BRANCH   2   5
ATOM      5  C   UNL     1       3.122  -6.062  -0.350  0.00  0.00    +0.037 A 
ATOM      6  C   UNL     1       3.418  -5.127  -1.345  0.00  0.00    +0.015 A 
ATOM      7  C   UNL     1       4.183  -5.495  -2.429  0.00  0.00    +0.026 A 
ATOM      8  C   UNL     1       4.660  -6.798  -2.534  0.00  0.00    +0.056 A 
ATOM      9  C   UNL     1       4.367  -7.732  -1.546  0.00  0.00    +0.026 A 
ATOM     10  C   UNL     1       3.607  -7.369  -0.457  0.00  0.00    +0.015 A 
BRANCH   8  11
ATOM     11  N   UNL     1       5.435  -7.168  -3.633  0.00  0.00    -0.188 N 
ATOM     12  C   UNL     1       5.135  -8.289  -4.315  0.00  0.00    +0.237 C 
ATOM     13  O   UNL     1       4.190  -8.969  -3.974  0.00  0.00    -0.274 OA
ATOM     14  C   UNL     1       5.966  -8.702  -5.502  0.00  0.00    +0.107 C 
ATOM     15  C   UNL     1       6.456  -7.457  -6.242  0.00  0.00    +0.106 C 
ATOM     16  C   UNL     1       7.039  -6.480  -5.256  0.00  0.00    +0.230 C 
ATOM     17  O   UNL     1       7.981  -5.787  -5.578  0.00  0.00    -0.274 OA
ATOM     18  N   UNL     1       6.515  -6.368  -4.023  0.00  0.00    -0.227 N 
ATOM     19  H   UNL     1       6.893  -5.731  -3.397  0.00  0.00    +0.173 HD
ENDBRANCH   8  11
ENDBRANCH   2   5
BRANCH   1  20
ATOM     20  C   UNL     1       1.021  -4.022   2.069  0.00  0.00    +0.092 C 
BRANCH  20  21
ATOM     21  C   UNL     1       0.523  -2.587   1.883  0.00  0.00    -0.055 C 
ATOM     22  C   UNL     1      -0.343  -2.188   3.079  0.00  0.00    -0.008 C 
ATOM     23  C   UNL     1      -0.306  -2.498   0.600  0.00  0.00    -0.008 C 
BRANCH  21  29
ATOM     24  C   UNL     1       1.886   2.070   1.237  0.00  0.00    +0.005 C 
ATOM     25  C   UNL     1       2.388   0.637   1.423  0.00  0.00    -0.031 C 
ATOM     26  C   UNL     1       3.282   0.565   2.664  0.00  0.00    -0.001 C 
ATOM     27  C   UNL     1       3.715  -0.887   2.885  0.00  0.00    -0.018 C 
ATOM     28  C   UNL     1       2.473  -1.771   3.014  0.00  0.00    -0.078 C 
ATOM     29  N   UNL     1       1.673  -1.679   1.786  0.00  0.00    +0.384 N 
ATOM     30  C   UNL     1       1.194  -0.303   1.605  0.00  0.00    -0.075 C 
ATOM     31  H   UNL     1       2.242  -1.942   0.995  0.00  0.00    -0.081 HD
ENDBRANCH  21  29
ENDBRANCH  20  21
ENDBRANCH   1  20
TORSDOF 5
