REMARK  Name = ZINC58022653
REMARK  7 active torsions:
REMARK  status: ('A' for Active; 'I' for Inactive)
REMARK    1  A    between atoms: C_1  and  C_2
REMARK    2  A    between atoms: C_2  and  C_3
REMARK    3  A    between atoms: C_2  and  C_4
REMARK    4  A    between atoms: C_2  and  C_5
REMARK    5  A    between atoms: N_13  and  C_17
REMARK    6  A    between atoms: C_17  and  C_18
REMARK    7  A    between atoms: N_20  and  C_21
REMARK                            x       y       z     vdW  Elec       q    Type
REMARK                         _______ _______ _______ _____ _____    ______ ____
ROOT
ATOM      1  C   UNL     1       0.742  -0.492  -1.353  0.00  0.00    -0.005 C 
ATOM      2  C   UNL     1       0.757  -2.023  -1.343  0.00  0.00    +0.006 C 
ATOM      3  C   UNL     1       1.467  -2.533  -2.599  0.00  0.00    +0.035 C 
ATOM      4  C   UNL     1       2.893  -1.994  -2.634  0.00  0.00    +0.113 C 
ATOM      5  C   UNL     1       2.895  -0.470  -2.620  0.00  0.00    +0.035 C 
ATOM      6  C   UNL     1       2.179   0.032  -1.363  0.00  0.00    +0.006 C 
ATOM      7  C   UNL     1       3.691  -2.535  -1.470  0.00  0.00    +0.247 C 
ATOM      8  O   UNL     1       3.470  -2.370  -0.290  0.00  0.00    -0.273 OA
ATOM      9  N   UNL     1       4.701  -3.239  -2.022  0.00  0.00    -0.215 N 
ATOM     10  C   UNL     1       4.647  -3.215  -3.359  0.00  0.00    +0.310 C 
ATOM     11  O   UNL     1       5.449  -3.777  -4.078  0.00  0.00    -0.252 OA
ATOM     12  N   UNL     1       3.603  -2.498  -3.817  0.00  0.00    -0.285 N 
ATOM     13  H   UNL     1       3.367  -2.344  -4.746  0.00  0.00    +0.151 HD
ENDROOT
BRANCH   1  15
ATOM     14  C   UNL     1       0.006   1.549  -0.114  0.00  0.00    +0.011 C 
ATOM     15  C   UNL     1       0.021   0.019  -0.104  0.00  0.00    -0.035 C 
ATOM     16  C   UNL     1       0.754  -0.475   1.145  0.00  0.00    +0.011 C 
ATOM     17  C   UNL     1      -1.416  -0.506  -0.093  0.00  0.00    +0.011 C 
ENDBRANCH   1  15
BRANCH   9  18
ATOM     18  C   UNL     1       5.730  -3.943  -1.252  0.00  0.00    +0.214 C 
BRANCH  18  19
ATOM     19  C   UNL     1       5.275  -5.353  -0.976  0.00  0.00    +0.235 C 
ATOM     20  O   UNL     1       4.197  -5.732  -1.381  0.00  0.00    -0.274 OA
ATOM     21  N   UNL     1       6.065  -6.192  -0.277  0.00  0.00    -0.282 N 
ATOM     22  H   UNL     1       6.953  -5.909  -0.006  0.00  0.00    +0.155 HD
BRANCH  21  23
ATOM     23  C   UNL     1       5.606  -7.471   0.056  0.00  0.00    +0.071 A 
ATOM     24  C   UNL     1       4.768  -8.169  -0.809  0.00  0.00    +0.028 A 
ATOM     25  C   UNL     1       4.339  -9.432  -0.435  0.00  0.00    +0.022 A 
ATOM     26  C   UNL     1       4.755  -9.956   0.775  0.00  0.00    +0.112 A 
ATOM     27  N   UNL     1       5.550  -9.270   1.573  0.00  0.00    -0.242 NA
ATOM     28  C   UNL     1       5.985  -8.067   1.254  0.00  0.00    +0.150 A 
ATOM     29 CL   UNL     1       7.037  -7.216   2.342  0.00  0.00    -0.060 Cl
ENDBRANCH  21  23
ENDBRANCH  18  19
ENDBRANCH   9  18
TORSDOF 4
