REMARK  Name = ZINC63204749
REMARK  6 active torsions:
REMARK  status: ('A' for Active; 'I' for Inactive)
REMARK    1  A    between atoms: C_7  and  C_10
REMARK    2  A    between atoms: C_10  and  C_11
REMARK    3  A    between atoms: C_11  and  C_13
REMARK    4  A    between atoms: C_11  and  N_28
REMARK    5  A    between atoms: N_18  and  C_21
REMARK    6  A    between atoms: C_29  and  C_31
REMARK                            x       y       z     vdW  Elec       q    Type
REMARK                         _______ _______ _______ _____ _____    ______ ____
ROOT
ATOM      1  C   UNL     1       0.460  -3.636  -1.480  0.00  0.00    +0.163 C 
ENDROOT
BRANCH   1   2
ATOM      2  C   UNL     1      -0.574  -4.733  -1.471  0.00  0.00    +0.236 C 
ATOM      3  O   UNL     1      -0.227  -5.893  -1.533  0.00  0.00    -0.274 OA
ATOM      4  N   UNL     1      -1.883  -4.425  -1.394  0.00  0.00    -0.297 N 
ATOM      5  C   UNL     1      -2.319  -3.022  -1.324  0.00  0.00    +0.126 C 
ATOM      6  C   UNL     1      -3.315  -2.761  -2.461  0.00  0.00    +0.124 C 
ATOM      7  N   UNL     1      -4.333  -3.821  -2.445  0.00  0.00    -0.327 N 
ATOM      8  C   UNL     1      -3.898  -5.223  -2.515  0.00  0.00    +0.124 C 
ATOM      9  C   UNL     1      -2.902  -5.484  -1.384  0.00  0.00    +0.126 C 
BRANCH   7  10
ATOM     10  C   UNL     1      -5.692  -3.501  -2.365  0.00  0.00    +0.030 A 
ATOM     11  C   UNL     1      -6.649  -4.502  -2.467  0.00  0.00    +0.026 A 
ATOM     12  C   UNL     1      -7.991  -4.183  -2.388  0.00  0.00    +0.040 A 
ATOM     13  C   UNL     1      -8.382  -2.867  -2.206  0.00  0.00    +0.124 A 
ATOM     14  C   UNL     1      -7.429  -1.868  -2.104  0.00  0.00    +0.040 A 
ATOM     15  C   UNL     1      -6.086  -2.182  -2.178  0.00  0.00    +0.026 A 
ATOM     16  F   UNL     1      -9.694  -2.558  -2.129  0.00  0.00    -0.205 F 
ENDBRANCH   7  10
ENDBRANCH   1   2
BRANCH   1  17
ATOM     17  N   UNL     1       1.714  -4.151  -2.035  0.00  0.00    -0.299 N 
ATOM     18  C   UNL     1       2.341  -5.184  -1.439  0.00  0.00    +0.251 C 
ATOM     19  O   UNL     1       1.865  -5.689  -0.439  0.00  0.00    -0.270 OA
ATOM     20  H   UNL     1       2.092  -3.748  -2.832  0.00  0.00    +0.150 HD
BRANCH  18  21
ATOM     21  C   UNL     1       3.595  -5.699  -1.995  0.00  0.00    +0.074 A 
ATOM     22  C   UNL     1       4.387  -6.745  -1.544  0.00  0.00    +0.021 A 
ATOM     23  C   UNL     1       5.519  -6.997  -2.282  0.00  0.00    +0.008 A 
ATOM     24  C   UNL     1       5.781  -6.232  -3.370  0.00  0.00    +0.046 A 
ATOM     25  S   UNL     1       4.497  -5.150  -3.432  0.00  0.00    -0.092 S 
ENDBRANCH  18  21
ENDBRANCH   1  17
BRANCH   1  26
ATOM     26  C   UNL     1       0.698  -3.148  -0.049  0.00  0.00    +0.065 C 
BRANCH  26  33
ATOM     27  C   UNL     1      -0.013   1.385  -0.076  0.00  0.00    +0.001 A 
ATOM     28  C   UNL     1       1.169   2.139  -0.098  0.00  0.00    +0.002 A 
ATOM     29  C   UNL     1       2.394   1.574  -0.109  0.00  0.00    +0.026 A 
ATOM     30  C   UNL     1       2.533   0.158  -0.099  0.00  0.00    +0.043 A 
ATOM     31  N   UNL     1       3.592  -0.615  -0.107  0.00  0.00    -0.380 N 
ATOM     32  C   UNL     1       3.150  -2.014  -0.090  0.00  0.00    +0.144 C 
ATOM     33  C   UNL     1       1.638  -1.970  -0.070  0.00  0.00    -0.039 C 
ATOM     34  C   UNL     1       1.300  -0.661  -0.076  0.00  0.00    -0.001 A 
ATOM     35  C   UNL     1       0.007   0.033  -0.065  0.00  0.00    +0.010 A 
ATOM     36  H   UNL     1       4.513  -0.313  -0.122  0.00  0.00    +0.160 HD
ENDBRANCH  26  33
ENDBRANCH   1  26
TORSDOF 6
