REMARK  Name = ZINC61673765
REMARK  4 active torsions:
REMARK  status: ('A' for Active; 'I' for Inactive)
REMARK    1  A    between atoms: C_4  and  C_6
REMARK    2  A    between atoms: C_4  and  N_10
REMARK    3  A    between atoms: N_7  and  O_8
REMARK    4  A    between atoms: C_11  and  C_13
REMARK                            x       y       z     vdW  Elec       q    Type
REMARK                         _______ _______ _______ _____ _____    ______ ____
ROOT
ATOM      1  C   UNL     1      -0.048   1.529   0.209  0.00  0.00    +0.003 C 
ATOM      2  C   UNL     1       1.415   2.004   0.087  0.00  0.00    +0.003 C 
ATOM      3  C   UNL     1       2.249   0.793   0.574  0.00  0.00    +0.033 C 
ATOM      4  C   UNL     1       1.463  -0.414   0.004  0.00  0.00    +0.093 C 
ATOM      5  C   UNL     1      -0.017  -0.008   0.157  0.00  0.00    +0.033 C 
ENDROOT
BRANCH   4   6
ATOM      6  C   UNL     1       1.754  -1.658   0.805  0.00  0.00    +0.155 C 
ATOM      7  N   UNL     1       1.506  -1.683   2.072  0.00  0.00    -0.075 NA
ATOM      8  N   UNL     1       2.283  -2.768   0.185  0.00  0.00    -0.342 N 
ATOM      9  H   UNL     1       2.414  -2.770  -0.776  0.00  0.00    +0.144 HD
ATOM     10  H   UNL     1       2.526  -3.547   0.709  0.00  0.00    +0.144 HD
BRANCH   7  11
ATOM     11  O   UNL     1       0.858  -0.585   2.689  0.00  0.00    -0.408 OA
ATOM     12  H   UNL     1       0.715  -0.695   3.639  0.00  0.00    +0.328 HD
ENDBRANCH   7  11
ENDBRANCH   4   6
BRANCH   4  13
ATOM     13  N   UNL     1       1.795  -0.623  -1.407  0.00  0.00    -0.303 N 
ATOM     14  C   UNL     1       1.136  -1.554  -2.124  0.00  0.00    +0.217 C 
ATOM     15  O   UNL     1       0.211  -2.160  -1.626  0.00  0.00    -0.275 OA
ATOM     16  H   UNL     1       2.489  -0.089  -1.826  0.00  0.00    +0.150 HD
BRANCH  14  17
ATOM     17  C   UNL     1       1.550  -1.844  -3.544  0.00  0.00    +0.079 C 
ATOM     18  C   UNL     1       1.408  -0.573  -4.388  0.00  0.00    +0.041 C 
ATOM     19  C   UNL     1       1.754  -0.896  -5.844  0.00  0.00    +0.160 C 
ATOM     20  O   UNL     1       0.899  -1.939  -6.316  0.00  0.00    -0.380 OA
ATOM     21  C   UNL     1       1.023  -3.166  -5.594  0.00  0.00    +0.160 C 
ATOM     22  C   UNL     1       0.647  -2.935  -4.128  0.00  0.00    +0.041 C 
ENDBRANCH  14  17
ENDBRANCH   4  13
TORSDOF 4
