REMARK  Name = ZINC15023206
REMARK  5 active torsions:
REMARK  status: ('A' for Active; 'I' for Inactive)
REMARK    1  A    between atoms: C_12  and  C_28
REMARK    2  A    between atoms: C_14  and  C_22
REMARK    3  A    between atoms: C_16  and  C_17
REMARK    4  A    between atoms: C_16  and  C_19
REMARK    5  A    between atoms: C_28  and  C_30
REMARK                            x       y       z     vdW  Elec       q    Type
REMARK                         _______ _______ _______ _____ _____    ______ ____
ROOT
ATOM      1  C   UNL     1      -1.180   0.648  -5.317  0.00  0.00    +0.001 A 
ATOM      2  C   UNL     1      -0.124   0.206  -4.538  0.00  0.00    +0.002 A 
ATOM      3  C   UNL     1      -0.046   0.549  -3.200  0.00  0.00    +0.024 A 
ATOM      4  C   UNL     1      -1.029   1.347  -2.636  0.00  0.00    +0.038 A 
ATOM      5  C   UNL     1      -2.103   1.796  -3.428  0.00  0.00    -0.004 A 
ATOM      6  C   UNL     1      -2.169   1.441  -4.768  0.00  0.00    +0.010 A 
ATOM      7  C   UNL     1      -3.137   2.649  -2.797  0.00  0.00    +0.007 C 
ATOM      8  C   UNL     1      -3.298   2.550  -1.465  0.00  0.00    -0.002 C 
ATOM      9  C   UNL     1      -2.402   1.579  -0.759  0.00  0.00    +0.127 C 
ATOM     10  N   UNL     1      -1.030   1.722  -1.314  0.00  0.00    -0.310 N 
ATOM     11  C   UNL     1      -0.191   0.977  -0.368  0.00  0.00    +0.155 C 
ATOM     12  C   UNL     1      -0.751   1.394   1.020  0.00  0.00    +0.080 C 
ATOM     13  C   UNL     1      -2.214   1.839   0.738  0.00  0.00    +0.163 C 
ENDROOT
BRANCH  12  14
ATOM     14  C   UNL     1      -0.729   0.222   1.967  0.00  0.00    -0.022 A 
ATOM     15  C   UNL     1      -0.142   0.341   3.218  0.00  0.00    +0.007 A 
ATOM     16  C   UNL     1      -0.149  -0.762   4.058  0.00  0.00    +0.020 A 
ATOM     17  C   UNL     1      -0.729  -1.938   3.620  0.00  0.00    +0.111 A 
ATOM     18  N   UNL     1      -1.274  -2.016   2.422  0.00  0.00    -0.263 NA
ATOM     19  C   UNL     1      -1.289  -0.986   1.598  0.00  0.00    +0.114 A 
ENDBRANCH  12  14
BRANCH  13  20
ATOM     20  C   UNL     1      -3.182   1.011   1.544  0.00  0.00    +0.233 C 
ATOM     21  O   UNL     1      -3.889   0.196   0.990  0.00  0.00    -0.274 OA
ATOM     22  N   UNL     1      -3.262   1.176   2.879  0.00  0.00    -0.328 N 
ATOM     23  H   UNL     1      -2.696   1.828   3.321  0.00  0.00    +0.145 HD
ATOM     24  H   UNL     1      -3.885   0.643   3.397  0.00  0.00    +0.145 HD
ENDBRANCH  13  20
BRANCH  13  25
ATOM     25  C   UNL     1      -2.384   3.270   1.038  0.00  0.00    +0.082 C 
ATOM     26  N   UNL     1      -2.515   4.375   1.270  0.00  0.00    -0.195 NA
ENDBRANCH  13  25
BRANCH  11  27
ATOM     27  C   UNL     1       1.253   1.386  -0.502  0.00  0.00    +0.184 C 
ATOM     28  O   UNL     1       1.541   2.412  -1.082  0.00  0.00    -0.290 OA
BRANCH  27  29
ATOM     29  C   UNL     1       2.312   0.542   0.069  0.00  0.00    +0.019 A 
ATOM     30  C   UNL     1       1.983  -0.639   0.744  0.00  0.00    +0.014 A 
ATOM     31  C   UNL     1       2.980  -1.428   1.272  0.00  0.00    +0.039 A 
ATOM     32  C   UNL     1       4.309  -1.049   1.146  0.00  0.00    +0.123 A 
ATOM     33  C   UNL     1       4.642   0.123   0.483  0.00  0.00    +0.039 A 
ATOM     34  C   UNL     1       3.654   0.919  -0.054  0.00  0.00    +0.014 A 
ATOM     35  F   UNL     1       5.282  -1.824   1.672  0.00  0.00    -0.205 F 
ENDBRANCH  27  29
ENDBRANCH  11  27
TORSDOF 5
