REMARK  Name = ZINC12556687
REMARK  6 active torsions:
REMARK  status: ('A' for Active; 'I' for Inactive)
REMARK    1  A    between atoms: C_4  and  C_7
REMARK    2  A    between atoms: C_7  and  C_9
REMARK    3  A    between atoms: C_7  and  N_23
REMARK    4  A    between atoms: C_17  and  C_19
REMARK    5  A    between atoms: C_24  and  C_26
REMARK    6  A    between atoms: C_27  and  C_28
REMARK                            x       y       z     vdW  Elec       q    Type
REMARK                         _______ _______ _______ _____ _____    ______ ____
ROOT
ATOM      1  C   UNL     1      -1.684  -3.380   0.001  0.00  0.00    +0.134 C 
ENDROOT
BRANCH   1   2
ATOM      2  C   UNL     1      -0.619  -2.314  -0.004  0.00  0.00    -0.021 A 
ATOM      3  C   UNL     1       0.720  -2.679  -0.019  0.00  0.00    +0.008 A 
ATOM      4  C   UNL     1       1.701  -1.728  -0.024  0.00  0.00    +0.030 A 
ATOM      5  C   UNL     1       1.358  -0.373  -0.013  0.00  0.00    +0.089 A 
ATOM      6  C   UNL     1       0.002  -0.004   0.002  0.00  0.00    +0.067 A 
ATOM      7  C   UNL     1      -0.981  -0.984   0.006  0.00  0.00    +0.033 A 
ATOM      8  N   UNL     1      -0.017   1.376   0.010  0.00  0.00    -0.335 N 
ATOM      9  H   UNL     1      -0.830   1.958   0.021  0.00  0.00    +0.167 HD
ATOM     10  C   UNL     1       1.276   1.799  -0.001  0.00  0.00    +0.213 A 
ATOM     11  N   UNL     1       2.081   0.776  -0.014  0.00  0.00    -0.224 NA
BRANCH  10  12
ATOM     12  C   UNL     1       1.714   3.241   0.003  0.00  0.00    +0.450 C 
ATOM     13  F   UNL     1       3.065   3.319  -0.351  0.00  0.00    -0.163 F 
ATOM     14  F   UNL     1       0.948   3.963  -0.918  0.00  0.00    -0.163 F 
ATOM     15  F   UNL     1       1.535   3.779   1.282  0.00  0.00    -0.163 F 
ENDBRANCH  10  12
ENDBRANCH   1   2
BRANCH   1  19
ATOM     16  C   UNL     1      -2.158  -4.903   3.964  0.00  0.00    +0.000 A 
ATOM     17  C   UNL     1      -3.047  -3.966   3.473  0.00  0.00    +0.000 A 
ATOM     18  C   UNL     1      -2.894  -3.474   2.190  0.00  0.00    +0.006 A 
ATOM     19  C   UNL     1      -1.851  -3.917   1.399  0.00  0.00    -0.023 A 
ATOM     20  C   UNL     1      -0.964  -4.858   1.889  0.00  0.00    +0.006 A 
ATOM     21  C   UNL     1      -1.115  -5.347   3.173  0.00  0.00    +0.000 A 
ENDBRANCH   1  19
BRANCH   1  22
ATOM     22  N   UNL     1      -1.290  -4.469  -0.897  0.00  0.00    -0.301 N 
ATOM     23  C   UNL     1      -2.231  -5.259  -1.451  0.00  0.00    +0.238 C 
ATOM     24  O   UNL     1      -3.408  -5.068  -1.206  0.00  0.00    -0.271 OA
ATOM     25  H   UNL     1      -0.352  -4.621  -1.092  0.00  0.00    +0.150 HD
BRANCH  23  26
ATOM     26  C   UNL     1      -1.838  -6.346  -2.347  0.00  0.00    +0.068 C 
ATOM     27  C   UNL     1      -2.780  -7.137  -2.902  0.00  0.00    +0.017 C 
BRANCH  27  28
ATOM     28  C   UNL     1      -2.385  -8.229  -3.803  0.00  0.00    +0.020 A 
ATOM     29  C   UNL     1      -1.033  -8.449  -4.091  0.00  0.00    +0.050 A 
ATOM     30  C   UNL     1      -0.670  -9.478  -4.935  0.00  0.00    +0.125 A 
ATOM     31  C   UNL     1      -1.641 -10.288  -5.506  0.00  0.00    +0.048 A 
ATOM     32  C   UNL     1      -2.979 -10.078  -5.234  0.00  0.00    +0.023 A 
ATOM     33  C   UNL     1      -3.361  -9.055  -4.383  0.00  0.00    +0.136 A 
ATOM     34  O   UNL     1      -4.672  -8.844  -4.098  0.00  0.00    -0.465 OA
ATOM     35  C   UNL     1      -5.629  -9.452  -4.971  0.00  0.00    +0.395 C 
ATOM     36  O   UNL     1      -5.258 -10.821  -5.174  0.00  0.00    -0.339 OA
ATOM     37  C   UNL     1      -4.018 -10.967  -5.872  0.00  0.00    +0.202 C 
ATOM     38  F   UNL     1       0.634  -9.695  -5.210  0.00  0.00    -0.205 F 
ENDBRANCH  27  28
ENDBRANCH  23  26
ENDBRANCH   1  22
TORSDOF 6
