REMARK  Name = ZINC20881827
REMARK  4 active torsions:
REMARK  status: ('A' for Active; 'I' for Inactive)
REMARK    1  A    between atoms: C_1  and  O_2
REMARK    2  A    between atoms: O_2  and  C_3
REMARK    3  A    between atoms: C_6  and  C_10
REMARK    4  A    between atoms: C_21  and  C_24
REMARK                            x       y       z     vdW  Elec       q    Type
REMARK                         _______ _______ _______ _____ _____    ______ ____
ROOT
ATOM      1  C   UNL     1      -6.644   5.162   0.044  0.00  0.00    +0.063 C 
ATOM      2  C   UNL     1      -6.722   6.149  -1.122  0.00  0.00    +0.109 C 
ATOM      3  C   UNL     1      -6.272   5.460  -2.384  0.00  0.00    +0.218 C 
ATOM      4  O   UNL     1      -6.776   5.753  -3.447  0.00  0.00    -0.275 OA
ATOM      5  N   UNL     1      -5.313   4.519  -2.334  0.00  0.00    -0.289 N 
ATOM      6  C   UNL     1      -4.707   4.184  -1.150  0.00  0.00    +0.018 C 
ATOM      7  C   UNL     1      -5.301   4.472   0.027  0.00  0.00    +0.020 C 
ATOM      8  C   UNL     1      -4.695   4.144   1.252  0.00  0.00    +0.162 C 
ATOM      9  O   UNL     1      -5.266   4.407   2.291  0.00  0.00    -0.292 OA
ATOM     10  C   UNL     1      -3.347   3.475   1.298  0.00  0.00    +0.088 C 
ATOM     11  C   UNL     1      -2.554   3.867   0.047  0.00  0.00    +0.032 C 
ATOM     12  C   UNL     1      -3.369   3.488  -1.191  0.00  0.00    +0.059 C 
ATOM     13  H   UNL     1      -5.001   4.002  -3.254  0.00  0.00    +0.155 HD
ENDROOT
BRANCH  11  14
ATOM     14  C   UNL     1      -1.238   3.133   0.031  0.00  0.00    -0.042 A 
ATOM     15  C   UNL     1      -1.219   1.750   0.017  0.00  0.00    +0.005 A 
ATOM     16  C   UNL     1      -0.013   1.076   0.008  0.00  0.00    +0.022 A 
ATOM     17  C   UNL     1       1.176   1.784   0.000  0.00  0.00    +0.059 A 
ATOM     18  C   UNL     1       1.156   3.168   0.008  0.00  0.00    +0.060 A 
ATOM     19  C   UNL     1      -0.052   3.842   0.023  0.00  0.00    +0.025 A 
ATOM     20 CL   UNL     1       2.647   4.058  -0.002  0.00  0.00    -0.082 Cl
ATOM     21 CL   UNL     1       2.691   0.937  -0.018  0.00  0.00    -0.082 Cl
ENDBRANCH  11  14
BRANCH   1  25
ATOM     22  C   UNL     1      -9.749   2.251  -0.342  0.00  0.00    +0.138 A 
ATOM     23  C   UNL     1      -9.693   3.062   0.781  0.00  0.00    +0.047 A 
ATOM     24  C   UNL     1      -8.688   4.003   0.903  0.00  0.00    +0.008 A 
ATOM     25  C   UNL     1      -7.739   4.136  -0.093  0.00  0.00    -0.038 A 
ATOM     26  C   UNL     1      -7.795   3.332  -1.216  0.00  0.00    +0.028 A 
ATOM     27  C   UNL     1      -8.795   2.386  -1.341  0.00  0.00    +0.083 A 
ATOM     28 CL   UNL     1      -8.861   1.372  -2.749  0.00  0.00    -0.080 Cl
BRANCH  22  30
ATOM     29  C   UNL     1     -11.684   1.242   0.602  0.00  0.00    +0.277 C 
ATOM     30  O   UNL     1     -10.737   1.325  -0.465  0.00  0.00    -0.494 OA
ENDBRANCH  22  30
ENDBRANCH   1  25
TORSDOF 3
