REMARK  Name = ZINC02992706
REMARK  8 active torsions:
REMARK  status: ('A' for Active; 'I' for Inactive)
REMARK    1  A    between atoms: C_1  and  C_2
REMARK    2  A    between atoms: C_2  and  C_28
REMARK    3  A    between atoms: C_11  and  O_26
REMARK    4  A    between atoms: C_16  and  C_18
REMARK    5  A    between atoms: C_18  and  S_19
REMARK    6  A    between atoms: S_19  and  C_20
REMARK    7  A    between atoms: N_24  and  C_25
REMARK    8  A    between atoms: O_26  and  C_27
REMARK                            x       y       z     vdW  Elec       q    Type
REMARK                         _______ _______ _______ _____ _____    ______ ____
ROOT
ATOM      1  C   UNL     1      -8.261  -0.041   3.047  0.00  0.00    +0.037 C 
ATOM      2  C   UNL     1      -6.768   0.215   3.260  0.00  0.00    +0.069 C 
ATOM      3  C   UNL     1      -6.583   1.390   4.190  0.00  0.00    +0.029 A 
ATOM      4  C   UNL     1      -5.545   2.300   4.102  0.00  0.00    +0.018 A 
ATOM      5  C   UNL     1      -5.329   3.397   4.972  0.00  0.00    +0.071 A 
ATOM      6  S   UNL     1      -4.021   4.496   4.859  0.00  0.00    -0.043 S 
ATOM      7  S   UNL     1      -6.584   3.465   6.170  0.00  0.00    -0.044 S 
ATOM      8  S   UNL     1      -7.636   1.782   5.509  0.00  0.00    -0.053 S 
ATOM      9  C   UNL     1      -4.566   2.089   2.968  0.00  0.00    +0.009 A 
ATOM     10  C   UNL     1      -3.371   2.790   2.938  0.00  0.00    +0.056 A 
ATOM     11  C   UNL     1      -2.485   2.572   1.891  0.00  0.00    +0.121 A 
ATOM     12  C   UNL     1      -2.804   1.666   0.889  0.00  0.00    +0.047 A 
ATOM     13  C   UNL     1      -3.998   0.970   0.920  0.00  0.00    +0.028 A 
ATOM     14  C   UNL     1      -4.895   1.186   1.956  0.00  0.00    +0.045 A 
ATOM     15  N   UNL     1      -6.133   0.528   1.973  0.00  0.00    -0.260 N 
ATOM     16  C   UNL     1      -6.735   0.186   0.817  0.00  0.00    +0.231 C 
ATOM     17  O   UNL     1      -7.747  -0.483   0.836  0.00  0.00    -0.274 OA
ATOM     18  C   UNL     1      -6.115  -1.030   3.865  0.00  0.00    +0.037 C 
ENDROOT
BRANCH  11  19
ATOM     19  O   UNL     1      -1.309   3.252   1.844  0.00  0.00    -0.495 OA
ATOM     20  C   UNL     1      -0.445   2.979   0.739  0.00  0.00    +0.277 C 
ENDBRANCH  11  19
BRANCH  16  21
ATOM     21  C   UNL     1      -6.152   0.633  -0.498  0.00  0.00    +0.173 C 
BRANCH  21  22
ATOM     22  S   UNL     1      -7.445   0.623  -1.766  0.00  0.00    -0.077 S 
BRANCH  22  23
ATOM     23  C   UNL     1      -6.513   1.172  -3.157  0.00  0.00    +0.192 A 
ATOM     24  N   UNL     1      -5.237   1.479  -3.170  0.00  0.00    -0.123 NA
ATOM     25  N   UNL     1      -4.887   1.840  -4.353  0.00  0.00    -0.137 NA
ATOM     26  C   UNL     1      -5.910   1.786  -5.158  0.00  0.00    +0.225 A 
ATOM     27  N   UNL     1      -6.981   1.353  -4.427  0.00  0.00    -0.312 N 
ATOM     28  C   UNL     1      -8.348   1.132  -4.906  0.00  0.00    +0.152 C 
ENDBRANCH  22  23
ENDBRANCH  21  22
ENDBRANCH  16  21
TORSDOF 4
