REMARK  Name = ZINC28617539
REMARK  6 active torsions:
REMARK  status: ('A' for Active; 'I' for Inactive)
REMARK    1  A    between atoms: C_3  and  C_10
REMARK    2  A    between atoms: C_5  and  N_7
REMARK    3  A    between atoms: C_10  and  C_12
REMARK    4  A    between atoms: C_10  and  C_20
REMARK    5  A    between atoms: C_12  and  C_13
REMARK    6  A    between atoms: C_13  and  C_15
REMARK                            x       y       z     vdW  Elec       q    Type
REMARK                         _______ _______ _______ _____ _____    ______ ____
ROOT
ATOM      1  C   UNL     1      -0.070   5.347   0.032  0.00  0.00    +0.067 C 
ENDROOT
BRANCH   1   2
ATOM      2  C   UNL     1       0.630   5.979  -1.172  0.00  0.00    +0.091 A 
ATOM      3  C   UNL     1       0.549   7.487  -1.028  0.00  0.00    +0.281 A 
ATOM      4  O   UNL     1       1.005   8.051  -0.056  0.00  0.00    -0.265 OA
ATOM      5  N   UNL     1      -0.050   8.177  -2.021  0.00  0.00    -0.184 NA
ATOM      6  C   UNL     1      -0.558   7.570  -3.099  0.00  0.00    +0.183 A 
ATOM      7  S   UNL     1      -1.294   8.555  -4.291  0.00  0.00    -0.011 S 
ATOM      8  N   UNL     1      -0.534   6.250  -3.314  0.00  0.00    -0.301 N 
ATOM      9  C   UNL     1       0.023   5.392  -2.433  0.00  0.00    +0.260 A 
ATOM     10  O   UNL     1       0.037   4.198  -2.641  0.00  0.00    -0.267 OA
ATOM     11  H   UNL     1      -0.977   5.834  -4.231  0.00  0.00    +0.171 HD
ENDBRANCH   1   2
BRANCH   1  14
ATOM     12  C   UNL     1       1.298   1.837  -0.212  0.00  0.00    +0.003 A 
ATOM     13  C   UNL     1       1.232   3.215  -0.115  0.00  0.00    +0.004 A 
ATOM     14  C   UNL     1       0.003   3.846  -0.075  0.00  0.00    -0.037 A 
ATOM     15  C   UNL     1      -1.160   3.099  -0.132  0.00  0.00    +0.037 A 
ATOM     16  C   UNL     1      -1.093   1.723  -0.234  0.00  0.00    +0.126 A 
ATOM     17  C   UNL     1       0.136   1.091  -0.269  0.00  0.00    +0.033 A 
BRANCH  16  18
ATOM     18  N   UNL     1      -2.337   0.924  -0.301  0.00  0.00    +0.056 N 
ATOM     19  O   UNL     1      -2.279  -0.290  -0.386  0.00  0.00    -0.126 OA
ATOM     20  O   UNL     1      -3.421   1.480  -0.270  0.00  0.00    -0.126 OA
ENDBRANCH  16  18
ENDBRANCH   1  14
BRANCH   1  21
ATOM     21  C   UNL     1       0.620   5.801   1.320  0.00  0.00    +0.093 C 
BRANCH  21  22
ATOM     22  C   UNL     1      -0.120   5.246   2.509  0.00  0.00    +0.171 C 
ATOM     23  O   UNL     1      -1.105   4.554   2.343  0.00  0.00    -0.291 OA
BRANCH  22  24
ATOM     24  C   UNL     1       0.331   5.530   3.817  0.00  0.00    +0.055 A 
ATOM     25  C   UNL     1      -0.203   5.126   5.037  0.00  0.00    +0.019 A 
ATOM     26  C   UNL     1       0.443   5.545   6.169  0.00  0.00    +0.008 A 
ATOM     27  C   UNL     1       1.549   6.330   6.052  0.00  0.00    +0.046 A 
ATOM     28  S   UNL     1       1.731   6.506   4.337  0.00  0.00    -0.094 S 
ENDBRANCH  22  24
ENDBRANCH  21  22
ENDBRANCH   1  21
TORSDOF 6
