REMARK  Name = ZINC38687023
REMARK  11 active torsions:
REMARK  status: ('A' for Active; 'I' for Inactive)
REMARK    1  A    between atoms: C_1  and  C_2
REMARK    2  A    between atoms: C_2  and  C_3
REMARK    3  A    between atoms: C_3  and  C_4
REMARK    4  A    between atoms: C_4  and  C_5
REMARK    5  A    between atoms: C_8  and  C_11
REMARK    6  A    between atoms: C_11  and  O_13
REMARK    7  A    between atoms: O_13  and  C_14
REMARK    8  A    between atoms: C_21  and  N_34
REMARK    9  A    between atoms: C_22  and  C_32
REMARK   10  A    between atoms: C_23  and  C_25
REMARK   11  A    between atoms: C_28  and  C_31
REMARK                            x       y       z     vdW  Elec       q    Type
REMARK                         _______ _______ _______ _____ _____    ______ ____
ROOT
ATOM      1  C   UNL     1      -7.841  -6.620   1.151  0.00  0.00    +0.135 A 
ATOM      2  C   UNL     1      -8.942  -5.777   1.225  0.00  0.00    +0.047 A 
ATOM      3  C   UNL     1     -10.216  -6.308   1.264  0.00  0.00    +0.012 A 
ATOM      4  C   UNL     1     -10.401  -7.679   1.230  0.00  0.00    +0.008 A 
ATOM      5  C   UNL     1      -9.306  -8.525   1.155  0.00  0.00    +0.138 A 
ATOM      6  C   UNL     1      -8.024  -7.992   1.110  0.00  0.00    +0.093 A 
ATOM      7  O   UNL     1      -9.467  -9.871   1.121  0.00  0.00    -0.441 OA
ATOM      8  C   UNL     1     -10.655 -10.395   0.774  0.00  0.00    +0.199 C 
ATOM      9  C   UNL     1     -11.799  -9.672   0.824  0.00  0.00    +0.098 C 
ATOM     10  C   UNL     1     -11.798  -8.238   1.274  0.00  0.00    +0.098 C 
ENDROOT
BRANCH  10  11
ATOM     11  C   UNL     1     -12.324  -8.158   2.684  0.00  0.00    -0.035 A 
ATOM     12  C   UNL     1     -11.662  -8.812   3.707  0.00  0.00    +0.005 A 
ATOM     13  C   UNL     1     -12.144  -8.738   5.000  0.00  0.00    +0.003 A 
ATOM     14  C   UNL     1     -13.287  -8.009   5.272  0.00  0.00    -0.050 A 
ATOM     15  C   UNL     1     -13.948  -7.354   4.249  0.00  0.00    +0.003 A 
ATOM     16  C   UNL     1     -13.464  -7.425   2.956  0.00  0.00    +0.005 A 
ATOM     17  C   UNL     1     -13.813  -7.929   6.682  0.00  0.00    +0.044 C 
ENDBRANCH  10  11
BRANCH   8  18
ATOM     18  N   UNL     1     -10.710 -11.701   0.356  0.00  0.00    -0.328 N 
ATOM     19  H   UNL     1      -9.899 -12.231   0.314  0.00  0.00    +0.145 HD
ATOM     20  H   UNL     1     -11.559 -12.093   0.102  0.00  0.00    +0.145 HD
ENDBRANCH   8  18
BRANCH   9  21
ATOM     21  C   UNL     1     -13.034 -10.287   0.440  0.00  0.00    +0.101 C 
ATOM     22  N   UNL     1     -14.014 -10.774   0.136  0.00  0.00    -0.191 NA
ENDBRANCH   9  21
BRANCH   1  23
ATOM     23  O   UNL     1      -6.586  -6.098   1.113  0.00  0.00    -0.426 OA
BRANCH  23  24
ATOM     24  C   UNL     1      -6.054  -5.651   2.261  0.00  0.00    +0.315 C 
ATOM     25  O   UNL     1      -6.720  -5.635   3.269  0.00  0.00    -0.250 OA
BRANCH  24  29
ATOM     26  C   UNL     1      -2.663  -3.048   2.777  0.00  0.00    -0.011 C 
ATOM     27  C   UNL     1      -2.825  -4.224   3.743  0.00  0.00    +0.004 C 
ATOM     28  C   UNL     1      -4.273  -4.715   3.711  0.00  0.00    +0.015 C 
ATOM     29  C   UNL     1      -4.628  -5.167   2.293  0.00  0.00    +0.098 C 
ATOM     30  C   UNL     1      -4.466  -3.991   1.327  0.00  0.00    +0.015 C 
ATOM     31  C   UNL     1      -3.017  -3.500   1.359  0.00  0.00    +0.004 C 
BRANCH  26  32
ATOM     32  C   UNL     1      -1.214  -2.557   2.809  0.00  0.00    +0.003 C 
BRANCH  32  33
ATOM     33  C   UNL     1      -0.899  -1.990   4.195  0.00  0.00    +0.000 C 
BRANCH  33  35
ATOM     34  C   UNL     1       0.866  -0.932   5.612  0.00  0.00    +0.004 C 
ATOM     35  C   UNL     1       0.550  -1.499   4.227  0.00  0.00    -0.003 C 
ENDBRANCH  33  35
ENDBRANCH  32  33
ENDBRANCH  26  32
ENDBRANCH  24  29
ENDBRANCH  23  24
ENDBRANCH   1  23
TORSDOF 9
