REMARK  Name = ZINC38679182
REMARK  15 active torsions:
REMARK  status: ('A' for Active; 'I' for Inactive)
REMARK    1  A    between atoms: C_1  and  C_2
REMARK    2  A    between atoms: C_2  and  O_3
REMARK    3  A    between atoms: O_3  and  C_4
REMARK    4  A    between atoms: C_7  and  C_13
REMARK    5  A    between atoms: C_9  and  O_10
REMARK    6  A    between atoms: O_10  and  C_11
REMARK    7  A    between atoms: C_11  and  C_12
REMARK    8  A    between atoms: C_18  and  O_27
REMARK    9  A    between atoms: C_22  and  N_26
REMARK   10  A    between atoms: C_23  and  C_24
REMARK   11  A    between atoms: O_27  and  C_28
REMARK   12  A    between atoms: C_28  and  C_30
REMARK   13  A    between atoms: C_31  and  C_32
REMARK   14  A    between atoms: C_35  and  O_38
REMARK   15  A    between atoms: O_38  and  C_39
REMARK                            x       y       z     vdW  Elec       q    Type
REMARK                         _______ _______ _______ _____ _____    ______ ____
ROOT
ATOM      1  C   UNL     1      -2.056  -6.104  -0.038  0.00  0.00    +0.098 C 
ATOM      2  C   UNL     1      -1.404  -6.671  -1.271  0.00  0.00    +0.008 A 
ATOM      3  C   UNL     1      -2.084  -6.641  -2.476  0.00  0.00    +0.012 A 
ATOM      4  C   UNL     1      -1.502  -7.157  -3.616  0.00  0.00    +0.047 A 
ATOM      5  C   UNL     1      -0.229  -7.709  -3.557  0.00  0.00    +0.135 A 
ATOM      6  C   UNL     1       0.454  -7.741  -2.353  0.00  0.00    +0.093 A 
ATOM      7  C   UNL     1      -0.133  -7.221  -1.206  0.00  0.00    +0.138 A 
ATOM      8  O   UNL     1       0.549  -7.260  -0.035  0.00  0.00    -0.441 OA
ATOM      9  C   UNL     1      -0.110  -7.134   1.129  0.00  0.00    +0.199 C 
ATOM     10  C   UNL     1      -1.346  -6.593   1.193  0.00  0.00    +0.098 C 
ENDROOT
BRANCH   1  14
ATOM     11  C   UNL     1      -1.865  -1.834  -0.176  0.00  0.00    +0.162 A 
ATOM     12  C   UNL     1      -0.699  -2.583  -0.181  0.00  0.00    +0.050 A 
ATOM     13  C   UNL     1      -0.764  -3.963  -0.136  0.00  0.00    +0.008 A 
ATOM     14  C   UNL     1      -1.990  -4.599  -0.086  0.00  0.00    -0.031 A 
ATOM     15  C   UNL     1      -3.157  -3.858  -0.082  0.00  0.00    +0.054 A 
ATOM     16  C   UNL     1      -3.099  -2.474  -0.121  0.00  0.00    +0.162 A 
BRANCH  11  17
ATOM     17  O   UNL     1      -1.802  -0.476  -0.220  0.00  0.00    -0.489 OA
BRANCH  17  19
ATOM     18  C   UNL     1      -0.632   1.636  -0.319  0.00  0.00    +0.048 C 
ATOM     19  C   UNL     1      -0.501   0.112  -0.276  0.00  0.00    +0.226 C 
ENDBRANCH  17  19
ENDBRANCH  11  17
BRANCH  16  20
ATOM     20  O   UNL     1      -4.246  -1.743  -0.111  0.00  0.00    -0.489 OA
BRANCH  20  21
ATOM     21  C   UNL     1      -5.476  -2.467  -0.054  0.00  0.00    +0.226 C 
ATOM     22  C   UNL     1      -6.648  -1.483  -0.051  0.00  0.00    +0.048 C 
ENDBRANCH  20  21
ENDBRANCH  16  20
ENDBRANCH   1  14
BRANCH   9  23
ATOM     23  N   UNL     1       0.491  -7.566   2.285  0.00  0.00    -0.328 N 
ATOM     24  H   UNL     1       1.379  -7.955   2.254  0.00  0.00    +0.145 HD
ATOM     25  H   UNL     1       0.028  -7.481   3.133  0.00  0.00    +0.145 HD
ENDBRANCH   9  23
BRANCH  10  26
ATOM     26  C   UNL     1      -1.995  -6.486   2.466  0.00  0.00    +0.101 C 
ATOM     27  N   UNL     1      -2.509  -6.401   3.475  0.00  0.00    -0.191 NA
ENDBRANCH  10  26
BRANCH   5  28
ATOM     28  O   UNL     1       0.345  -8.218  -4.679  0.00  0.00    -0.423 OA
BRANCH  28  29
ATOM     29  C   UNL     1       0.713  -7.355  -5.649  0.00  0.00    +0.337 C 
ATOM     30  O   UNL     1       0.624  -6.156  -5.463  0.00  0.00    -0.245 OA
BRANCH  29  31
ATOM     31  C   UNL     1       1.202  -7.846  -6.886  0.00  0.00    +0.092 C 
ATOM     32  C   UNL     1       1.571  -6.983  -7.857  0.00  0.00    +0.015 C 
BRANCH  32  33
ATOM     33  C   UNL     1       2.078  -7.492  -9.139  0.00  0.00    -0.025 A 
ATOM     34  C   UNL     1       2.175  -8.871  -9.358  0.00  0.00    +0.011 A 
ATOM     35  C   UNL     1       2.651  -9.343 -10.561  0.00  0.00    +0.046 A 
ATOM     36  C   UNL     1       3.034  -8.452 -11.557  0.00  0.00    +0.120 A 
ATOM     37  C   UNL     1       2.940  -7.082 -11.344  0.00  0.00    +0.046 A 
ATOM     38  C   UNL     1       2.461  -6.599 -10.148  0.00  0.00    +0.011 A 
BRANCH  36  39
ATOM     39  O   UNL     1       3.503  -8.922 -12.741  0.00  0.00    -0.495 OA
ATOM     40  C   UNL     1       3.879  -7.953 -13.721  0.00  0.00    +0.277 C 
ENDBRANCH  36  39
ENDBRANCH  32  33
ENDBRANCH  29  31
ENDBRANCH  28  29
ENDBRANCH   5  28
TORSDOF 12
