REMARK  Name = ZINC36083086
REMARK  12 active torsions:
REMARK  status: ('A' for Active; 'I' for Inactive)
REMARK    1  A    between atoms: C_1  and  C_2
REMARK    2  A    between atoms: C_2  and  C_4
REMARK    3  A    between atoms: C_2  and  N_10
REMARK    4  A    between atoms: N_10  and  C_11
REMARK    5  A    between atoms: N_10  and  C_20
REMARK    6  A    between atoms: C_11  and  C_12
REMARK    7  A    between atoms: C_20  and  C_21
REMARK    8  A    between atoms: C_23  and  C_26
REMARK    9  A    between atoms: N_28  and  C_29
REMARK   10  A    between atoms: C_29  and  C_30
REMARK   11  A    between atoms: C_30  and  C_31
REMARK   12  A    between atoms: C_30  and  C_32
REMARK                            x       y       z     vdW  Elec       q    Type
REMARK                         _______ _______ _______ _____ _____    ______ ____
ROOT
ATOM      1  N   UNL     1       0.800  -0.559  -3.236  0.00  0.00    +0.393 N 
ATOM      2  H   UNL     1       1.003  -0.580  -4.224  0.00  0.00    -0.080 HD
ENDROOT
BRANCH   1   4
ATOM      3  C   UNL     1       0.993   1.728  -2.381  0.00  0.00    -0.008 C 
ATOM      4  C   UNL     1       1.705   0.387  -2.570  0.00  0.00    -0.040 C 
BRANCH   4   5
ATOM      5  C   UNL     1       2.935   0.587  -3.417  0.00  0.00    -0.061 A 
ATOM      6  C   UNL     1       2.817   0.713  -4.789  0.00  0.00    +0.002 A 
ATOM      7  C   UNL     1       3.945   0.896  -5.566  0.00  0.00    +0.000 A 
ATOM      8  C   UNL     1       5.192   0.953  -4.972  0.00  0.00    +0.000 A 
ATOM      9  C   UNL     1       5.310   0.827  -3.600  0.00  0.00    +0.000 A 
ATOM     10  C   UNL     1       4.181   0.649  -2.823  0.00  0.00    +0.002 A 
ENDBRANCH   4   5
ENDBRANCH   1   4
BRANCH   1  11
ATOM     11  C   UNL     1      -0.591  -0.132  -3.031  0.00  0.00    -0.041 C 
BRANCH  11  12
ATOM     12  C   UNL     1      -0.876   1.077  -3.884  0.00  0.00    -0.062 A 
ATOM     13  C   UNL     1      -1.523   2.171  -3.339  0.00  0.00    +0.003 A 
ATOM     14  C   UNL     1      -1.786   3.280  -4.120  0.00  0.00    +0.021 A 
ATOM     15  C   UNL     1      -1.401   3.297  -5.449  0.00  0.00    +0.059 A 
ATOM     16  C   UNL     1      -0.753   2.202  -5.995  0.00  0.00    +0.059 A 
ATOM     17  C   UNL     1      -0.486   1.094  -5.210  0.00  0.00    +0.023 A 
ATOM     18 CL   UNL     1      -0.270   2.221  -7.662  0.00  0.00    -0.082 Cl
ATOM     19 CL   UNL     1      -1.731   4.689  -6.431  0.00  0.00    -0.082 Cl
ENDBRANCH  11  12
ENDBRANCH   1  11
BRANCH   1  20
ATOM     20  C   UNL     1       0.989  -1.900  -2.668  0.00  0.00    +0.020 C 
BRANCH  20  21
ATOM     21  C   UNL     1       2.365  -2.405  -3.019  0.00  0.00    +0.179 A 
ATOM     22  N   UNL     1       3.103  -3.163  -2.265  0.00  0.00    -0.210 NA
ATOM     23  C   UNL     1       4.272  -3.410  -2.915  0.00  0.00    +0.163 A 
ATOM     24  C   UNL     1       4.210  -2.762  -4.111  0.00  0.00    +0.230 A 
ATOM     25  O   UNL     1       3.018  -2.147  -4.161  0.00  0.00    -0.449 OA
BRANCH  23  26
ATOM     26  C   UNL     1       5.395  -4.227  -2.419  0.00  0.00    +0.266 C 
ATOM     27  O   UNL     1       6.422  -4.306  -3.066  0.00  0.00    -0.268 OA
ATOM     28  N   UNL     1       5.284  -4.884  -1.248  0.00  0.00    -0.310 N 
ATOM     29  H   UNL     1       4.440  -4.884  -0.769  0.00  0.00    +0.149 HD
BRANCH  28  30
ATOM     30  C   UNL     1       6.438  -5.600  -0.697  0.00  0.00    +0.107 C 
BRANCH  30  31
ATOM     31  C   UNL     1       6.046  -6.255   0.629  0.00  0.00    -0.000 C 
ATOM     32  C   UNL     1       4.987  -7.330   0.373  0.00  0.00    +0.009 C 
ATOM     33  C   UNL     1       7.281  -6.897   1.265  0.00  0.00    +0.009 C 
ENDBRANCH  30  31
ENDBRANCH  28  30
ENDBRANCH  23  26
ENDBRANCH  20  21
ENDBRANCH   1  20
TORSDOF 9
