REMARK  Name = ZINC66486627
REMARK  3 active torsions:
REMARK  status: ('A' for Active; 'I' for Inactive)
REMARK    1  A    between atoms: C_5  and  C_8
REMARK    2  A    between atoms: C_16  and  C_18
REMARK    3  A    between atoms: C_18  and  N_19
REMARK                            x       y       z     vdW  Elec       q    Type
REMARK                         _______ _______ _______ _____ _____    ______ ____
ROOT
ATOM      1  C   UNL     1       0.292   1.677   0.211  0.00  0.00    +0.004 C 
ATOM      2  C   UNL     1       1.792   1.910   0.020  0.00  0.00    +0.019 C 
ATOM      3  C   UNL     1       2.225   1.337  -1.333  0.00  0.00    +0.108 C 
ATOM      4  N   UNL     1       1.820  -0.074  -1.401  0.00  0.00    -0.289 N 
ATOM      5  C   UNL     1       0.415  -0.418  -1.142  0.00  0.00    +0.162 C 
ATOM      6  C   UNL     1       0.002   0.174   0.209  0.00  0.00    +0.032 C 
ATOM      7  C   UNL     1       2.719  -1.033  -1.694  0.00  0.00    +0.234 C 
ATOM      8  O   UNL     1       2.388  -2.200  -1.682  0.00  0.00    -0.274 OA
ENDROOT
BRANCH   5   9
ATOM      9  C   UNL     1       0.261  -1.917  -1.108  0.00  0.00    +0.236 C 
ATOM     10  O   UNL     1       0.768  -2.559  -0.212  0.00  0.00    -0.274 OA
ATOM     11  N   UNL     1      -0.441  -2.545  -2.072  0.00  0.00    -0.296 N 
ATOM     12  C   UNL     1      -0.962  -1.805  -3.233  0.00  0.00    +0.136 C 
ATOM     13  C   UNL     1      -0.546  -2.550  -4.507  0.00  0.00    +0.179 C 
ATOM     14  O   UNL     1      -0.937  -3.920  -4.400  0.00  0.00    -0.377 OA
ATOM     15  C   UNL     1      -0.306  -4.628  -3.330  0.00  0.00    +0.179 C 
ATOM     16  C   UNL     1      -0.705  -3.990  -1.998  0.00  0.00    +0.136 C 
ENDBRANCH   5   9
BRANCH   7  17
ATOM     17  C   UNL     1       4.138  -0.657  -2.038  0.00  0.00    +0.213 C 
BRANCH  17  18
ATOM     18  N   UNL     1       4.911  -1.870  -2.315  0.00  0.00    -0.215 N 
ATOM     19  C   UNL     1       5.588  -2.570  -1.379  0.00  0.00    +0.247 C 
ATOM     20  O   UNL     1       5.668  -2.325  -0.194  0.00  0.00    -0.273 OA
ATOM     21  C   UNL     1       6.220  -3.719  -2.121  0.00  0.00    +0.113 C 
ATOM     22  C   UNL     1       5.732  -5.066  -1.571  0.00  0.00    +0.035 C 
ATOM     23  C   UNL     1       6.970  -5.991  -1.692  0.00  0.00    +0.003 C 
ATOM     24  C   UNL     1       8.146  -5.042  -1.349  0.00  0.00    +0.003 C 
ATOM     25  C   UNL     1       7.744  -3.694  -1.990  0.00  0.00    +0.035 C 
ATOM     26  N   UNL     1       5.800  -3.533  -3.511  0.00  0.00    -0.285 N 
ATOM     27  C   UNL     1       5.031  -2.426  -3.528  0.00  0.00    +0.310 C 
ATOM     28  O   UNL     1       4.509  -1.980  -4.531  0.00  0.00    -0.252 OA
ATOM     29  H   UNL     1       6.027  -4.095  -4.269  0.00  0.00    +0.151 HD
ENDBRANCH  17  18
ENDBRANCH   7  17
TORSDOF 3
