REMARK  Name = ZINC63694477
REMARK  9 active torsions:
REMARK  status: ('A' for Active; 'I' for Inactive)
REMARK    1  A    between atoms: C_7  and  C_10
REMARK    2  A    between atoms: C_10  and  C_11
REMARK    3  A    between atoms: C_11  and  N_12
REMARK    4  A    between atoms: C_13  and  C_15
REMARK    5  A    between atoms: N_17  and  C_18
REMARK    6  A    between atoms: C_18  and  C_19
REMARK    7  A    between atoms: C_19  and  C_21
REMARK    8  A    between atoms: C_19  and  N_26
REMARK    9  A    between atoms: N_29  and  C_32
REMARK                            x       y       z     vdW  Elec       q    Type
REMARK                         _______ _______ _______ _____ _____    ______ ____
ROOT
ATOM      1  C   UNL     1      -1.642  -7.083  -2.323  0.00  0.00    +0.299 C 
ATOM      2  O   UNL     1      -2.173  -7.580  -1.352  0.00  0.00    -0.265 OA
ATOM      3  N   UNL     1      -2.004  -7.472  -3.562  0.00  0.00    -0.306 N 
ATOM      4  H   UNL     1      -1.579  -7.076  -4.338  0.00  0.00    +0.149 HD
ENDROOT
BRANCH   1   6
ATOM      5  N   UNL     1      -0.223  -5.652  -0.907  0.00  0.00    -0.307 N 
ATOM      6  C   UNL     1      -0.585  -6.041  -2.146  0.00  0.00    +0.299 C 
ATOM      7  O   UNL     1      -0.054  -5.545  -3.117  0.00  0.00    -0.265 OA
ATOM      8  H   UNL     1      -0.648  -6.049  -0.131  0.00  0.00    +0.149 HD
BRANCH   5   9
ATOM      9  C   UNL     1       0.812  -4.630  -0.734  0.00  0.00    +0.109 C 
BRANCH   9  10
ATOM     10  C   UNL     1       1.031  -4.375   0.759  0.00  0.00    +0.052 C 
BRANCH  10  17
ATOM     11  C   UNL     1       0.832   0.171   1.353  0.00  0.00    +0.001 A 
ATOM     12  C   UNL     1       2.089   0.777   1.478  0.00  0.00    +0.002 A 
ATOM     13  C   UNL     1       3.244   0.079   1.429  0.00  0.00    +0.026 A 
ATOM     14  C   UNL     1       3.223  -1.331   1.242  0.00  0.00    +0.043 A 
ATOM     15  N   UNL     1       4.188  -2.215   1.160  0.00  0.00    -0.380 N 
ATOM     16  C   UNL     1       3.593  -3.541   0.963  0.00  0.00    +0.144 C 
ATOM     17  C   UNL     1       2.096  -3.324   0.937  0.00  0.00    -0.040 C 
ATOM     18  C   UNL     1       1.907  -1.995   1.106  0.00  0.00    -0.001 A 
ATOM     19  C   UNL     1       0.700  -1.163   1.172  0.00  0.00    +0.010 A 
ATOM     20  H   UNL     1       5.138  -2.023   1.220  0.00  0.00    +0.160 HD
ENDBRANCH  10  17
ENDBRANCH   9  10
ENDBRANCH   5   9
ENDBRANCH   1   6
BRANCH   3  21
ATOM     21  C   UNL     1      -3.039  -8.494  -3.735  0.00  0.00    +0.131 C 
BRANCH  21  22
ATOM     22  C   UNL     1      -3.343  -8.664  -5.225  0.00  0.00    +0.140 C 
BRANCH  22  23
ATOM     23  N   UNL     1      -2.099  -8.954  -5.949  0.00  0.00    -0.288 NA
ATOM     24  C   UNL     1      -2.337  -9.028  -7.397  0.00  0.00    +0.104 C 
ATOM     25  C   UNL     1      -0.995  -9.151  -8.127  0.00  0.00    +0.120 C 
ATOM     26  N   UNL     1      -0.257 -10.289  -7.558  0.00  0.00    -0.325 N 
ATOM     27  C   UNL     1      -0.096 -10.355  -6.098  0.00  0.00    +0.120 C 
ATOM     28  C   UNL     1      -1.473 -10.185  -5.448  0.00  0.00    +0.104 C 
BRANCH  26  29
ATOM     29  C   UNL     1       0.279 -11.282  -8.385  0.00  0.00    +0.065 A 
ATOM     30  C   UNL     1       1.571 -11.157  -8.876  0.00  0.00    +0.026 A 
ATOM     31  C   UNL     1       2.097 -12.139  -9.692  0.00  0.00    +0.002 A 
ATOM     32  C   UNL     1       1.339 -13.248 -10.021  0.00  0.00    +0.003 A 
ATOM     33  C   UNL     1       0.051 -13.377  -9.535  0.00  0.00    +0.040 A 
ATOM     34  C   UNL     1      -0.481 -12.400  -8.713  0.00  0.00    +0.144 A 
ATOM     35  F   UNL     1      -1.737 -12.530  -8.233  0.00  0.00    -0.204 F 
ENDBRANCH  26  29
ENDBRANCH  22  23
BRANCH  22  36
ATOM     36  C   UNL     1      -4.312  -9.803  -5.413  0.00  0.00    +0.123 A 
ATOM     37  C   UNL     1      -5.606  -9.686  -5.761  0.00  0.00    +0.046 A 
ATOM     38  C   UNL     1      -6.133 -10.997  -5.823  0.00  0.00    +0.041 A 
ATOM     39  C   UNL     1      -5.130 -11.836  -5.510  0.00  0.00    +0.195 A 
ATOM     40  O   UNL     1      -4.027 -11.108  -5.268  0.00  0.00    -0.466 OA
ENDBRANCH  22  36
ENDBRANCH  21  22
ENDBRANCH   3  21
TORSDOF 9
