REMARK  Name = ZINC01119454
REMARK  10 active torsions:
REMARK  status: ('A' for Active; 'I' for Inactive)
REMARK    1  A    between atoms: C_1  and  C_2
REMARK    2  A    between atoms: C_2  and  O_3
REMARK    3  A    between atoms: O_3  and  C_4
REMARK    4  A    between atoms: C_6  and  C_15
REMARK    5  A    between atoms: C_9  and  O_10
REMARK    6  A    between atoms: O_10  and  C_11
REMARK    7  A    between atoms: C_11  and  C_12
REMARK    8  A    between atoms: C_18  and  C_29
REMARK    9  A    between atoms: C_24  and  N_28
REMARK   10  A    between atoms: C_25  and  C_26
REMARK                            x       y       z     vdW  Elec       q    Type
REMARK                         _______ _______ _______ _____ _____    ______ ____
ROOT
ATOM      1  C   UNL     1       0.747  -4.973  -0.012  0.00  0.00    +0.102 C 
ATOM      2  C   UNL     1       0.602  -5.923  -1.173  0.00  0.00    +0.054 A 
ATOM      3  C   UNL     1       0.720  -5.671  -2.543  0.00  0.00    +0.102 A 
ATOM      4  N   UNL     1       0.511  -6.805  -3.184  0.00  0.00    -0.171 NA
ATOM      5  N   UNL     1       0.254  -7.808  -2.236  0.00  0.00    -0.246 N 
ATOM      6  H   UNL     1       0.066  -8.739  -2.429  0.00  0.00    +0.192 HD
ATOM      7  C   UNL     1       0.315  -7.247  -1.010  0.00  0.00    +0.223 A 
ATOM      8  O   UNL     1       0.141  -7.815   0.210  0.00  0.00    -0.423 OA
ATOM      9  C   UNL     1       0.524  -7.104   1.290  0.00  0.00    +0.200 C 
ATOM     10  C   UNL     1       0.823  -5.785   1.256  0.00  0.00    +0.098 C 
ENDROOT
BRANCH   3  11
ATOM     11  C   UNL     1       1.027  -4.359  -3.166  0.00  0.00    +0.021 A 
ATOM     12  C   UNL     1       2.086  -3.589  -2.689  0.00  0.00    +0.013 A 
ATOM     13  C   UNL     1       2.368  -2.371  -3.272  0.00  0.00    +0.021 A 
ATOM     14  C   UNL     1       1.600  -1.912  -4.329  0.00  0.00    +0.042 A 
ATOM     15  C   UNL     1       0.547  -2.672  -4.807  0.00  0.00    +0.040 A 
ATOM     16  C   UNL     1       0.260  -3.896  -4.234  0.00  0.00    +0.052 A 
ATOM     17 CL   UNL     1      -1.056  -4.852  -4.839  0.00  0.00    -0.083 Cl
ATOM     18 CL   UNL     1       1.960  -0.378  -5.057  0.00  0.00    -0.083 Cl
ENDBRANCH   3  11
BRANCH   1  21
ATOM     19  C   UNL     1      -1.357  -1.836   0.062  0.00  0.00    +0.162 A 
ATOM     20  C   UNL     1      -0.262  -2.683   0.011  0.00  0.00    +0.054 A 
ATOM     21  C   UNL     1      -0.445  -4.053   0.044  0.00  0.00    -0.031 A 
ATOM     22  C   UNL     1      -1.720  -4.581   0.128  0.00  0.00    +0.008 A 
ATOM     23  C   UNL     1      -2.817  -3.741   0.179  0.00  0.00    +0.050 A 
ATOM     24  C   UNL     1      -2.640  -2.367   0.152  0.00  0.00    +0.163 A 
BRANCH  19  25
ATOM     25  O   UNL     1      -1.178  -0.488   0.030  0.00  0.00    -0.489 OA
BRANCH  25  27
ATOM     26  C   UNL     1       0.168   1.516  -0.087  0.00  0.00    +0.048 C 
ATOM     27  C   UNL     1       0.167  -0.014  -0.064  0.00  0.00    +0.226 C 
ENDBRANCH  25  27
ENDBRANCH  19  25
BRANCH  24  28
ATOM     28  O   UNL     1      -3.717  -1.539   0.209  0.00  0.00    -0.479 OA
BRANCH  28  29
ATOM     29  C   UNL     1      -5.004  -2.155   0.301  0.00  0.00    +0.324 C 
BRANCH  29  30
ATOM     30  C   UNL     1      -6.068  -1.089   0.353  0.00  0.00    +0.248 C 
ATOM     31  O   UNL     1      -5.756   0.082   0.315  0.00  0.00    -0.272 OA
ATOM     32  N   UNL     1      -7.367  -1.438   0.441  0.00  0.00    -0.327 N 
ATOM     33  H   UNL     1      -7.617  -2.374   0.472  0.00  0.00    +0.145 HD
ATOM     34  H   UNL     1      -8.052  -0.751   0.475  0.00  0.00    +0.145 HD
ENDBRANCH  29  30
ENDBRANCH  28  29
ENDBRANCH  24  28
ENDBRANCH   1  21
BRANCH   9  35
ATOM     35  N   UNL     1       0.618  -7.758   2.493  0.00  0.00    -0.328 N 
ATOM     36  H   UNL     1       0.411  -8.704   2.549  0.00  0.00    +0.145 HD
ATOM     37  H   UNL     1       0.892  -7.273   3.288  0.00  0.00    +0.145 HD
ENDBRANCH   9  35
BRANCH  10  38
ATOM     38  C   UNL     1       1.225  -5.137   2.468  0.00  0.00    +0.101 C 
ATOM     39  N   UNL     1       1.544  -4.622   3.429  0.00  0.00    -0.191 NA
ENDBRANCH  10  38
TORSDOF 9
