REMARK  Name = ZINC13127965
REMARK  7 active torsions:
REMARK  status: ('A' for Active; 'I' for Inactive)
REMARK    1  A    between atoms: C_1  and  C_2
REMARK    2  A    between atoms: C_2  and  C_3
REMARK    3  A    between atoms: C_9  and  C_13
REMARK    4  A    between atoms: C_13  and  S_14
REMARK    5  A    between atoms: S_14  and  C_15
REMARK    6  A    between atoms: C_18  and  C_20
REMARK    7  A    between atoms: C_20  and  C_21
REMARK                            x       y       z     vdW  Elec       q    Type
REMARK                         _______ _______ _______ _____ _____    ______ ____
ROOT
ATOM      1  S   UNL     1       0.002  -0.004   0.002  0.00  0.00    -0.059 S 
ENDROOT
BRANCH   1   2
ATOM      2  C   UNL     1       0.859  -0.290  -1.510  0.00  0.00    +0.278 A 
ATOM      3  N   UNL     1       1.309   0.625  -2.335  0.00  0.00    -0.101 NA
ATOM      4  N   UNL     1       1.885   0.053  -3.333  0.00  0.00    -0.112 NA
ATOM      5  C   UNL     1       1.819  -1.238  -3.192  0.00  0.00    +0.219 A 
ATOM      6  O   UNL     1       1.170  -1.489  -2.038  0.00  0.00    -0.416 OA
BRANCH   5   7
ATOM      7  C   UNL     1       2.369  -2.267  -4.146  0.00  0.00    +0.103 C 
BRANCH   7   8
ATOM      8  C   UNL     1       3.811  -2.602  -3.759  0.00  0.00    +0.020 C 
ATOM      9  C   UNL     1       4.337  -3.740  -4.649  0.00  0.00    +0.028 C 
ATOM     10  C   UNL     1       5.871  -3.868  -4.492  0.00  0.00    +0.166 C 
ATOM     11  S   UNL     1       6.376  -2.155  -4.052  0.00  0.00    -0.031 S 
ATOM     12  O   UNL     1       6.943  -2.160  -2.749  0.00  0.00    -0.174 OA
ATOM     13  O   UNL     1       7.112  -1.597  -5.133  0.00  0.00    -0.174 OA
ATOM     14  C   UNL     1       4.717  -1.357  -3.980  0.00  0.00    +0.170 C 
ENDBRANCH   7   8
ENDBRANCH   5   7
ENDBRANCH   1   2
BRANCH   1  15
ATOM     15  C   UNL     1      -0.022   1.806   0.012  0.00  0.00    +0.134 C 
BRANCH  15  22
ATOM     16  C   UNL     1      -4.153   3.432   4.513  0.00  0.00    +0.102 A 
ATOM     17  N   UNL     1      -2.863   3.568   4.565  0.00  0.00    -0.159 NA
ATOM     18  N   UNL     1      -2.044   3.175   3.511  0.00  0.00    -0.171 N 
ATOM     19  C   UNL     1      -0.683   3.264   3.445  0.00  0.00    +0.275 A 
ATOM     20  O   UNL     1      -0.054   3.732   4.381  0.00  0.00    -0.266 OA
ATOM     21  C   UNL     1      -0.012   2.819   2.305  0.00  0.00    +0.096 A 
ATOM     22  C   UNL     1      -0.728   2.292   1.252  0.00  0.00    +0.060 A 
ATOM     23  N   UNL     1      -2.053   2.224   1.347  0.00  0.00    -0.225 NA
ATOM     24  C   UNL     1      -2.675   2.639   2.422  0.00  0.00    +0.199 A 
ATOM     25  S   UNL     1      -4.387   2.700   2.901  0.00  0.00    -0.033 S 
BRANCH  16  27
ATOM     26  C   UNL     1      -4.493   4.400   6.771  0.00  0.00    +0.011 C 
ATOM     27  C   UNL     1      -5.186   3.799   5.547  0.00  0.00    +0.061 C 
ENDBRANCH  16  27
ENDBRANCH  15  22
ENDBRANCH   1  15
TORSDOF 6
