REMARK  Name = ZINC20347945
REMARK  11 active torsions:
REMARK  status: ('A' for Active; 'I' for Inactive)
REMARK    1  A    between atoms: C_1  and  C_2
REMARK    2  A    between atoms: C_2  and  O_3
REMARK    3  A    between atoms: O_3  and  C_4
REMARK    4  A    between atoms: C_9  and  C_10
REMARK    5  A    between atoms: C_12  and  C_36
REMARK    6  A    between atoms: C_13  and  S_27
REMARK    7  A    between atoms: C_15  and  C_26
REMARK    8  A    between atoms: C_16  and  C_17
REMARK    9  A    between atoms: N_19  and  C_20
REMARK   10  A    between atoms: S_27  and  C_28
REMARK   11  A    between atoms: C_28  and  C_29
REMARK                            x       y       z     vdW  Elec       q    Type
REMARK                         _______ _______ _______ _____ _____    ______ ____
ROOT
ATOM      1  C   UNL     1       1.180  -2.248  -0.019  0.00  0.00    +0.102 C 
ATOM      2  C   UNL     1       1.871  -2.755   1.215  0.00  0.00    +0.069 C 
ATOM      3  C   UNL     1       3.148  -3.218   1.169  0.00  0.00    +0.080 C 
ATOM      4  N   UNL     1       3.841  -3.240  -0.022  0.00  0.00    -0.312 N 
ATOM      5  C   UNL     1       3.169  -3.146  -1.210  0.00  0.00    +0.014 C 
ATOM      6  C   UNL     1       1.908  -2.686  -1.257  0.00  0.00    +0.044 C 
ATOM      7  C   UNL     1       3.854  -3.564  -2.485  0.00  0.00    +0.061 C 
ATOM      8  H   UNL     1       4.937  -3.334  -0.019  0.00  0.00    +0.152 HD
ENDROOT
BRANCH   1  14
ATOM      9  C   UNL     1      -0.087  -0.084   0.036  0.00  0.00    +0.125 A 
ATOM     10  C   UNL     1      -0.125   1.302   0.075  0.00  0.00    +0.046 A 
ATOM     11  C   UNL     1       1.052   2.024   0.099  0.00  0.00    +0.004 A 
ATOM     12  C   UNL     1       2.269   1.366   0.085  0.00  0.00    +0.001 A 
ATOM     13  C   UNL     1       2.309  -0.015   0.047  0.00  0.00    +0.008 A 
ATOM     14  C   UNL     1       1.135  -0.742   0.022  0.00  0.00    +0.007 A 
BRANCH   9  15
ATOM     15  O   UNL     1      -1.244  -0.797   0.013  0.00  0.00    -0.492 OA
BRANCH  15  17
ATOM     16  C   UNL     1      -3.650  -1.019  -0.002  0.00  0.00    +0.048 C 
ATOM     17  C   UNL     1      -2.464  -0.053   0.029  0.00  0.00    +0.225 C 
ENDBRANCH  15  17
ENDBRANCH   9  15
ENDBRANCH   1  14
BRANCH   6  18
ATOM     18  C   UNL     1       1.248  -2.613  -2.507  0.00  0.00    +0.247 C 
ATOM     19  O   UNL     1       0.457  -3.481  -2.830  0.00  0.00    -0.270 OA
ATOM     20  N   UNL     1       1.494  -1.583  -3.340  0.00  0.00    -0.282 N 
ATOM     21  H   UNL     1       2.272  -0.847  -3.089  0.00  0.00    +0.155 HD
BRANCH  20  22
ATOM     22  C   UNL     1       0.761  -1.450  -4.524  0.00  0.00    +0.034 A 
ATOM     23  C   UNL     1       1.368  -0.941  -5.665  0.00  0.00    +0.023 A 
ATOM     24  C   UNL     1       0.643  -0.816  -6.834  0.00  0.00    +0.002 A 
ATOM     25  C   UNL     1      -0.688  -1.187  -6.866  0.00  0.00    +0.000 A 
ATOM     26  C   UNL     1      -1.297  -1.689  -5.731  0.00  0.00    +0.002 A 
ATOM     27  C   UNL     1      -0.576  -1.822  -4.560  0.00  0.00    +0.023 A 
ENDBRANCH  20  22
ENDBRANCH   6  18
BRANCH   2  28
ATOM     28  C   UNL     1       1.170  -2.751   2.464  0.00  0.00    +0.098 C 
ATOM     29  N   UNL     1       0.614  -2.748   3.455  0.00  0.00    -0.191 NA
ENDBRANCH   2  28
BRANCH   3  30
ATOM     30  S   UNL     1       3.924  -3.795   2.642  0.00  0.00    -0.100 S 
BRANCH  30  31
ATOM     31  C   UNL     1       5.543  -4.263   1.982  0.00  0.00    +0.171 C 
BRANCH  31  32
ATOM     32  C   UNL     1       6.403  -4.800   3.097  0.00  0.00    +0.226 C 
ATOM     33  O   UNL     1       5.965  -4.860   4.226  0.00  0.00    -0.275 OA
ATOM     34  N   UNL     1       7.660  -5.214   2.839  0.00  0.00    -0.301 N 
ATOM     35  C   UNL     1       8.312  -5.203   1.522  0.00  0.00    +0.108 C 
ATOM     36  C   UNL     1       9.729  -5.787   1.706  0.00  0.00    +0.020 C 
ATOM     37  C   UNL     1       9.590  -6.624   3.005  0.00  0.00    +0.020 C 
ATOM     38  C   UNL     1       8.606  -5.758   3.830  0.00  0.00    +0.108 C 
ENDBRANCH  31  32
ENDBRANCH  30  31
ENDBRANCH   3  30
TORSDOF 9
