REMARK  Name = ZINC33671634
REMARK  9 active torsions:
REMARK  status: ('A' for Active; 'I' for Inactive)
REMARK    1  A    between atoms: C_1  and  C_2
REMARK    2  A    between atoms: C_9  and  N_30
REMARK    3  A    between atoms: C_10  and  C_13
REMARK    4  A    between atoms: N_17  and  C_21
REMARK    5  A    between atoms: C_21  and  C_22
REMARK    6  A    between atoms: C_25  and  O_28
REMARK    7  A    between atoms: O_28  and  C_29
REMARK    8  A    between atoms: N_30  and  C_31
REMARK    9  A    between atoms: C_31  and  C_32
REMARK                            x       y       z     vdW  Elec       q    Type
REMARK                         _______ _______ _______ _____ _____    ______ ____
ROOT
ATOM      1  C   UNL     1       3.454   3.676   0.246  0.00  0.00    +0.047 C 
ATOM      2  C   UNL     1       3.499   2.194  -0.025  0.00  0.00    -0.007 A 
ATOM      3  C   UNL     1       4.689   1.578  -0.276  0.00  0.00    +0.008 A 
ATOM      4  C   UNL     1       4.715   0.199  -0.525  0.00  0.00    +0.019 A 
ATOM      5  C   UNL     1       3.566  -0.513  -0.517  0.00  0.00    +0.096 A 
ATOM      6  N   UNL     1       2.370   0.093  -0.266  0.00  0.00    -0.267 N 
ATOM      7  C   UNL     1       2.314   1.437  -0.019  0.00  0.00    +0.145 A 
ATOM      8  N   UNL     1       1.155   2.047   0.229  0.00  0.00    -0.214 NA
ATOM      9  C   UNL     1       0.008   1.383   0.246  0.00  0.00    +0.134 A 
ATOM     10  C   UNL     1       0.005  -0.009  -0.003  0.00  0.00    +0.081 A 
ATOM     11  C   UNL     1       1.241  -0.648  -0.264  0.00  0.00    +0.267 A 
ATOM     12  O   UNL     1       1.286  -1.846  -0.484  0.00  0.00    -0.267 OA
ENDROOT
BRANCH  10  13
ATOM     13  C   UNL     1      -1.202  -0.746   0.009  0.00  0.00    +0.037 C 
ATOM     14  C   UNL     1      -1.419  -1.686   0.974  0.00  0.00    +0.077 C 
ATOM     15  C   UNL     1      -0.628  -2.016   2.111  0.00  0.00    +0.259 C 
ATOM     16  O   UNL     1       0.415  -1.429   2.341  0.00  0.00    -0.269 OA
ATOM     17  N   UNL     1      -1.056  -2.978   2.910  0.00  0.00    -0.251 N 
ATOM     18  C   UNL     1      -2.213  -3.630   2.655  0.00  0.00    +0.121 C 
ATOM     19  S   UNL     1      -2.951  -4.893   3.543  0.00  0.00    -0.027 S 
ATOM     20  S   UNL     1      -2.778  -2.832   1.160  0.00  0.00    -0.061 S 
BRANCH  17  21
ATOM     21  C   UNL     1      -0.267  -3.343   4.089  0.00  0.00    +0.150 C 
BRANCH  21  22
ATOM     22  C   UNL     1      -0.706  -2.510   5.265  0.00  0.00    -0.029 A 
ATOM     23  C   UNL     1      -0.092  -1.298   5.521  0.00  0.00    +0.009 A 
ATOM     24  C   UNL     1      -0.497  -0.530   6.596  0.00  0.00    +0.046 A 
ATOM     25  C   UNL     1      -1.514  -0.981   7.425  0.00  0.00    +0.120 A 
ATOM     26  C   UNL     1      -2.125  -2.200   7.170  0.00  0.00    +0.046 A 
ATOM     27  C   UNL     1      -1.720  -2.962   6.090  0.00  0.00    +0.009 A 
BRANCH  25  28
ATOM     28  O   UNL     1      -1.910  -0.230   8.486  0.00  0.00    -0.495 OA
ATOM     29  C   UNL     1      -1.237   1.014   8.688  0.00  0.00    +0.277 C 
ENDBRANCH  25  28
ENDBRANCH  21  22
ENDBRANCH  17  21
ENDBRANCH  10  13
BRANCH   9  30
ATOM     30  N   UNL     1      -1.173   2.045   0.500  0.00  0.00    -0.326 N 
ATOM     31  H   UNL     1      -2.123   1.491   0.509  0.00  0.00    +0.148 HD
BRANCH  30  32
ATOM     32  C   UNL     1      -1.164   3.487   0.757  0.00  0.00    +0.134 C 
BRANCH  32  33
ATOM     33  C   UNL     1      -2.595   3.970   1.006  0.00  0.00    +0.135 C 
ATOM     34  C   UNL     1      -2.616   5.506   1.210  0.00  0.00    +0.035 C 
ATOM     35  C   UNL     1      -4.076   5.837   0.797  0.00  0.00    +0.031 C 
ATOM     36  C   UNL     1      -4.342   4.808  -0.322  0.00  0.00    +0.160 C 
ATOM     37  O   UNL     1      -3.410   3.734  -0.153  0.00  0.00    -0.375 OA
ENDBRANCH  32  33
ENDBRANCH  30  32
ENDBRANCH   9  30
TORSDOF 7
