REMARK  Name = ZINC58997249
REMARK  8 active torsions:
REMARK  status: ('A' for Active; 'I' for Inactive)
REMARK    1  A    between atoms: C_3  and  O_32
REMARK    2  A    between atoms: C_4  and  C_10
REMARK    3  A    between atoms: C_6  and  N_7
REMARK    4  A    between atoms: N_11  and  N_12
REMARK    5  A    between atoms: C_15  and  S_18
REMARK    6  A    between atoms: S_18  and  C_19
REMARK    7  A    between atoms: C_19  and  C_20
REMARK    8  A    between atoms: C_20  and  C_22
REMARK                            x       y       z     vdW  Elec       q    Type
REMARK                         _______ _______ _______ _____ _____    ______ ____
ROOT
ATOM      1  N   UNL     1       5.883  -0.591  -0.822  0.00  0.00    -0.205 N 
ATOM      2  C   UNL     1       7.048   0.080  -0.724  0.00  0.00    +0.232 A 
ATOM      3  N   UNL     1       7.193   1.384  -0.504  0.00  0.00    -0.186 NA
ATOM      4  C   UNL     1       8.495   1.643  -0.478  0.00  0.00    +0.210 A 
ATOM      5  N   UNL     1       9.159   0.501  -0.681  0.00  0.00    -0.144 NA
ATOM      6  N   UNL     1       8.307  -0.455  -0.826  0.00  0.00    -0.245 N 
ATOM      7  H   UNL     1       5.886  -1.548  -0.980  0.00  0.00    +0.177 HD
ATOM      8  H   UNL     1       8.519  -1.389  -0.982  0.00  0.00    +0.192 HD
ENDROOT
BRANCH   1  10
ATOM      9  C   UNL     1       3.613  -0.622  -0.803  0.00  0.00    +0.142 C 
ATOM     10  N   UNL     1       4.764   0.040  -0.706  0.00  0.00    -0.187 NA
BRANCH   9  14
ATOM     11  C   UNL     1      -0.023   1.430  -0.426  0.00  0.00    +0.036 A 
ATOM     12  C   UNL     1       1.149   2.153  -0.319  0.00  0.00    +0.048 A 
ATOM     13  C   UNL     1       2.373   1.512  -0.437  0.00  0.00    +0.126 A 
ATOM     14  C   UNL     1       2.394   0.066  -0.676  0.00  0.00    +0.038 A 
ATOM     15  C   UNL     1       1.165  -0.623  -0.777  0.00  0.00    +0.045 A 
ATOM     16  C   UNL     1      -0.007   0.058  -0.653  0.00  0.00    +0.127 A 
BRANCH  16  17
ATOM     17  N   UNL     1      -1.288  -0.676  -0.762  0.00  0.00    +0.056 N 
ATOM     18  O   UNL     1      -2.429  -0.029  -0.643  0.00  0.00    -0.126 OA
ATOM     19  O   UNL     1      -1.287  -1.975  -0.977  0.00  0.00    -0.126 OA
ENDBRANCH  16  17
BRANCH  13  20
ATOM     20  O   UNL     1       3.528   2.209  -0.335  0.00  0.00    -0.506 OA
ATOM     21  H   UNL     1       3.873   2.268   0.567  0.00  0.00    +0.292 HD
ENDBRANCH  13  20
ENDBRANCH   9  14
ENDBRANCH   1  10
BRANCH   4  22
ATOM     22  S   UNL     1       9.225   3.225  -0.219  0.00  0.00    -0.077 S 
BRANCH  22  23
ATOM     23  C   UNL     1      11.009   2.904  -0.298  0.00  0.00    +0.152 C 
BRANCH  23  24
ATOM     24  C   UNL     1      11.761   4.193  -0.089  0.00  0.00    +0.147 C 
ATOM     25  O   UNL     1      11.157   5.222   0.093  0.00  0.00    -0.296 OA
BRANCH  24  26
ATOM     26  C   UNL     1      13.268   4.197  -0.109  0.00  0.00    +0.062 C 
ATOM     27  C   UNL     1      13.797   3.577   1.186  0.00  0.00    +0.000 C 
ATOM     28  C   UNL     1      15.327   3.581   1.166  0.00  0.00    +0.007 C 
ATOM     29  C   UNL     1      15.831   5.021   1.048  0.00  0.00    -0.010 C 
ATOM     30  C   UNL     1      15.334   5.835   2.244  0.00  0.00    +0.007 C 
ATOM     31  C   UNL     1      13.804   5.831   2.264  0.00  0.00    -0.010 C 
ATOM     32  C   UNL     1      13.300   4.391   2.382  0.00  0.00    +0.007 C 
ATOM     33  C   UNL     1      13.275   6.452   0.969  0.00  0.00    +0.007 C 
ATOM     34  C   UNL     1      13.772   5.637  -0.227  0.00  0.00    +0.000 C 
ATOM     35  C   UNL     1      15.302   5.642  -0.247  0.00  0.00    +0.007 C 
ENDBRANCH  24  26
ENDBRANCH  23  24
ENDBRANCH  22  23
ENDBRANCH   4  22
TORSDOF 8
