REMARK  Name = ZINC13958096
REMARK  7 active torsions:
REMARK  status: ('A' for Active; 'I' for Inactive)
REMARK    1  A    between atoms: C_1  and  C_2
REMARK    2  A    between atoms: C_5  and  C_9
REMARK    3  A    between atoms: C_7  and  C_8
REMARK    4  A    between atoms: C_12  and  C_33
REMARK    5  A    between atoms: C_18  and  C_20
REMARK    6  A    between atoms: C_23  and  C_28
REMARK    7  A    between atoms: C_25  and  C_27
REMARK                            x       y       z     vdW  Elec       q    Type
REMARK                         _______ _______ _______ _____ _____    ______ ____
ROOT
ATOM      1  C   UNL     1       0.059  -4.275  -0.021  0.00  0.00    +0.113 C 
ATOM      2  C   UNL     1       1.488  -4.760  -0.270  0.00  0.00    +0.062 C 
ATOM      3  C   UNL     1       1.964  -4.285  -1.652  0.00  0.00    +0.201 C 
ATOM      4  N   UNL     1       0.950  -4.701  -2.626  0.00  0.00    -0.226 N 
ATOM      5  C   UNL     1      -0.375  -4.933  -2.278  0.00  0.00    +0.114 C 
ATOM      6  N   UNL     1      -0.840  -4.765  -1.073  0.00  0.00    -0.365 N 
ATOM      7  C   UNL     1      -1.058  -5.366  -3.495  0.00  0.00    +0.072 C 
ATOM      8  C   UNL     1      -0.142  -5.354  -4.496  0.00  0.00    +0.112 C 
ATOM      9  N   UNL     1       1.080  -4.941  -3.990  0.00  0.00    -0.258 N 
ATOM     10  H   UNL     1       1.895  -4.836  -4.504  0.00  0.00    +0.170 HD
ATOM     11  H   UNL     1      -1.769  -4.962  -0.873  0.00  0.00    +0.161 HD
ENDROOT
BRANCH   8  12
ATOM     12  C   UNL     1      -0.406  -5.723  -5.902  0.00  0.00    +0.284 C 
ATOM     13  O   UNL     1       0.491  -5.677  -6.722  0.00  0.00    -0.267 OA
ATOM     14  N   UNL     1      -1.641  -6.111  -6.277  0.00  0.00    -0.144 N 
ATOM     15  C   UNL     1      -2.040  -6.510  -7.637  0.00  0.00    +0.291 C 
ATOM     16  C   UNL     1      -3.537  -6.846  -7.483  0.00  0.00    +0.122 C 
ATOM     17  C   UNL     1      -3.814  -6.591  -6.018  0.00  0.00    +0.039 C 
ATOM     18  N   UNL     1      -2.751  -6.207  -5.440  0.00  0.00    -0.183 NA
ATOM     19  C   UNL     1      -5.150  -6.772  -5.345  0.00  0.00    +0.062 C 
ATOM     20  O   UNL     1      -1.857  -5.429  -8.554  0.00  0.00    -0.195 OA
BRANCH  15  21
ATOM     21  C   UNL     1      -1.254  -7.742  -8.091  0.00  0.00    +0.441 C 
ATOM     22  F   UNL     1      -1.480  -8.794  -7.197  0.00  0.00    -0.166 F 
ATOM     23  F   UNL     1      -1.675  -8.119  -9.370  0.00  0.00    -0.166 F 
ATOM     24  F   UNL     1       0.112  -7.440  -8.119  0.00  0.00    -0.166 F 
ENDBRANCH  15  21
ENDBRANCH   8  12
BRANCH   1  29
ATOM     25  C   UNL     1      -0.018   1.503   0.010  0.00  0.00    +0.044 C 
ATOM     26  C   UNL     1       0.002  -0.004   0.002  0.00  0.00    -0.048 A 
ATOM     27  C   UNL     1       0.006  -0.689  -1.199  0.00  0.00    +0.004 A 
ATOM     28  C   UNL     1       0.025  -2.071  -1.207  0.00  0.00    +0.006 A 
ATOM     29  C   UNL     1       0.040  -2.768  -0.013  0.00  0.00    -0.025 A 
ATOM     30  C   UNL     1       0.037  -2.084   1.188  0.00  0.00    +0.009 A 
ATOM     31  C   UNL     1       0.023  -0.702   1.195  0.00  0.00    -0.047 A 
ATOM     32  C   UNL     1       0.025   0.045   2.504  0.00  0.00    +0.044 C 
ENDBRANCH   1  29
BRANCH   3  33
ATOM     33  C   UNL     1       3.310  -4.929  -1.990  0.00  0.00    +0.410 C 
ATOM     34  F   UNL     1       3.170  -6.321  -2.004  0.00  0.00    -0.169 F 
ATOM     35  F   UNL     1       3.734  -4.490  -3.249  0.00  0.00    -0.169 F 
ATOM     36  F   UNL     1       4.256  -4.565  -1.026  0.00  0.00    -0.169 F 
ENDBRANCH   3  33
TORSDOF 4
