REMARK  Name = ZINC12833248
REMARK  9 active torsions:
REMARK  status: ('A' for Active; 'I' for Inactive)
REMARK    1  A    between atoms: C_1  and  C_2
REMARK    2  A    between atoms: C_4  and  C_34
REMARK    3  A    between atoms: C_7  and  C_14
REMARK    4  A    between atoms: C_14  and  N_65
REMARK    5  A    between atoms: C_15  and  C_16
REMARK    6  A    between atoms: C_15  and  N_65
REMARK    7  A    between atoms: C_22  and  C_23
REMARK    8  A    between atoms: C_22  and  N_65
REMARK    9  A    between atoms: N_27  and  C_28
REMARK                            x       y       z     vdW  Elec       q    Type
REMARK                         _______ _______ _______ _____ _____    ______ ____
ROOT
ATOM      1  N   UNL     1       2.697   1.721  -1.415  0.00  0.00    +0.390 N 
ATOM      2  H   UNL     1       1.999   1.250  -2.003  0.00  0.00    -0.080 HD
ENDROOT
BRANCH   1   3
ATOM      3  C   UNL     1       3.892   0.859  -1.304  0.00  0.00    -0.036 C 
BRANCH   3  10
ATOM      4  C   UNL     1       1.578  -6.774  -1.276  0.00  0.00    +0.044 C 
ATOM      5  C   UNL     1       2.029  -5.356  -1.513  0.00  0.00    -0.048 A 
ATOM      6  C   UNL     1       2.283  -4.924  -2.808  0.00  0.00    +0.007 A 
ATOM      7  C   UNL     1       2.693  -3.642  -3.045  0.00  0.00    -0.041 A 
ATOM      8  C   UNL     1       2.860  -2.758  -1.974  0.00  0.00    +0.002 A 
ATOM      9  C   UNL     1       3.293  -1.377  -2.192  0.00  0.00    +0.017 A 
ATOM     10  C   UNL     1       3.443  -0.567  -1.115  0.00  0.00    +0.001 A 
ATOM     11  C   UNL     1       3.174  -1.053   0.183  0.00  0.00    +0.251 A 
ATOM     12  O   UNL     1       3.310  -0.307   1.137  0.00  0.00    -0.268 OA
ATOM     13  N   UNL     1       2.770  -2.318   0.393  0.00  0.00    -0.322 N 
ATOM     14  H   UNL     1       2.594  -2.620   1.298  0.00  0.00    +0.169 HD
ATOM     15  C   UNL     1       2.604  -3.193  -0.660  0.00  0.00    +0.050 A 
ATOM     16  C   UNL     1       2.187  -4.503  -0.443  0.00  0.00    +0.029 A 
ATOM     17  C   UNL     1       2.964  -3.183  -4.454  0.00  0.00    +0.044 C 
ENDBRANCH   3  10
ENDBRANCH   1   3
BRANCH   1  18
ATOM     18  C   UNL     1       3.060   3.010  -2.040  0.00  0.00    -0.040 C 
BRANCH  18  19
ATOM     19  C   UNL     1       3.300   2.785  -3.510  0.00  0.00    -0.046 A 
ATOM     20  C   UNL     1       4.587   2.597  -3.992  0.00  0.00    +0.005 A 
ATOM     21  C   UNL     1       4.758   2.389  -5.351  0.00  0.00    +0.020 A 
ATOM     22  C   UNL     1       3.650   2.385  -6.178  0.00  0.00    +0.111 A 
ATOM     23  N   UNL     1       2.441   2.572  -5.686  0.00  0.00    -0.263 NA
ATOM     24  C   UNL     1       2.240   2.769  -4.397  0.00  0.00    +0.112 A 
ENDBRANCH  18  19
ENDBRANCH   1  18
BRANCH   1  25
ATOM     25  C   UNL     1       2.117   1.955  -0.075  0.00  0.00    +0.001 C 
BRANCH  25  26
ATOM     26  C   UNL     1       0.787   2.645  -0.235  0.00  0.00    +0.135 A 
ATOM     27  N   UNL     1       0.575   3.938  -0.258  0.00  0.00    -0.115 NA
ATOM     28  N   UNL     1      -0.690   4.131  -0.412  0.00  0.00    -0.023 NA
ATOM     29  N   UNL     1      -1.289   2.995  -0.493  0.00  0.00    -0.044 NA
ATOM     30  N   UNL     1      -0.413   2.054  -0.383  0.00  0.00    -0.228 N 
BRANCH  30  31
ATOM     31  C   UNL     1      -0.674   0.613  -0.418  0.00  0.00    +0.111 C 
ATOM     32  C   UNL     1      -1.318   0.244  -1.756  0.00  0.00    +0.027 C 
ATOM     33  C   UNL     1      -1.591  -1.261  -1.793  0.00  0.00    +0.002 C 
ATOM     34  C   UNL     1      -2.538  -1.635  -0.651  0.00  0.00    +0.000 C 
ATOM     35  C   UNL     1      -1.894  -1.267   0.687  0.00  0.00    +0.002 C 
ATOM     36  C   UNL     1      -1.621   0.238   0.724  0.00  0.00    +0.027 C 
ENDBRANCH  30  31
ENDBRANCH  25  26
ENDBRANCH   1  25
TORSDOF 7
