REMARK  Name = ZINC39599253
REMARK  12 active torsions:
REMARK  status: ('A' for Active; 'I' for Inactive)
REMARK    1  A    between atoms: C_1  and  C_2
REMARK    2  A    between atoms: C_2  and  C_3
REMARK    3  A    between atoms: C_3  and  C_4
REMARK    4  A    between atoms: C_4  and  C_5
REMARK    5  A    between atoms: C_5  and  C_6
REMARK    6  A    between atoms: C_6  and  C_7
REMARK    7  A    between atoms: C_11  and  C_20
REMARK    8  A    between atoms: N_22  and  C_23
REMARK    9  A    between atoms: C_23  and  C_24
REMARK   10  A    between atoms: C_24  and  C_25
REMARK   11  A    between atoms: C_28  and  O_34
REMARK   12  A    between atoms: O_34  and  C_35
REMARK                            x       y       z     vdW  Elec       q    Type
REMARK                         _______ _______ _______ _____ _____    ______ ____
ROOT
ATOM      1  C   UNL     1      -4.401  -4.666  -0.016  0.00  0.00    +0.216 C 
ATOM      2  O   UNL     1      -5.351  -3.915   0.052  0.00  0.00    -0.276 OA
ATOM      3  N   UNL     1      -4.593  -6.000   0.014  0.00  0.00    -0.300 N 
ATOM      4  C   UNL     1      -3.566  -7.066  -0.050  0.00  0.00    +0.121 C 
ATOM      5  C   UNL     1      -4.055  -8.139   0.949  0.00  0.00    +0.100 C 
ATOM      6  C   UNL     1      -5.573  -7.915   1.054  0.00  0.00    -0.004 C 
ATOM      7  C   UNL     1      -5.878  -6.731   0.125  0.00  0.00    +0.115 C 
ATOM      8  C   UNL     1      -6.324  -9.159   0.589  0.00  0.00    -0.010 C 
ATOM      9  C   UNL     1      -7.829  -8.933   0.757  0.00  0.00    -0.082 C 
ATOM     10  N   UNL     1      -8.130  -8.653   2.167  0.00  0.00    +0.379 N 
ATOM     11  C   UNL     1      -7.478  -7.405   2.579  0.00  0.00    -0.082 C 
ATOM     12  C   UNL     1      -5.958  -7.566   2.488  0.00  0.00    -0.010 C 
ATOM     13  H   UNL     1      -9.128  -8.565   2.285  0.00  0.00    -0.086 HD
ATOM     14  H   UNL     1      -7.792  -9.413   2.739  0.00  0.00    -0.086 HD
ENDROOT
BRANCH   5  15
ATOM     15  C   UNL     1      -3.761  -9.520   0.421  0.00  0.00    +0.218 C 
ATOM     16  O   UNL     1      -3.749  -9.722  -0.774  0.00  0.00    -0.275 OA
ATOM     17  N   UNL     1      -3.512 -10.530   1.279  0.00  0.00    -0.315 N 
ATOM     18  H   UNL     1      -3.522 -10.368   2.235  0.00  0.00    +0.149 HD
BRANCH  17  19
ATOM     19  C   UNL     1      -3.227 -11.872   0.766  0.00  0.00    +0.109 C 
BRANCH  19  20
ATOM     20  C   UNL     1      -2.982 -12.824   1.938  0.00  0.00    +0.056 C 
BRANCH  20  21
ATOM     21  C   UNL     1      -2.688 -14.205   1.411  0.00  0.00    -0.021 A 
ATOM     22  C   UNL     1      -1.384 -14.713   0.978  0.00  0.00    +0.006 A 
ATOM     23  C   UNL     1      -0.103 -14.161   0.911  0.00  0.00    +0.056 A 
ATOM     24  C   UNL     1       0.946 -14.927   0.442  0.00  0.00    +0.121 A 
ATOM     25  C   UNL     1       0.729 -16.242   0.039  0.00  0.00    +0.047 A 
ATOM     26  C   UNL     1      -0.530 -16.797   0.101  0.00  0.00    +0.030 A 
ATOM     27  C   UNL     1      -1.599 -16.042   0.570  0.00  0.00    +0.047 A 
ATOM     28  N   UNL     1      -2.941 -16.308   0.747  0.00  0.00    -0.360 N 
ATOM     29  C   UNL     1      -3.571 -15.204   1.254  0.00  0.00    +0.087 A 
ATOM     30  H   UNL     1      -3.373 -17.153   0.546  0.00  0.00    +0.165 HD
BRANCH  24  31
ATOM     31  O   UNL     1       2.196 -14.395   0.374  0.00  0.00    -0.495 OA
ATOM     32  C   UNL     1       3.235 -15.242  -0.121  0.00  0.00    +0.277 C 
ENDBRANCH  24  31
ENDBRANCH  20  21
ENDBRANCH  19  20
ENDBRANCH  17  19
ENDBRANCH   5  15
BRANCH   1  33
ATOM     33  C   UNL     1      -3.006  -4.107  -0.133  0.00  0.00    +0.096 C 
BRANCH  33  34
ATOM     34  C   UNL     1      -3.068  -2.579  -0.145  0.00  0.00    +0.009 C 
BRANCH  34  35
ATOM     35  C   UNL     1      -1.652  -2.012  -0.264  0.00  0.00    +0.000 C 
BRANCH  35  36
ATOM     36  C   UNL     1      -1.714  -0.483  -0.276  0.00  0.00    -0.000 C 
BRANCH  36  38
ATOM     37  C   UNL     1      -0.360   1.612  -0.407  0.00  0.00    +0.004 C 
ATOM     38  C   UNL     1      -0.298   0.084  -0.395  0.00  0.00    -0.003 C 
ENDBRANCH  36  38
ENDBRANCH  35  36
ENDBRANCH  34  35
ENDBRANCH  33  34
ENDBRANCH   1  33
TORSDOF 10
