REMARK  Name = ZINC61886270
REMARK  4 active torsions:
REMARK  status: ('A' for Active; 'I' for Inactive)
REMARK    1  A    between atoms: C_4  and  C_8
REMARK    2  A    between atoms: N_10  and  C_11
REMARK    3  A    between atoms: C_16  and  C_18
REMARK    4  A    between atoms: N_19  and  O_20
REMARK                            x       y       z     vdW  Elec       q    Type
REMARK                         _______ _______ _______ _____ _____    ______ ____
ROOT
ATOM      1  C   UNL     1       3.899  -0.531   0.121  0.00  0.00    +0.247 C 
ATOM      2  O   UNL     1       4.504  -0.820   1.135  0.00  0.00    -0.270 OA
ATOM      3  N   UNL     1       4.382  -0.902  -1.082  0.00  0.00    -0.308 N 
ATOM      4  H   UNL     1       3.864  -0.735  -1.885  0.00  0.00    +0.149 HD
ENDROOT
BRANCH   1   8
ATOM      5  C   UNL     1       0.260   1.647   0.366  0.00  0.00    +0.003 A 
ATOM      6  C   UNL     1       1.461   2.324   0.255  0.00  0.00    +0.021 A 
ATOM      7  C   UNL     1       2.648   1.623   0.174  0.00  0.00    +0.054 A 
ATOM      8  C   UNL     1       2.634   0.226   0.206  0.00  0.00    +0.073 A 
ATOM      9  C   UNL     1       1.416  -0.451   0.319  0.00  0.00    +0.054 A 
ATOM     10  C   UNL     1       0.237   0.264   0.398  0.00  0.00    +0.021 A 
ATOM     11 CL   UNL     1       1.386  -2.186   0.359  0.00  0.00    -0.083 Cl
ATOM     12 CL   UNL     1       4.154   2.475   0.034  0.00  0.00    -0.083 Cl
ENDBRANCH   1   8
BRANCH   3  13
ATOM     13  C   UNL     1       5.689  -1.557  -1.175  0.00  0.00    +0.083 C 
ATOM     14  C   UNL     1       5.518  -3.085  -1.117  0.00  0.00    +0.023 C 
ATOM     15  C   UNL     1       6.075  -3.642  -2.443  0.00  0.00    +0.003 C 
ATOM     16  C   UNL     1       5.975  -2.450  -3.427  0.00  0.00    +0.013 C 
ATOM     17  C   UNL     1       6.344  -1.237  -2.535  0.00  0.00    +0.076 C 
BRANCH  17  18
ATOM     18  C   UNL     1       5.774   0.034  -3.109  0.00  0.00    +0.136 C 
ATOM     19  N   UNL     1       6.382   1.158  -2.919  0.00  0.00    -0.076 NA
ATOM     20  N   UNL     1       4.605  -0.002  -3.836  0.00  0.00    -0.344 N 
ATOM     21  H   UNL     1       4.149  -0.845  -3.979  0.00  0.00    +0.144 HD
ATOM     22  H   UNL     1       4.239   0.817  -4.206  0.00  0.00    +0.144 HD
BRANCH  19  23
ATOM     23  O   UNL     1       7.523   1.213  -2.082  0.00  0.00    -0.408 OA
ATOM     24  H   UNL     1       7.864   2.107  -1.940  0.00  0.00    +0.328 HD
ENDBRANCH  19  23
ENDBRANCH  17  18
ENDBRANCH   3  13
TORSDOF 4
