REMARK  Name = ZINC20356524
REMARK  5 active torsions:
REMARK  status: ('A' for Active; 'I' for Inactive)
REMARK    1  A    between atoms: C_3  and  N_33
REMARK    2  A    between atoms: C_6  and  C_7
REMARK    3  A    between atoms: C_7  and  O_8
REMARK    4  A    between atoms: O_8  and  C_9
REMARK    5  A    between atoms: C_12  and  C_15
REMARK                            x       y       z     vdW  Elec       q    Type
REMARK                         _______ _______ _______ _____ _____    ______ ____
ROOT
ATOM      1  C   UNL     1      -6.482  -4.057  -2.069  0.00  0.00    +0.024 C 
ATOM      2  C   UNL     1      -6.997  -4.120  -3.344  0.00  0.00    +0.081 C 
ATOM      3  C   UNL     1      -6.257  -3.576  -4.518  0.00  0.00    +0.153 C 
ATOM      4  N   UNL     1      -4.953  -3.585  -4.612  0.00  0.00    -0.283 NA
ATOM      5  N   UNL     1      -7.101  -3.050  -5.518  0.00  0.00    -0.150 N 
ATOM      6  C   UNL     1      -8.396  -3.513  -5.564  0.00  0.00    +0.182 C 
ATOM      7  N   UNL     1      -8.985  -4.327  -4.723  0.00  0.00    -0.152 NA
ATOM      8  C   UNL     1      -8.316  -4.739  -3.625  0.00  0.00    +0.273 C 
ATOM      9  O   UNL     1      -8.782  -5.589  -2.885  0.00  0.00    -0.268 OA
ATOM     10  S   UNL     1      -9.029  -2.713  -7.015  0.00  0.00    -0.018 S 
ATOM     11  C   UNL     1      -7.576  -1.746  -7.402  0.00  0.00    +0.182 C 
ATOM     12  N   UNL     1      -6.740  -2.116  -6.465  0.00  0.00    -0.149 NA
ATOM     13  N   UNL     1      -7.384  -0.838  -8.431  0.00  0.00    -0.308 N 
ATOM     14  C   UNL     1      -6.100  -0.142  -8.585  0.00  0.00    +0.107 C 
ATOM     15  C   UNL     1      -5.592  -0.355 -10.014  0.00  0.00    +0.019 C 
ATOM     16  C   UNL     1      -6.670   0.088 -11.006  0.00  0.00    +0.003 C 
ATOM     17  C   UNL     1      -7.928  -0.761 -10.808  0.00  0.00    +0.019 C 
ATOM     18  C   UNL     1      -8.460  -0.556  -9.392  0.00  0.00    +0.107 C 
ATOM     19  H   UNL     1      -4.521  -3.218  -5.399  0.00  0.00    +0.188 HD
ENDROOT
BRANCH   1  23
ATOM     20  C   UNL     1      -2.969  -1.829  -1.315  0.00  0.00    +0.121 A 
ATOM     21  C   UNL     1      -3.859  -1.408  -2.297  0.00  0.00    +0.046 A 
ATOM     22  C   UNL     1      -4.996  -2.123  -2.546  0.00  0.00    +0.011 A 
ATOM     23  C   UNL     1      -5.264  -3.285  -1.808  0.00  0.00    -0.024 A 
ATOM     24  C   UNL     1      -4.363  -3.706  -0.819  0.00  0.00    +0.011 A 
ATOM     25  C   UNL     1      -3.227  -2.984  -0.584  0.00  0.00    +0.046 A 
BRANCH  20  26
ATOM     26  O   UNL     1      -1.842  -1.114  -1.073  0.00  0.00    -0.487 OA
BRANCH  26  27
ATOM     27  C   UNL     1      -1.638   0.061  -1.859  0.00  0.00    +0.264 C 
BRANCH  27  33
ATOM     28  C   UNL     1       0.836   0.373  -2.083  0.00  0.00    +0.009 A 
ATOM     29  C   UNL     1       2.022   0.976  -1.710  0.00  0.00    +0.033 A 
ATOM     30  C   UNL     1       2.028   1.927  -0.707  0.00  0.00    +0.126 A 
ATOM     31  C   UNL     1       0.848   2.274  -0.076  0.00  0.00    +0.033 A 
ATOM     32  C   UNL     1      -0.338   1.671  -0.450  0.00  0.00    +0.009 A 
ATOM     33  C   UNL     1      -0.344   0.720  -1.453  0.00  0.00    -0.010 A 
BRANCH  30  34
ATOM     34  N   UNL     1       3.299   2.572  -0.307  0.00  0.00    +0.056 N 
ATOM     35  O   UNL     1       4.331   2.268  -0.858  0.00  0.00    -0.126 OA
ATOM     36  O   UNL     1       3.304   3.404   0.571  0.00  0.00    -0.126 OA
ENDBRANCH  30  34
ENDBRANCH  27  33
ENDBRANCH  26  27
ENDBRANCH  20  26
ENDBRANCH   1  23
TORSDOF 5
