REMARK  Name = ZINC10060116
REMARK  7 active torsions:
REMARK  status: ('A' for Active; 'I' for Inactive)
REMARK    1  A    between atoms: C_1  and  C_2
REMARK    2  A    between atoms: C_2  and  O_3
REMARK    3  A    between atoms: O_3  and  C_4
REMARK    4  A    between atoms: C_8  and  C_11
REMARK    5  A    between atoms: C_9  and  O_10
REMARK    6  A    between atoms: N_12  and  N_13
REMARK    7  A    between atoms: C_14  and  C_16
REMARK                            x       y       z     vdW  Elec       q    Type
REMARK                         _______ _______ _______ _____ _____    ______ ____
ROOT
ATOM      1  C   UNL     1       1.180   2.101   0.002  0.00  0.00    +0.164 A 
ATOM      2  C   UNL     1       2.387   1.420  -0.013  0.00  0.00    +0.071 A 
ATOM      3  C   UNL     1       2.408   0.035  -0.021  0.00  0.00    +0.064 A 
ATOM      4  C   UNL     1       1.226  -0.680  -0.013  0.00  0.00    +0.072 A 
ATOM      5  C   UNL     1       0.002  -0.004   0.002  0.00  0.00    +0.059 A 
ATOM      6  C   UNL     1      -0.017   1.396   0.010  0.00  0.00    +0.169 A 
ATOM      7 CL   UNL     1       1.260  -2.415  -0.024  0.00  0.00    -0.081 Cl
ATOM      8 CL   UNL     1       3.927  -0.806  -0.040  0.00  0.00    -0.082 Cl
ENDROOT
BRANCH   6   9
ATOM      9  O   UNL     1      -1.202   2.062   0.019  0.00  0.00    -0.503 OA
ATOM     10  H   UNL     1      -1.540   2.251   0.905  0.00  0.00    +0.292 HD
ENDBRANCH   6   9
BRANCH   5  11
ATOM     11  C   UNL     1      -1.262  -0.762   0.009  0.00  0.00    +0.143 C 
ATOM     12  N   UNL     1      -1.240  -2.060   0.002  0.00  0.00    -0.187 NA
BRANCH  12  13
ATOM     13  N   UNL     1      -2.442  -2.780   0.009  0.00  0.00    -0.203 N 
ATOM     14  C   UNL     1      -2.420  -4.128   0.002  0.00  0.00    +0.264 C 
ATOM     15  O   UNL     1      -1.357  -4.718  -0.011  0.00  0.00    -0.268 OA
ATOM     16  H   UNL     1      -3.290  -2.309   0.020  0.00  0.00    +0.178 HD
BRANCH  14  17
ATOM     17  C   UNL     1      -3.687  -4.887   0.010  0.00  0.00    +0.052 A 
ATOM     18  C   UNL     1      -4.909  -4.212   0.030  0.00  0.00    +0.014 A 
ATOM     19  C   UNL     1      -6.088  -4.928   0.032  0.00  0.00    +0.001 A 
ATOM     20  C   UNL     1      -6.063  -6.311   0.024  0.00  0.00    +0.001 A 
ATOM     21  C   UNL     1      -4.856  -6.987   0.009  0.00  0.00    +0.016 A 
ATOM     22  C   UNL     1      -3.668  -6.284   0.002  0.00  0.00    +0.030 A 
ATOM     23 BR   UNL     1      -2.019  -7.210  -0.018  0.00  0.00    -0.050 Br
ENDBRANCH  14  17
ENDBRANCH  12  13
ENDBRANCH   5  11
BRANCH   1  24
ATOM     24  O   UNL     1       1.168   3.461   0.009  0.00  0.00    -0.489 OA
BRANCH  24  26
ATOM     25  C   UNL     1       2.221   5.637   0.011  0.00  0.00    +0.048 C 
ATOM     26  C   UNL     1       2.435   4.122   0.001  0.00  0.00    +0.226 C 
ENDBRANCH  24  26
ENDBRANCH   1  24
TORSDOF 6
