REMARK  Name = ZINC48607409
REMARK  3 active torsions:
REMARK  status: ('A' for Active; 'I' for Inactive)
REMARK    1  A    between atoms: C_1  and  N_2
REMARK    2  A    between atoms: C_4  and  C_7
REMARK    3  A    between atoms: C_8  and  C_9
REMARK                            x       y       z     vdW  Elec       q    Type
REMARK                         _______ _______ _______ _____ _____    ______ ____
ROOT
ATOM      1  C   UNL     1       0.073  -5.677  -1.781  0.00  0.00    +0.240 C 
ATOM      2  O   UNL     1      -0.031  -5.565  -2.989  0.00  0.00    -0.271 OA
ATOM      3  N   UNL     1       0.195  -6.900  -1.226  0.00  0.00    -0.295 N 
ATOM      4  C   UNL     1       0.201  -7.069   0.235  0.00  0.00    +0.108 C 
ATOM      5  C   UNL     1       1.446  -7.861   0.643  0.00  0.00    +0.019 C 
ATOM      6  C   UNL     1       1.508  -9.171  -0.148  0.00  0.00    +0.007 C 
ATOM      7  C   UNL     1       1.589  -8.852  -1.640  0.00  0.00    +0.010 C 
ATOM      8  C   UNL     1       0.319  -8.098  -2.063  0.00  0.00    +0.079 C 
ATOM      9  C   UNL     1       0.432  -7.714  -3.538  0.00  0.00    +0.023 C 
ATOM     10  C   UNL     1       0.553  -8.989  -4.377  0.00  0.00    +0.002 C 
ATOM     11  C   UNL     1       1.792  -9.777  -3.950  0.00  0.00    +0.000 C 
ATOM     12  C   UNL     1       1.695 -10.137  -2.461  0.00  0.00    +0.005 C 
ENDROOT
BRANCH   1  14
ATOM     13  C   UNL     1       0.049  -3.294  -1.519  0.00  0.00    +0.016 C 
ATOM     14  C   UNL     1       0.067  -4.522  -0.958  0.00  0.00    +0.068 C 
BRANCH  13  18
ATOM     15  C   UNL     1       0.008   1.462   0.007  0.00  0.00    +0.172 C 
ATOM     16  N   UNL     1       0.024  -0.003  -0.000  0.00  0.00    -0.274 N 
ATOM     17  C   UNL     1       0.024  -0.783  -1.095  0.00  0.00    +0.116 A 
ATOM     18  C   UNL     1       0.042  -2.097  -0.666  0.00  0.00    +0.013 A 
ATOM     19  C   UNL     1       0.053  -2.073   0.748  0.00  0.00    +0.142 A 
ATOM     20  N   UNL     1       0.047  -0.826   1.131  0.00  0.00    -0.179 NA
ENDBRANCH  13  18
ENDBRANCH   1  14
TORSDOF 2
