REMARK  Name = ZINC32408813
REMARK  10 active torsions:
REMARK  status: ('A' for Active; 'I' for Inactive)
REMARK    1  A    between atoms: C_1  and  C_2
REMARK    2  A    between atoms: C_4  and  S_12
REMARK    3  A    between atoms: C_7  and  O_8
REMARK    4  A    between atoms: O_8  and  C_9
REMARK    5  A    between atoms: C_9  and  C_10
REMARK    6  A    between atoms: C_9  and  C_11
REMARK    7  A    between atoms: S_12  and  N_15
REMARK    8  A    between atoms: C_17  and  C_26
REMARK    9  A    between atoms: N_28  and  C_29
REMARK   10  A    between atoms: N_28  and  C_30
REMARK                            x       y       z     vdW  Elec       q    Type
REMARK                         _______ _______ _______ _____ _____    ______ ____
ROOT
ATOM      1  N   UNL     1      -2.296   1.681   5.311  0.00  0.00    -0.195 N 
ATOM      2  C   UNL     1      -1.720   1.372   3.991  0.00  0.00    +0.186 C 
ATOM      3  C   UNL     1      -0.739   2.498   3.637  0.00  0.00    +0.278 C 
ATOM      4  O   UNL     1       0.260   2.576   4.657  0.00  0.00    -0.476 OA
ATOM      5  C   UNL     1      -0.158   2.615   5.950  0.00  0.00    +0.144 A 
ATOM      6  C   UNL     1      -1.430   2.169   6.302  0.00  0.00    +0.093 A 
ATOM      7  C   UNL     1      -1.841   2.210   7.625  0.00  0.00    +0.028 A 
ATOM      8  C   UNL     1      -0.986   2.698   8.597  0.00  0.00    +0.002 A 
ATOM      9  C   UNL     1       0.275   3.144   8.250  0.00  0.00    +0.004 A 
ATOM     10  C   UNL     1       0.691   3.104   6.931  0.00  0.00    +0.047 A 
ENDROOT
BRANCH   3  11
ATOM     11  C   UNL     1      -0.085   2.201   2.312  0.00  0.00    +0.257 C 
ATOM     12  O   UNL     1       1.106   1.979   2.260  0.00  0.00    -0.271 OA
ATOM     13  N   UNL     1      -0.824   2.182   1.185  0.00  0.00    -0.305 N 
ATOM     14  C   UNL     1      -0.189   1.893  -0.103  0.00  0.00    +0.131 C 
ATOM     15  C   UNL     1      -2.263   2.451   1.248  0.00  0.00    +0.131 C 
ENDBRANCH   3  11
BRANCH   1  16
ATOM     16  S   UNL     1      -3.909   1.461   5.615  0.00  0.00    +0.075 S 
ATOM     17  O   UNL     1      -4.265   2.404   6.617  0.00  0.00    -0.150 OA
ATOM     18  O   UNL     1      -4.557   1.409   4.352  0.00  0.00    -0.150 OA
BRANCH  16  22
ATOM     19  C   UNL     1      -4.085  -1.691   9.780  0.00  0.00    +0.047 C 
ATOM     20  C   UNL     1      -4.161  -1.532   8.284  0.00  0.00    -0.007 A 
ATOM     21  C   UNL     1      -4.019  -0.281   7.713  0.00  0.00    +0.035 A 
ATOM     22  C   UNL     1      -4.089  -0.135   6.340  0.00  0.00    +0.109 A 
ATOM     23  C   UNL     1      -4.305  -1.238   5.535  0.00  0.00    +0.032 A 
ATOM     24  C   UNL     1      -4.441  -2.491   6.100  0.00  0.00    +0.048 A 
ATOM     25  C   UNL     1      -4.372  -2.641   7.478  0.00  0.00    +0.124 A 
BRANCH  25  26
ATOM     26  O   UNL     1      -4.512  -3.871   8.037  0.00  0.00    -0.489 OA
BRANCH  26  27
ATOM     27  C   UNL     1      -4.608  -4.982   7.143  0.00  0.00    +0.167 C 
ATOM     28  C   UNL     1      -4.144  -6.253   7.858  0.00  0.00    +0.051 C 
ATOM     29  C   UNL     1      -6.061  -5.152   6.694  0.00  0.00    +0.051 C 
ENDBRANCH  26  27
ENDBRANCH  25  26
ENDBRANCH  16  22
ENDBRANCH   1  16
TORSDOF 5
