REMARK  Name = ZINC09276686
REMARK  9 active torsions:
REMARK  status: ('A' for Active; 'I' for Inactive)
REMARK    1  A    between atoms: C_1  and  C_2
REMARK    2  A    between atoms: C_2  and  O_3
REMARK    3  A    between atoms: O_3  and  C_4
REMARK    4  A    between atoms: C_12  and  C_14
REMARK    5  A    between atoms: C_14  and  S_15
REMARK    6  A    between atoms: S_15  and  C_16
REMARK    7  A    between atoms: N_22  and  C_23
REMARK    8  A    between atoms: C_26  and  C_29
REMARK    9  A    between atoms: C_31  and  C_34
REMARK                            x       y       z     vdW  Elec       q    Type
REMARK                         _______ _______ _______ _____ _____    ______ ____
ROOT
ATOM      1  C   UNL     1       3.443   2.770   2.954  0.00  0.00    +0.177 A 
ATOM      2  N   UNL     1       3.079   2.559   1.714  0.00  0.00    -0.227 NA
ATOM      3  C   UNL     1       1.917   1.951   1.393  0.00  0.00    +0.064 A 
ATOM      4  C   UNL     1       1.119   1.538   2.441  0.00  0.00    +0.094 A 
ATOM      5  C   UNL     1       1.496   1.764   3.772  0.00  0.00    +0.273 A 
ATOM      6  O   UNL     1       0.780   1.406   4.692  0.00  0.00    -0.266 OA
ATOM      7  N   UNL     1       2.672   2.388   4.013  0.00  0.00    -0.255 N 
ATOM      8  S   UNL     1      -0.306   0.754   1.723  0.00  0.00    -0.115 S 
ATOM      9  C   UNL     1       0.318   0.570   0.001  0.00  0.00    +0.054 C 
ATOM     10  C   UNL     1       1.399   1.675   0.003  0.00  0.00    +0.071 C 
ATOM     11  C   UNL     1      -0.778   0.862  -1.026  0.00  0.00    +0.020 C 
ENDROOT
BRANCH   7  12
ATOM     12  C   UNL     1       3.090   2.638   5.327  0.00  0.00    +0.052 A 
ATOM     13  C   UNL     1       2.742   3.827   5.953  0.00  0.00    +0.026 A 
ATOM     14  C   UNL     1       3.152   4.069   7.250  0.00  0.00    +0.005 A 
ATOM     15  C   UNL     1       3.916   3.132   7.921  0.00  0.00    -0.050 A 
ATOM     16  C   UNL     1       4.268   1.948   7.298  0.00  0.00    +0.005 A 
ATOM     17  C   UNL     1       3.857   1.699   6.003  0.00  0.00    +0.026 A 
ATOM     18  C   UNL     1       4.367   3.401   9.333  0.00  0.00    +0.044 C 
ENDBRANCH   7  12
BRANCH   1  19
ATOM     19  S   UNL     1       4.980   3.573   3.266  0.00  0.00    -0.078 S 
BRANCH  19  20
ATOM     20  C   UNL     1       5.546   3.838   1.567  0.00  0.00    +0.173 C 
BRANCH  20  29
ATOM     21  C   UNL     1       8.702   6.743  -2.864  0.00  0.00    +0.403 C 
ATOM     22  O   UNL     1       9.781   7.302  -2.849  0.00  0.00    -0.226 OA
ATOM     23  N   UNL     1       8.083   6.442  -1.705  0.00  0.00    -0.264 N 
ATOM     24  C   UNL     1       8.700   6.785  -0.416  0.00  0.00    +0.130 C 
ATOM     25  C   UNL     1       8.807   5.511   0.430  0.00  0.00    +0.127 C 
ATOM     26  N   UNL     1       7.503   4.834   0.427  0.00  0.00    -0.298 N 
ATOM     27  C   UNL     1       6.888   4.486  -0.862  0.00  0.00    +0.127 C 
ATOM     28  C   UNL     1       6.778   5.765  -1.708  0.00  0.00    +0.130 C 
ATOM     29  C   UNL     1       6.884   4.532   1.586  0.00  0.00    +0.226 C 
ATOM     30  O   UNL     1       7.403   4.820   2.644  0.00  0.00    -0.275 OA
BRANCH  21  31
ATOM     31  O   UNL     1       8.126   6.423  -4.038  0.00  0.00    -0.451 OA
BRANCH  31  33
ATOM     32  C   UNL     1       8.046   6.338  -6.470  0.00  0.00    +0.048 C 
ATOM     33  C   UNL     1       8.851   6.777  -5.245  0.00  0.00    +0.230 C 
ENDBRANCH  31  33
ENDBRANCH  21  31
ENDBRANCH  20  29
ENDBRANCH  19  20
ENDBRANCH   1  19
TORSDOF 6
