REMARK  Name = ZINC12876357
REMARK  1 active torsions:
REMARK  status: ('A' for Active; 'I' for Inactive)
REMARK    1  A    between atoms: N_23  and  C_26
REMARK                            x       y       z     vdW  Elec       q    Type
REMARK                         _______ _______ _______ _____ _____    ______ ____
ROOT
ATOM      1  C   UNL     1      -0.935  -1.582   2.666  0.00  0.00    +0.002 A 
ATOM      2  C   UNL     1      -0.750  -0.291   2.203  0.00  0.00    +0.004 A 
ATOM      3  C   UNL     1      -1.839   0.481   1.862  0.00  0.00    -0.026 A 
ATOM      4  C   UNL     1      -3.130  -0.024   1.977  0.00  0.00    +0.054 A 
ATOM      5  C   UNL     1      -3.307  -1.325   2.444  0.00  0.00    +0.062 A 
ATOM      6  C   UNL     1      -2.213  -2.095   2.785  0.00  0.00    +0.022 A 
ATOM      7 CL   UNL     1      -4.908  -1.979   2.596  0.00  0.00    -0.082 Cl
ATOM      8  N   UNL     1      -4.061   0.938   1.576  0.00  0.00    -0.285 N 
ATOM      9  C   UNL     1      -3.472   2.085   1.189  0.00  0.00    +0.212 C 
ATOM     10  O   UNL     1      -4.029   3.088   0.795  0.00  0.00    -0.277 OA
ATOM     11  C   UNL     1      -1.989   1.883   1.342  0.00  0.00    +0.053 C 
ATOM     12  C   UNL     1      -1.260   2.066  -0.017  0.00  0.00    +0.089 C 
ATOM     13  C   UNL     1      -0.699   3.513   0.057  0.00  0.00    +0.074 C 
ATOM     14  C   UNL     1      -1.143   4.069   1.423  0.00  0.00    -0.054 C 
ATOM     15  C   UNL     1      -0.061   2.413   2.703  0.00  0.00    -0.076 C 
ATOM     16  C   UNL     1       0.743   3.705   2.947  0.00  0.00    -0.020 C 
ATOM     17  C   UNL     1       0.045   4.782   2.094  0.00  0.00    -0.016 C 
ATOM     18  C   UNL     1       0.799   3.306   0.062  0.00  0.00    +0.228 C 
ATOM     19  O   UNL     1       1.628   4.189   0.111  0.00  0.00    -0.275 OA
ATOM     20  N   UNL     1       1.067   1.996   0.003  0.00  0.00    -0.210 N 
ATOM     21  C   UNL     1      -0.014   1.209  -0.042  0.00  0.00    +0.229 C 
ATOM     22  O   UNL     1       0.002  -0.001  -0.100  0.00  0.00    -0.275 OA
ATOM     23  H   UNL     1      -5.021   0.795   1.575  0.00  0.00    +0.155 HD
ATOM     24  N   UNL     1      -1.375   2.885   2.218  0.00  0.00    +0.395 N 
ATOM     25  H   UNL     1      -1.993   3.091   3.011  0.00  0.00    -0.079 HD
ENDROOT
BRANCH  20  26
ATOM     26  C   UNL     1       2.376   1.489  -0.011  0.00  0.00    +0.048 A 
ATOM     27  C   UNL     1       2.850   0.765   1.074  0.00  0.00    +0.028 A 
ATOM     28  C   UNL     1       4.136   0.261   1.061  0.00  0.00    +0.051 A 
ATOM     29  C   UNL     1       4.960   0.486  -0.031  0.00  0.00    +0.166 A 
ATOM     30  C   UNL     1       4.488   1.216  -1.119  0.00  0.00    +0.168 A 
ATOM     31  C   UNL     1       3.197   1.716  -1.106  0.00  0.00    +0.073 A 
ATOM     32  O   UNL     1       5.479   1.297  -2.054  0.00  0.00    -0.453 OA
ATOM     33  C   UNL     1       6.694   0.960  -1.357  0.00  0.00    +0.466 C 
ATOM     34  O   UNL     1       6.248   0.108  -0.285  0.00  0.00    -0.453 OA
ENDBRANCH  20  26
TORSDOF 1
