REMARK  Name = ZINC09042191
REMARK  6 active torsions:
REMARK  status: ('A' for Active; 'I' for Inactive)
REMARK    1  A    between atoms: C_1  and  C_2
REMARK    2  A    between atoms: C_4  and  C_32
REMARK    3  A    between atoms: C_9  and  C_17
REMARK    4  A    between atoms: N_19  and  C_20
REMARK    5  A    between atoms: C_25  and  O_26
REMARK    6  A    between atoms: O_26  and  C_27
REMARK                            x       y       z     vdW  Elec       q    Type
REMARK                         _______ _______ _______ _____ _____    ______ ____
ROOT
ATOM      1  C   UNL     1      -0.182   6.013   1.159  0.00  0.00    +0.044 C 
ATOM      2  C   UNL     1       1.283   6.305   1.356  0.00  0.00    -0.050 A 
ATOM      3  C   UNL     1       1.692   7.130   2.388  0.00  0.00    +0.008 A 
ATOM      4  C   UNL     1       3.032   7.402   2.573  0.00  0.00    -0.029 A 
ATOM      5  C   UNL     1       3.983   6.846   1.721  0.00  0.00    +0.039 A 
ATOM      6  C   UNL     1       3.560   6.018   0.686  0.00  0.00    -0.027 A 
ATOM      7  C   UNL     1       2.222   5.750   0.505  0.00  0.00    +0.008 A 
ATOM      8  C   UNL     1       4.807   5.589  -0.036  0.00  0.00    +0.052 C 
ATOM      9  C   UNL     1       4.967   4.065  -0.017  0.00  0.00    +0.076 C 
ATOM     10  C   UNL     1       5.724   3.747  -1.323  0.00  0.00    -0.003 C 
ATOM     11  C   UNL     1       5.583   4.999  -2.199  0.00  0.00    -0.066 C 
ATOM     12  C   UNL     1       3.388   5.866  -1.965  0.00  0.00    -0.077 C 
ATOM     13  C   UNL     1       3.575   5.569  -3.472  0.00  0.00    -0.020 C 
ATOM     14  C   UNL     1       4.827   4.663  -3.493  0.00  0.00    -0.017 C 
ATOM     15  C   UNL     1       5.934   6.263   0.702  0.00  0.00    +0.212 C 
ATOM     16  O   UNL     1       7.116   6.184   0.445  0.00  0.00    -0.277 OA
ATOM     17  N   UNL     1       5.374   6.969   1.702  0.00  0.00    -0.286 N 
ATOM     18  C   UNL     1       3.467   8.303   3.700  0.00  0.00    +0.045 C 
ATOM     19  H   UNL     1       5.879   7.502   2.337  0.00  0.00    +0.155 HD
ATOM     20  N   UNL     1       4.772   5.952  -1.460  0.00  0.00    +0.394 N 
ATOM     21  H   UNL     1       5.136   6.904  -1.588  0.00  0.00    -0.079 HD
ENDROOT
BRANCH   9  22
ATOM     22  C   UNL     1       3.618   3.393  -0.012  0.00  0.00    +0.220 C 
ATOM     23  O   UNL     1       3.078   3.110  -1.061  0.00  0.00    -0.275 OA
ATOM     24  N   UNL     1       3.012   3.107   1.157  0.00  0.00    -0.282 N 
ATOM     25  H   UNL     1       3.405   3.405   1.992  0.00  0.00    +0.155 HD
BRANCH  24  26
ATOM     26  C   UNL     1       1.815   2.378   1.165  0.00  0.00    +0.077 A 
ATOM     27  C   UNL     1       1.511   1.529   0.112  0.00  0.00    +0.047 A 
ATOM     28  C   UNL     1       0.329   0.810   0.123  0.00  0.00    +0.043 A 
ATOM     29  C   UNL     1      -0.551   0.938   1.183  0.00  0.00    +0.024 A 
ATOM     30  C   UNL     1      -0.254   1.782   2.236  0.00  0.00    +0.049 A 
ATOM     31  C   UNL     1       0.929   2.505   2.232  0.00  0.00    +0.141 A 
ATOM     32 CL   UNL     1      -0.048  -0.258  -1.193  0.00  0.00    -0.083 Cl
BRANCH  31  33
ATOM     33  O   UNL     1       1.223   3.336   3.268  0.00  0.00    -0.493 OA
ATOM     34  C   UNL     1       0.267   3.416   4.327  0.00  0.00    +0.277 C 
ENDBRANCH  31  33
ENDBRANCH  24  26
ENDBRANCH   9  22
TORSDOF 3
