REMARK  Name = ZINC12487765
REMARK  10 active torsions:
REMARK  status: ('A' for Active; 'I' for Inactive)
REMARK    1  A    between atoms: C_1  and  C_2
REMARK    2  A    between atoms: C_7  and  N_8
REMARK    3  A    between atoms: N_8  and  C_9
REMARK    4  A    between atoms: C_9  and  C_11
REMARK    5  A    between atoms: C_9  and  C_18
REMARK    6  A    between atoms: N_20  and  C_21
REMARK    7  A    between atoms: C_21  and  C_22
REMARK    8  A    between atoms: C_27  and  C_29
REMARK    9  A    between atoms: C_29  and  N_30
REMARK   10  A    between atoms: C_31  and  C_33
REMARK                            x       y       z     vdW  Elec       q    Type
REMARK                         _______ _______ _______ _____ _____    ______ ____
ROOT
ATOM      1  N   UNL     1      -3.412   2.120   0.245  0.00  0.00    -0.254 N 
ATOM      2  C   UNL     1      -4.169   1.655   1.258  0.00  0.00    +0.238 C 
ATOM      3  O   UNL     1      -3.770   0.735   1.941  0.00  0.00    -0.274 OA
ENDROOT
BRANCH   1  10
ATOM      4  C   UNL     1      -2.514   4.686   1.084  0.00  0.00    +0.045 C 
ATOM      5  C   UNL     1      -3.416   4.509  -0.110  0.00  0.00    -0.029 A 
ATOM      6  C   UNL     1      -3.827   5.610  -0.836  0.00  0.00    +0.005 A 
ATOM      7  C   UNL     1      -4.659   5.449  -1.928  0.00  0.00    +0.000 A 
ATOM      8  C   UNL     1      -5.078   4.184  -2.301  0.00  0.00    +0.002 A 
ATOM      9  C   UNL     1      -4.666   3.079  -1.583  0.00  0.00    +0.024 A 
ATOM     10  C   UNL     1      -3.830   3.238  -0.485  0.00  0.00    +0.040 A 
ENDBRANCH   1  10
BRANCH   1  11
ATOM     11  C   UNL     1      -2.151   1.455  -0.092  0.00  0.00    +0.200 C 
BRANCH  11  12
ATOM     12  C   UNL     1      -2.438   0.078  -0.632  0.00  0.00    +0.017 A 
ATOM     13  C   UNL     1      -3.661  -0.518  -0.391  0.00  0.00    +0.009 A 
ATOM     14  C   UNL     1      -3.923  -1.784  -0.882  0.00  0.00    +0.001 A 
ATOM     15  C   UNL     1      -2.963  -2.453  -1.617  0.00  0.00    +0.003 A 
ATOM     16  C   UNL     1      -1.740  -1.857  -1.864  0.00  0.00    +0.039 A 
ATOM     17  C   UNL     1      -1.477  -0.590  -1.373  0.00  0.00    +0.129 A 
ATOM     18  F   UNL     1      -0.282  -0.006  -1.613  0.00  0.00    -0.205 F 
ENDBRANCH  11  12
BRANCH  11  19
ATOM     19  C   UNL     1      -1.296   1.343   1.144  0.00  0.00    +0.239 C 
ATOM     20  O   UNL     1      -1.701   1.775   2.202  0.00  0.00    -0.273 OA
ATOM     21  N   UNL     1      -0.082   0.761   1.074  0.00  0.00    -0.306 N 
ATOM     22  H   UNL     1       0.241   0.415   0.227  0.00  0.00    +0.149 HD
BRANCH  21  23
ATOM     23  C   UNL     1       0.748   0.652   2.275  0.00  0.00    +0.178 C 
BRANCH  23  24
ATOM     24  C   UNL     1       2.046  -0.032   1.929  0.00  0.00    +0.122 A 
ATOM     25  C   UNL     1       3.174   0.579   1.524  0.00  0.00    +0.046 A 
ATOM     26  C   UNL     1       4.135  -0.435   1.311  0.00  0.00    +0.041 A 
ATOM     27  C   UNL     1       3.537  -1.605   1.597  0.00  0.00    +0.195 A 
ATOM     28  O   UNL     1       2.274  -1.355   1.977  0.00  0.00    -0.466 OA
ENDBRANCH  23  24
ENDBRANCH  21  23
ENDBRANCH  11  19
ENDBRANCH   1  11
BRANCH   2  29
ATOM     29  C   UNL     1      -5.512   2.277   1.543  0.00  0.00    +0.201 C 
BRANCH  29  30
ATOM     30  N   UNL     1      -6.133   1.599   2.683  0.00  0.00    -0.302 N 
ATOM     31  C   UNL     1      -7.346   1.990   3.120  0.00  0.00    +0.251 C 
ATOM     32  O   UNL     1      -7.926   2.905   2.568  0.00  0.00    -0.270 OA
ATOM     33  H   UNL     1      -5.670   0.869   3.124  0.00  0.00    +0.150 HD
BRANCH  31  34
ATOM     34  C   UNL     1      -7.967   1.311   4.262  0.00  0.00    +0.074 A 
ATOM     35  C   UNL     1      -9.191   1.558   4.865  0.00  0.00    +0.021 A 
ATOM     36  C   UNL     1      -9.535   0.762   5.929  0.00  0.00    +0.008 A 
ATOM     37  C   UNL     1      -8.673  -0.205   6.340  0.00  0.00    +0.046 A 
ATOM     38  S   UNL     1      -7.342  -0.043   5.242  0.00  0.00    -0.092 S 
ENDBRANCH  31  34
ENDBRANCH  29  30
ENDBRANCH   2  29
TORSDOF 9
