REMARK  Name = ZINC02658866
REMARK  7 active torsions:
REMARK  status: ('A' for Active; 'I' for Inactive)
REMARK    1  A    between atoms: C_4  and  N_7
REMARK    2  A    between atoms: C_11  and  C_13
REMARK    3  A    between atoms: N_14  and  N_15
REMARK    4  A    between atoms: C_16  and  C_18
REMARK    5  A    between atoms: C_18  and  O_19
REMARK    6  A    between atoms: O_19  and  C_20
REMARK    7  A    between atoms: C_23  and  C_26
REMARK                            x       y       z     vdW  Elec       q    Type
REMARK                         _______ _______ _______ _____ _____    ______ ____
ROOT
ATOM      1  C   UNL     1       4.634  -5.960   0.373  0.00  0.00    +0.148 C 
ATOM      2  N   UNL     1       5.919  -6.159   0.438  0.00  0.00    -0.187 NA
ENDROOT
BRANCH   1   7
ATOM      3  N   UNL     1       3.620  -0.649  -0.037  0.00  0.00    -0.294 N 
ATOM      4  C   UNL     1       3.644  -2.029   0.060  0.00  0.00    +0.164 A 
ATOM      5  N   UNL     1       2.624  -2.865   0.077  0.00  0.00    -0.212 NA
ATOM      6  C   UNL     1       2.805  -4.163   0.174  0.00  0.00    +0.147 A 
ATOM      7  C   UNL     1       4.109  -4.598   0.257  0.00  0.00    +0.072 A 
ATOM      8  S   UNL     1       4.982  -3.043   0.176  0.00  0.00    -0.050 S 
ATOM      9 CL   UNL     1       1.470  -5.272   0.198  0.00  0.00    -0.061 Cl
ATOM     10  H   UNL     1       4.450  -0.155  -0.125  0.00  0.00    +0.154 HD
BRANCH   3  14
ATOM     11  C   UNL     1      -0.014   1.382   0.050  0.00  0.00    +0.000 A 
ATOM     12  C   UNL     1       0.095   0.137   0.642  0.00  0.00    +0.002 A 
ATOM     13  C   UNL     1       1.298  -0.539   0.615  0.00  0.00    +0.023 A 
ATOM     14  C   UNL     1       2.401   0.032  -0.009  0.00  0.00    +0.033 A 
ATOM     15  C   UNL     1       2.288   1.282  -0.603  0.00  0.00    +0.023 A 
ATOM     16  C   UNL     1       1.081   1.954  -0.572  0.00  0.00    +0.002 A 
ENDBRANCH   3  14
ENDBRANCH   1   7
BRANCH   2  17
ATOM     17  N   UNL     1       6.421  -7.462   0.549  0.00  0.00    -0.204 N 
ATOM     18  C   UNL     1       7.751  -7.668   0.617  0.00  0.00    +0.270 C 
ATOM     19  O   UNL     1       8.514  -6.725   0.582  0.00  0.00    -0.270 OA
ATOM     20  H   UNL     1       5.811  -8.216   0.577  0.00  0.00    +0.177 HD
BRANCH  18  21
ATOM     21  C   UNL     1       8.292  -9.070   0.736  0.00  0.00    +0.326 C 
BRANCH  21  22
ATOM     22  O   UNL     1       9.719  -9.027   0.790  0.00  0.00    -0.483 OA
BRANCH  22  23
ATOM     23  C   UNL     1      10.367 -10.215   0.899  0.00  0.00    +0.121 A 
ATOM     24  C   UNL     1       9.641 -11.399   0.946  0.00  0.00    +0.047 A 
ATOM     25  C   UNL     1      10.295 -12.606   1.056  0.00  0.00    +0.022 A 
ATOM     26  C   UNL     1      11.691 -12.639   1.120  0.00  0.00    +0.052 A 
ATOM     27  C   UNL     1      12.417 -11.446   1.072  0.00  0.00    +0.022 A 
ATOM     28  C   UNL     1      11.755 -10.244   0.957  0.00  0.00    +0.047 A 
BRANCH  26  29
ATOM     29  C   UNL     1      12.375 -13.892   1.234  0.00  0.00    +0.099 C 
ATOM     30  N   UNL     1      12.918 -14.886   1.325  0.00  0.00    -0.191 NA
ENDBRANCH  26  29
ENDBRANCH  22  23
ENDBRANCH  21  22
ENDBRANCH  18  21
ENDBRANCH   2  17
TORSDOF 7
