REMARK  Name = ZINC12428643
REMARK  4 active torsions:
REMARK  status: ('A' for Active; 'I' for Inactive)
REMARK    1  A    between atoms: C_3  and  C_9
REMARK    2  A    between atoms: C_5  and  C_7
REMARK    3  A    between atoms: C_24  and  S_29
REMARK    4  A    between atoms: S_29  and  N_32
REMARK                            x       y       z     vdW  Elec       q    Type
REMARK                         _______ _______ _______ _____ _____    ______ ____
ROOT
ATOM      1  C   UNL     1       1.321  -4.688   5.242  0.00  0.00    +0.105 C 
ATOM      2  C   UNL     1      -0.081  -5.270   5.261  0.00  0.00    +0.024 C 
ATOM      3  C   UNL     1       0.004  -6.823   5.355  0.00  0.00    -0.005 C 
ATOM      4  C   UNL     1       0.927  -7.239   4.169  0.00  0.00    +0.004 C 
ATOM      5  C   UNL     1       0.085  -6.966   2.902  0.00  0.00    +0.004 C 
ATOM      6  C   UNL     1      -1.266  -6.402   3.441  0.00  0.00    -0.003 C 
ATOM      7  C   UNL     1      -1.403  -7.215   4.777  0.00  0.00    +0.008 C 
ATOM      8  C   UNL     1      -0.894  -4.989   3.998  0.00  0.00    +0.029 C 
ATOM      9  C   UNL     1      -0.155  -4.249   2.927  0.00  0.00    -0.021 A 
ATOM     10  C   UNL     1      -0.860  -3.572   1.945  0.00  0.00    +0.034 A 
ATOM     11  C   UNL     1      -0.188  -2.945   0.913  0.00  0.00    +0.109 A 
ATOM     12  C   UNL     1       1.192  -2.988   0.843  0.00  0.00    +0.030 A 
ATOM     13  C   UNL     1       1.909  -3.644   1.828  0.00  0.00    +0.025 A 
ATOM     14  C   UNL     1       1.234  -4.260   2.865  0.00  0.00    +0.031 A 
ATOM     15  N   UNL     1       1.918  -4.904   3.909  0.00  0.00    -0.336 N 
ATOM     16  H   UNL     1       2.712  -5.442   3.766  0.00  0.00    +0.147 HD
ENDROOT
BRANCH   1  19
ATOM     17  C   UNL     1       2.745  -5.699   8.593  0.00  0.00    +0.001 A 
ATOM     18  C   UNL     1       1.979  -5.072   7.626  0.00  0.00    +0.005 A 
ATOM     19  C   UNL     1       2.164  -5.371   6.287  0.00  0.00    -0.026 A 
ATOM     20  C   UNL     1       3.121  -6.289   5.908  0.00  0.00    +0.020 A 
ATOM     21  C   UNL     1       3.901  -6.921   6.878  0.00  0.00    +0.063 A 
ATOM     22  C   UNL     1       3.706  -6.619   8.228  0.00  0.00    +0.015 A 
BRANCH  21  23
ATOM     23  C   UNL     1       4.928  -7.905   6.479  0.00  0.00    +0.387 C 
ATOM     24  O   UNL     1       5.096  -8.166   5.305  0.00  0.00    -0.241 OA
ATOM     25  O   UNL     1       5.679  -8.513   7.418  0.00  0.00    -0.241 OA
ENDBRANCH  21  23
ENDBRANCH   1  19
BRANCH  11  26
ATOM     26  S   UNL     1      -1.099  -2.089  -0.328  0.00  0.00    +0.075 S 
ATOM     27  O   UNL     1      -2.401  -2.659  -0.343  0.00  0.00    -0.150 OA
ATOM     28  O   UNL     1      -0.272  -2.048  -1.483  0.00  0.00    -0.150 OA
BRANCH  26  29
ATOM     29  N   UNL     1      -1.274  -0.524   0.184  0.00  0.00    -0.184 N 
ATOM     30  C   UNL     1      -0.161   0.287   0.324  0.00  0.00    +0.235 A 
ATOM     31  N   UNL     1      -0.326   1.597   0.439  0.00  0.00    -0.222 NA
ATOM     32  C   UNL     1       0.716   2.400   0.574  0.00  0.00    +0.116 A 
ATOM     33  C   UNL     1       1.991   1.856   0.593  0.00  0.00    +0.039 A 
ATOM     34  C   UNL     1       2.127   0.482   0.470  0.00  0.00    +0.116 A 
ATOM     35  N   UNL     1       1.043  -0.265   0.339  0.00  0.00    -0.222 NA
ATOM     36  H   UNL     1      -2.156  -0.176   0.387  0.00  0.00    +0.177 HD
ENDBRANCH  26  29
ENDBRANCH  11  26
TORSDOF 4
