REMARK  Name = ZINC02062901
REMARK  11 active torsions:
REMARK  status: ('A' for Active; 'I' for Inactive)
REMARK    1  A    between atoms: C_1  and  C_2
REMARK    2  A    between atoms: C_2  and  C_3
REMARK    3  A    between atoms: C_2  and  C_4
REMARK    4  A    between atoms: C_4  and  O_5
REMARK    5  A    between atoms: O_5  and  C_6
REMARK    6  A    between atoms: C_6  and  C_8
REMARK    7  A    between atoms: C_8  and  C_9
REMARK    8  A    between atoms: C_9  and  C_10
REMARK    9  A    between atoms: C_10  and  C_11
REMARK   10  A    between atoms: C_11  and  C_12
REMARK   11  A    between atoms: C_12  and  N_13
REMARK                            x       y       z     vdW  Elec       q    Type
REMARK                         _______ _______ _______ _____ _____    ______ ____
ROOT
ATOM      1  N   UNL     1       0.002  -0.004   0.002  0.00  0.00    -0.234 N 
ATOM      2  C   UNL     1      -0.004  -0.759  -1.111  0.00  0.00    +0.255 C 
ATOM      3  O   UNL     1      -0.026  -0.341  -2.252  0.00  0.00    -0.269 OA
ATOM      4  C   UNL     1       0.024  -2.181  -0.716  0.00  0.00    +0.071 A 
ATOM      5  C   UNL     1       0.037  -2.189   0.696  0.00  0.00    +0.071 A 
ATOM      6  C   UNL     1       0.060  -3.395   1.379  0.00  0.00    +0.074 A 
ATOM      7  C   UNL     1       0.069  -4.589   0.668  0.00  0.00    +0.080 A 
ATOM      8  C   UNL     1       0.055  -4.582  -0.715  0.00  0.00    +0.080 A 
ATOM      9  C   UNL     1       0.032  -3.380  -1.412  0.00  0.00    +0.074 A 
ATOM     10 CL   UNL     1       0.015  -3.380  -3.148  0.00  0.00    -0.081 Cl
ATOM     11 CL   UNL     1       0.067  -6.084  -1.585  0.00  0.00    -0.080 Cl
ATOM     12 CL   UNL     1       0.096  -6.101   1.522  0.00  0.00    -0.080 Cl
ATOM     13 CL   UNL     1       0.078  -3.413   3.115  0.00  0.00    -0.081 Cl
ATOM     14  C   UNL     1       0.023  -0.771   1.107  0.00  0.00    +0.255 C 
ATOM     15  O   UNL     1       0.029  -0.365   2.252  0.00  0.00    -0.269 OA
ENDROOT
BRANCH   1  16
ATOM     16  C   UNL     1      -0.018   1.461   0.010  0.00  0.00    +0.117 C 
BRANCH  16  17
ATOM     17  C   UNL     1       1.418   1.990  -0.001  0.00  0.00    +0.019 C 
BRANCH  17  18
ATOM     18  C   UNL     1       1.397   3.520   0.008  0.00  0.00    +0.002 C 
BRANCH  18  19
ATOM     19  C   UNL     1       2.832   4.050  -0.003  0.00  0.00    +0.011 C 
BRANCH  19  20
ATOM     20  C   UNL     1       2.812   5.580   0.005  0.00  0.00    +0.120 C 
BRANCH  20  21
ATOM     21  C   UNL     1       4.225   6.101  -0.005  0.00  0.00    +0.307 C 
ATOM     22  O   UNL     1       5.154   5.329  -0.018  0.00  0.00    -0.251 OA
BRANCH  21  23
ATOM     23  O   UNL     1       4.453   7.424  -0.001  0.00  0.00    -0.464 OA
BRANCH  23  24
ATOM     24  C   UNL     1       5.839   7.855  -0.011  0.00  0.00    +0.235 C 
BRANCH  24  26
ATOM     25  C   UNL     1       5.322   9.910   1.312  0.00  0.00    +0.010 C 
ATOM     26  C   UNL     1       5.899   9.383  -0.004  0.00  0.00    +0.020 C 
ATOM     27  C   UNL     1       7.353   9.838  -0.141  0.00  0.00    +0.010 C 
ENDBRANCH  24  26
ENDBRANCH  23  24
ENDBRANCH  21  23
ENDBRANCH  20  21
ENDBRANCH  19  20
ENDBRANCH  18  19
ENDBRANCH  17  18
ENDBRANCH  16  17
ENDBRANCH   1  16
TORSDOF 9
