REMARK  Name = ZINC13065538
REMARK  9 active torsions:
REMARK  status: ('A' for Active; 'I' for Inactive)
REMARK    1  A    between atoms: C_1  and  C_2
REMARK    2  A    between atoms: C_9  and  C_14
REMARK    3  A    between atoms: C_14  and  N_61
REMARK    4  A    between atoms: C_15  and  C_16
REMARK    5  A    between atoms: C_15  and  N_61
REMARK    6  A    between atoms: N_20  and  C_21
REMARK    7  A    between atoms: C_21  and  C_22
REMARK    8  A    between atoms: C_29  and  C_30
REMARK    9  A    between atoms: C_29  and  N_61
REMARK                            x       y       z     vdW  Elec       q    Type
REMARK                         _______ _______ _______ _____ _____    ______ ____
ROOT
ATOM      1  N   UNL     1       0.049  -0.049   0.001  0.00  0.00    +0.389 N 
ATOM      2  H   UNL     1       0.443  -0.500   0.835  0.00  0.00    -0.081 HD
ENDROOT
BRANCH   1   3
ATOM      3  C   UNL     1       0.109   1.417   0.174  0.00  0.00    -0.037 C 
BRANCH   3  12
ATOM      4  C   UNL     1       0.571   2.917   7.465  0.00  0.00    +0.044 C 
ATOM      5  C   UNL     1      -0.241   2.748   6.207  0.00  0.00    -0.050 A 
ATOM      6  C   UNL     1      -1.617   2.926   6.247  0.00  0.00    +0.005 A 
ATOM      7  C   UNL     1      -2.380   2.777   5.109  0.00  0.00    +0.026 A 
ATOM      8  C   UNL     1      -1.766   2.444   3.906  0.00  0.00    +0.049 A 
ATOM      9  C   UNL     1      -0.370   2.264   3.869  0.00  0.00    -0.001 A 
ATOM     10  C   UNL     1       0.384   2.421   5.037  0.00  0.00    +0.013 A 
ATOM     11  C   UNL     1       0.267   1.915   2.598  0.00  0.00    +0.017 A 
ATOM     12  C   UNL     1      -0.514   1.776   1.498  0.00  0.00    +0.001 A 
ATOM     13  C   UNL     1      -1.909   1.974   1.587  0.00  0.00    +0.251 A 
ATOM     14  O   UNL     1      -2.592   1.850   0.586  0.00  0.00    -0.268 OA
ATOM     15  N   UNL     1      -2.504   2.290   2.751  0.00  0.00    -0.322 N 
ATOM     16  H   UNL     1      -3.465   2.414   2.779  0.00  0.00    +0.169 HD
ENDBRANCH   3  12
ENDBRANCH   1   3
BRANCH   1  17
ATOM     17  C   UNL     1       0.840  -0.452  -1.181  0.00  0.00    +0.001 C 
BRANCH  17  18
ATOM     18  C   UNL     1       0.834  -1.955  -1.284  0.00  0.00    +0.135 A 
ATOM     19  N   UNL     1      -0.080  -2.696  -1.861  0.00  0.00    -0.115 NA
ATOM     20  N   UNL     1       0.272  -3.929  -1.740  0.00  0.00    -0.023 NA
ATOM     21  N   UNL     1       1.388  -3.994  -1.100  0.00  0.00    -0.044 NA
ATOM     22  N   UNL     1       1.769  -2.797  -0.806  0.00  0.00    -0.227 N 
BRANCH  22  23
ATOM     23  C   UNL     1       2.989  -2.424  -0.086  0.00  0.00    +0.182 C 
BRANCH  23  24
ATOM     24  C   UNL     1       2.704  -2.378   1.394  0.00  0.00    -0.026 A 
ATOM     25  C   UNL     1       2.280  -1.200   1.979  0.00  0.00    +0.008 A 
ATOM     26  C   UNL     1       2.014  -1.158   3.335  0.00  0.00    +0.038 A 
ATOM     27  C   UNL     1       2.182  -2.294   4.108  0.00  0.00    +0.123 A 
ATOM     28  C   UNL     1       2.611  -3.472   3.521  0.00  0.00    +0.038 A 
ATOM     29  C   UNL     1       2.871  -3.513   2.165  0.00  0.00    +0.008 A 
ATOM     30  F   UNL     1       1.926  -2.253   5.434  0.00  0.00    -0.205 F 
ENDBRANCH  23  24
ENDBRANCH  22  23
ENDBRANCH  17  18
ENDBRANCH   1  17
BRANCH   1  31
ATOM     31  C   UNL     1      -1.356  -0.481  -0.161  0.00  0.00    -0.046 C 
BRANCH  31  32
ATOM     32  C   UNL     1      -1.974   0.157  -1.406  0.00  0.00    +0.102 C 
ATOM     33  C   UNL     1      -3.487  -0.147  -1.472  0.00  0.00    +0.032 C 
ATOM     34  C   UNL     1      -3.763  -0.356  -2.978  0.00  0.00    +0.030 C 
ATOM     35  C   UNL     1      -2.384  -0.153  -3.644  0.00  0.00    +0.160 C 
ATOM     36  O   UNL     1      -1.425  -0.439  -2.602  0.00  0.00    -0.378 OA
ENDBRANCH  31  32
ENDBRANCH   1  31
TORSDOF 8
