REMARK  Name = ZINC53364279
REMARK  9 active torsions:
REMARK  status: ('A' for Active; 'I' for Inactive)
REMARK    1  A    between atoms: C_1  and  C_2
REMARK    2  A    between atoms: C_2  and  O_3
REMARK    3  A    between atoms: O_3  and  C_4
REMARK    4  A    between atoms: C_8  and  C_11
REMARK    5  A    between atoms: C_9  and  O_10
REMARK    6  A    between atoms: C_14  and  C_27
REMARK    7  A    between atoms: C_16  and  C_19
REMARK    8  A    between atoms: C_23  and  O_25
REMARK    9  A    between atoms: O_25  and  C_26
REMARK                            x       y       z     vdW  Elec       q    Type
REMARK                         _______ _______ _______ _____ _____    ______ ____
ROOT
ATOM      1  C   UNL     1       2.274  -4.308   3.755  0.00  0.00    +0.095 C 
ATOM      2  C   UNL     1       1.296  -4.426   4.927  0.00  0.00    +0.079 C 
ATOM      3  C   UNL     1       1.903  -5.283   6.003  0.00  0.00    +0.047 C 
ATOM      4  N   UNL     1       2.916  -6.040   5.805  0.00  0.00    -0.264 NA
ATOM      5  C   UNL     1       3.610  -6.161   4.529  0.00  0.00    +0.204 C 
ATOM      6  N   UNL     1       2.774  -5.656   3.433  0.00  0.00    -0.284 NA
ATOM      7  H   UNL     1       2.011  -6.288   3.240  0.00  0.00    +0.125 HD
ENDROOT
BRANCH   3   8
ATOM      8  C   UNL     1       1.303  -5.249   7.351  0.00  0.00    -0.003 A 
ATOM      9  C   UNL     1       0.194  -4.439   7.605  0.00  0.00    +0.010 A 
ATOM     10  C   UNL     1      -0.362  -4.412   8.867  0.00  0.00    +0.002 A 
ATOM     11  C   UNL     1       0.176  -5.184   9.881  0.00  0.00    +0.015 A 
ATOM     12  C   UNL     1       1.276  -5.989   9.637  0.00  0.00    +0.018 A 
ATOM     13  C   UNL     1       1.839  -6.030   8.377  0.00  0.00    +0.025 A 
ATOM     14 BR   UNL     1       2.005  -7.039  11.030  0.00  0.00    -0.050 Br
ENDBRANCH   3   8
BRANCH   1  19
ATOM     15  C   UNL     1       0.802  -1.825   1.306  0.00  0.00    +0.162 A 
ATOM     16  C   UNL     1       0.261  -2.673   0.353  0.00  0.00    +0.049 A 
ATOM     17  C   UNL     1       0.372  -4.043   0.502  0.00  0.00    +0.004 A 
ATOM     18  C   UNL     1       1.024  -4.570   1.602  0.00  0.00    +0.009 A 
ATOM     19  C   UNL     1       1.566  -3.730   2.557  0.00  0.00    +0.015 A 
ATOM     20  C   UNL     1       1.462  -2.356   2.410  0.00  0.00    +0.163 A 
BRANCH  20  21
ATOM     21  O   UNL     1       2.000  -1.528   3.345  0.00  0.00    -0.503 OA
ATOM     22  H   UNL     1       1.395  -1.301   4.064  0.00  0.00    +0.292 HD
ENDBRANCH  20  21
BRANCH  15  23
ATOM     23  O   UNL     1       0.693  -0.477   1.160  0.00  0.00    -0.489 OA
BRANCH  23  25
ATOM     24  C   UNL     1      -0.019   1.526   0.010  0.00  0.00    +0.048 C 
ATOM     25  C   UNL     1       0.002  -0.004   0.002  0.00  0.00    +0.226 C 
ENDBRANCH  23  25
ENDBRANCH  15  23
ENDBRANCH   1  19
BRANCH   5  26
ATOM     26  C   UNL     1       4.889  -5.366   4.582  0.00  0.00    -0.005 A 
ATOM     27  C   UNL     1       5.397  -4.798   3.429  0.00  0.00    +0.007 A 
ATOM     28  C   UNL     1       6.570  -4.068   3.474  0.00  0.00    +0.004 A 
ATOM     29  C   UNL     1       7.238  -3.905   4.673  0.00  0.00    +0.045 A 
ATOM     30  C   UNL     1       6.731  -4.475   5.831  0.00  0.00    +0.120 A 
ATOM     31  C   UNL     1       5.550  -5.202   5.784  0.00  0.00    +0.052 A 
BRANCH  30  32
ATOM     32  O   UNL     1       7.386  -4.316   7.011  0.00  0.00    -0.495 OA
ATOM     33  C   UNL     1       8.592  -3.551   6.986  0.00  0.00    +0.277 C 
ENDBRANCH  30  32
ENDBRANCH   5  26
TORSDOF 7
