REMARK  Name = ZINC15202298
REMARK  2 active torsions:
REMARK  status: ('A' for Active; 'I' for Inactive)
REMARK    1  A    between atoms: C_12  and  C_18
REMARK    2  A    between atoms: C_12  and  O_22
REMARK                            x       y       z     vdW  Elec       q    Type
REMARK                         _______ _______ _______ _____ _____    ______ ____
ROOT
ATOM      1  C   UNL     1      -1.470   3.633   0.025  0.00  0.00    +0.007 C 
ATOM      2  C   UNL     1      -0.740   3.113   1.266  0.00  0.00    -0.010 C 
ATOM      3  C   UNL     1      -0.726   1.583   1.270  0.00  0.00    +0.009 C 
ATOM      4  C   UNL     1      -0.013   1.086   0.008  0.00  0.00    +0.012 C 
ATOM      5  C   UNL     1      -0.752   1.597  -1.233  0.00  0.00    +0.009 C 
ATOM      6  C   UNL     1      -0.749   3.136  -1.230  0.00  0.00    -0.010 C 
ATOM      7  C   UNL     1       0.689   3.658  -1.231  0.00  0.00    +0.009 C 
ATOM      8  C   UNL     1       1.422   3.139   0.010  0.00  0.00    +0.012 C 
ATOM      9  C   UNL     1       0.709   3.635   1.272  0.00  0.00    +0.009 C 
ATOM     10  C   UNL     1       1.414   1.616  -0.003  0.00  0.00    +0.047 C 
ATOM     11  C   UNL     1       2.182   1.081  -1.231  0.00  0.00    +0.090 C 
ATOM     12  C   UNL     1       3.636   1.080  -0.695  0.00  0.00    +0.248 C 
ATOM     13  N   UNL     1       3.513   1.117   0.772  0.00  0.00    -0.181 N 
ATOM     14  N   UNL     1       2.188   1.074   1.131  0.00  0.00    -0.227 NA
ATOM     15  C   UNL     1       4.547   1.183   1.634  0.00  0.00    +0.316 C 
ATOM     16  O   UNL     1       5.687   1.217   1.214  0.00  0.00    -0.251 OA
ATOM     17  N   UNL     1       4.316   1.212   2.962  0.00  0.00    -0.312 N 
ATOM     18  H   UNL     1       1.903   0.130   1.346  0.00  0.00    +0.145 HD
ATOM     19  H   UNL     1       3.407   1.186   3.297  0.00  0.00    +0.147 HD
ATOM     20  H   UNL     1       5.061   1.260   3.582  0.00  0.00    +0.147 HD
ENDROOT
BRANCH  12  21
ATOM     21  C   UNL     1       4.361  -0.194  -1.133  0.00  0.00    +0.437 C 
ATOM     22  F   UNL     1       3.655  -1.313  -0.677  0.00  0.00    -0.166 F 
ATOM     23  F   UNL     1       4.439  -0.229  -2.529  0.00  0.00    -0.166 F 
ATOM     24  F   UNL     1       5.651  -0.206  -0.593  0.00  0.00    -0.166 F 
ENDBRANCH  12  21
BRANCH  12  25
ATOM     25  O   UNL     1       4.338   2.233  -1.162  0.00  0.00    -0.363 OA
ATOM     26  H   UNL     1       5.242   2.305  -0.827  0.00  0.00    +0.212 HD
ENDBRANCH  12  25
TORSDOF 2
