REMARK  Name = ZINC12488434
REMARK  7 active torsions:
REMARK  status: ('A' for Active; 'I' for Inactive)
REMARK    1  A    between atoms: C_1  and  C_2
REMARK    2  A    between atoms: N_5  and  C_11
REMARK    3  A    between atoms: C_7  and  C_10
REMARK    4  A    between atoms: C_11  and  C_13
REMARK    5  A    between atoms: C_11  and  C_20
REMARK    6  A    between atoms: C_21  and  O_33
REMARK    7  A    between atoms: C_26  and  C_28
REMARK                            x       y       z     vdW  Elec       q    Type
REMARK                         _______ _______ _______ _____ _____    ______ ____
ROOT
ATOM      1  C   UNL     1      -2.768  -2.557   0.042  0.00  0.00    +0.130 C 
ENDROOT
BRANCH   1   5
ATOM      2  C   UNL     1       1.404  -2.043  -2.519  0.00  0.00    +0.039 C 
ATOM      3  C   UNL     1       0.689  -1.727  -1.204  0.00  0.00    +0.130 C 
ATOM      4  C   UNL     1      -0.720  -2.326  -1.231  0.00  0.00    +0.116 C 
ATOM      5  N   UNL     1      -1.429  -1.954   0.002  0.00  0.00    -0.286 NA
ATOM      6  C   UNL     1      -1.505  -0.492   0.139  0.00  0.00    +0.116 C 
ATOM      7  C   UNL     1      -0.088   0.088   0.152  0.00  0.00    +0.130 C 
ATOM      8  O   UNL     1       0.597  -0.309  -1.039  0.00  0.00    -0.371 OA
ATOM      9  C   UNL     1      -0.162   1.615   0.214  0.00  0.00    +0.039 C 
ENDBRANCH   1   5
BRANCH   1  10
ATOM     10  C   UNL     1      -3.467  -2.143   1.311  0.00  0.00    +0.076 A 
ATOM     11  C   UNL     1      -4.668  -1.573   1.465  0.00  0.00    +0.228 A 
ATOM     12  N   UNL     1      -5.143  -1.266   2.717  0.00  0.00    -0.173 N 
ATOM     13  C   UNL     1      -4.337  -1.566   3.780  0.00  0.00    +0.200 A 
ATOM     14  S   UNL     1      -2.913  -2.290   3.003  0.00  0.00    -0.047 S 
ATOM     15  N   UNL     1      -4.925  -1.216   4.890  0.00  0.00    -0.197 NA
ATOM     16  C   UNL     1      -6.120  -0.681   4.609  0.00  0.00    +0.218 A 
ATOM     17  N   UNL     1      -6.298  -0.688   3.305  0.00  0.00    -0.138 NA
BRANCH  16  18
ATOM     18  C   UNL     1      -7.084  -0.164   5.603  0.00  0.00    +0.173 A 
ATOM     19  C   UNL     1      -6.907  -0.146   6.951  0.00  0.00    +0.053 A 
ATOM     20  C   UNL     1      -8.069   0.430   7.505  0.00  0.00    +0.042 A 
ATOM     21  C   UNL     1      -8.888   0.731   6.478  0.00  0.00    +0.196 A 
ATOM     22  O   UNL     1      -8.288   0.376   5.331  0.00  0.00    -0.460 OA
ENDBRANCH  16  18
BRANCH  11  23
ATOM     23  O   UNL     1      -5.427  -1.296   0.370  0.00  0.00    -0.492 OA
ATOM     24  H   UNL     1      -6.279  -0.886   0.576  0.00  0.00    +0.294 HD
ENDBRANCH  11  23
ENDBRANCH   1  10
BRANCH   1  25
ATOM     25  C   UNL     1      -2.644  -4.058   0.004  0.00  0.00    -0.024 A 
ATOM     26  C   UNL     1      -1.722  -4.697   0.813  0.00  0.00    +0.005 A 
ATOM     27  C   UNL     1      -1.608  -6.074   0.778  0.00  0.00    +0.002 A 
ATOM     28  C   UNL     1      -2.415  -6.813  -0.065  0.00  0.00    +0.020 A 
ATOM     29  C   UNL     1      -3.338  -6.175  -0.875  0.00  0.00    +0.041 A 
ATOM     30  C   UNL     1      -3.456  -4.797  -0.835  0.00  0.00    +0.025 A 
ATOM     31 CL   UNL     1      -4.352  -7.104  -1.934  0.00  0.00    -0.084 Cl
ENDBRANCH   1  25
TORSDOF 5
