REMARK  Name = ZINC15226906
REMARK  6 active torsions:
REMARK  status: ('A' for Active; 'I' for Inactive)
REMARK    1  A    between atoms: C_1  and  C_2
REMARK    2  A    between atoms: C_2  and  O_3
REMARK    3  A    between atoms: O_3  and  C_4
REMARK    4  A    between atoms: C_8  and  S_11
REMARK    5  A    between atoms: S_11  and  C_12
REMARK    6  A    between atoms: N_19  and  C_20
REMARK                            x       y       z     vdW  Elec       q    Type
REMARK                         _______ _______ _______ _____ _____    ______ ____
ROOT
ATOM      1  S   UNL     1      -1.515   2.252   0.022  0.00  0.00    -0.033 S 
ENDROOT
BRANCH   1   2
ATOM      2  C   UNL     1      -0.016   1.325   0.016  0.00  0.00    +0.163 A 
ATOM      3  N   UNL     1       0.593   0.946   1.136  0.00  0.00    -0.191 NA
ATOM      4  C   UNL     1       1.709   0.250   1.167  0.00  0.00    +0.312 A 
ATOM      5  O   UNL     1       2.129  -0.011   2.283  0.00  0.00    -0.262 OA
ATOM      6  C   UNL     1       2.515  -0.254   0.068  0.00  0.00    +0.194 A 
ATOM      7  N   UNL     1       2.202  -0.059  -1.196  0.00  0.00    -0.188 NA
ATOM      8  S   UNL     1       0.768   0.834  -1.446  0.00  0.00    +0.041 S 
ATOM      9  N   UNL     1       3.669  -0.974   0.365  0.00  0.00    -0.327 N 
ATOM     10  C   UNL     1       4.505  -1.496  -0.719  0.00  0.00    +0.127 C 
ATOM     11  H   UNL     1       3.919  -1.129   1.289  0.00  0.00    +0.147 HD
ENDBRANCH   1   2
BRANCH   1  16
ATOM     12  C   UNL     1       0.177   6.664   0.449  0.00  0.00    +0.291 A 
ATOM     13  C   UNL     1      -1.191   6.179   0.450  0.00  0.00    +0.334 A 
ATOM     14  O   UNL     1      -2.048   7.039   0.581  0.00  0.00    -0.260 OA
ATOM     15  N   UNL     1      -1.644   4.950   0.330  0.00  0.00    -0.189 NA
ATOM     16  C   UNL     1      -0.866   3.882   0.179  0.00  0.00    +0.163 A 
ATOM     17  S   UNL     1       0.833   4.213   0.154  0.00  0.00    +0.043 S 
ATOM     18  N   UNL     1       1.217   5.869   0.317  0.00  0.00    -0.168 NA
BRANCH  12  19
ATOM     19  O   UNL     1       0.393   7.997   0.590  0.00  0.00    -0.473 OA
BRANCH  19  21
ATOM     20  C   UNL     1       1.795   9.958   0.753  0.00  0.00    +0.048 C 
ATOM     21  C   UNL     1       1.752   8.438   0.585  0.00  0.00    +0.227 C 
ENDBRANCH  19  21
ENDBRANCH  12  19
ENDBRANCH   1  16
TORSDOF 4
