REMARK  Name = ZINC13010075
REMARK  8 active torsions:
REMARK  status: ('A' for Active; 'I' for Inactive)
REMARK    1  A    between atoms: C_1  and  C_2
REMARK    2  A    between atoms: C_5  and  S_8
REMARK    3  A    between atoms: S_8  and  N_11
REMARK    4  A    between atoms: N_11  and  C_12
REMARK    5  A    between atoms: C_15  and  N_18
REMARK    6  A    between atoms: C_26  and  C_32
REMARK    7  A    between atoms: C_27  and  C_31
REMARK    8  A    between atoms: C_28  and  C_30
REMARK                            x       y       z     vdW  Elec       q    Type
REMARK                         _______ _______ _______ _____ _____    ______ ____
ROOT
ATOM      1  C   UNL     1       0.811  -0.663   1.058  0.00  0.00    +0.048 A 
ATOM      2  C   UNL     1       1.838  -0.064   1.775  0.00  0.00    +0.026 A 
ATOM      3  C   UNL     1       2.380  -0.705   2.871  0.00  0.00    +0.025 A 
ATOM      4  C   UNL     1       1.907  -1.954   3.249  0.00  0.00    +0.033 A 
ATOM      5  C   UNL     1       0.884  -2.557   2.528  0.00  0.00    +0.025 A 
ATOM      6  C   UNL     1       0.337  -1.913   1.436  0.00  0.00    +0.026 A 
ENDROOT
BRANCH   4   7
ATOM      7  N   UNL     1       2.460  -2.607   4.357  0.00  0.00    -0.298 N 
ATOM      8  C   UNL     1       2.746  -1.891   5.516  0.00  0.00    +0.146 A 
ATOM      9  C   UNL     1       2.337  -0.562   5.636  0.00  0.00    +0.049 A 
ATOM     10  C   UNL     1       2.644   0.109   6.807  0.00  0.00    +0.053 A 
ATOM     11  C   UNL     1       3.345  -0.585   7.794  0.00  0.00    +0.176 A 
ATOM     12  N   UNL     1       3.692  -1.844   7.593  0.00  0.00    -0.128 NA
ATOM     13  N   UNL     1       3.403  -2.469   6.510  0.00  0.00    -0.132 NA
ATOM     14  N   UNL     1       3.678   0.052   8.995  0.00  0.00    -0.217 N 
ATOM     15  C   UNL     1       3.902  -0.557  10.188  0.00  0.00    +0.047 A 
ATOM     16  C   UNL     1       4.197   0.406  11.091  0.00  0.00    -0.007 A 
ATOM     17  C   UNL     1       4.145   1.642  10.437  0.00  0.00    +0.064 A 
ATOM     18  N   UNL     1       3.834   1.431   9.183  0.00  0.00    -0.170 NA
ATOM     19  C   UNL     1       4.402   2.986  11.068  0.00  0.00    +0.068 C 
ATOM     20  C   UNL     1       4.520   0.187  12.547  0.00  0.00    +0.047 C 
ATOM     21  C   UNL     1       3.837  -2.039  10.457  0.00  0.00    +0.066 C 
ATOM     22  H   UNL     1       2.645  -3.559   4.318  0.00  0.00    +0.154 HD
ENDBRANCH   4   7
BRANCH   1  23
ATOM     23  N   UNL     1       0.258  -0.011  -0.050  0.00  0.00    -0.216 N 
ATOM     24  H   UNL     1       0.755   0.040  -0.881  0.00  0.00    +0.174 HD
BRANCH  23  25
ATOM     25  S   UNL     1      -1.246   0.675   0.059  0.00  0.00    +0.072 S 
ATOM     26  O   UNL     1      -1.518   1.259  -1.208  0.00  0.00    -0.150 OA
ATOM     27  O   UNL     1      -2.096  -0.301   0.646  0.00  0.00    -0.150 OA
BRANCH  25  32
ATOM     28  C   UNL     1      -0.854   5.221   4.006  0.00  0.00    +0.044 C 
ATOM     29  C   UNL     1      -0.952   4.085   3.020  0.00  0.00    -0.050 A 
ATOM     30  C   UNL     1      -0.813   4.331   1.667  0.00  0.00    +0.005 A 
ATOM     31  C   UNL     1      -0.903   3.290   0.763  0.00  0.00    +0.029 A 
ATOM     32  C   UNL     1      -1.131   2.002   1.212  0.00  0.00    +0.109 A 
ATOM     33  C   UNL     1      -1.275   1.757   2.564  0.00  0.00    +0.029 A 
ATOM     34  C   UNL     1      -1.181   2.798   3.469  0.00  0.00    +0.005 A 
ENDBRANCH  25  32
ENDBRANCH  23  25
ENDBRANCH   1  23
TORSDOF 4
