REMARK  Name = ZINC40315320
REMARK  12 active torsions:
REMARK  status: ('A' for Active; 'I' for Inactive)
REMARK    1  A    between atoms: C_1  and  C_2
REMARK    2  A    between atoms: C_6  and  O_9
REMARK    3  A    between atoms: C_7  and  C_8
REMARK    4  A    between atoms: O_9  and  C_10
REMARK    5  A    between atoms: C_10  and  C_11
REMARK    6  A    between atoms: C_11  and  C_13
REMARK    7  A    between atoms: C_11  and  O_30
REMARK    8  A    between atoms: C_13  and  N_14
REMARK    9  A    between atoms: N_14  and  C_15
REMARK   10  A    between atoms: N_14  and  C_24
REMARK   11  A    between atoms: C_15  and  C_16
REMARK   12  A    between atoms: C_24  and  C_25
REMARK                            x       y       z     vdW  Elec       q    Type
REMARK                         _______ _______ _______ _____ _____    ______ ____
ROOT
ATOM      1  N   UNL     1      -0.023  -6.986   5.245  0.00  0.00    +0.389 N 
ATOM      2  H   UNL     1       0.781  -6.678   5.770  0.00  0.00    -0.081 HD
ENDROOT
BRANCH   1   3
ATOM      3  C   UNL     1       0.051  -6.455   3.878  0.00  0.00    -0.043 C 
BRANCH   3   4
ATOM      4  C   UNL     1       0.200  -4.933   3.930  0.00  0.00    +0.135 C 
BRANCH   4   5
ATOM      5  O   UNL     1       1.450  -4.596   4.535  0.00  0.00    -0.390 OA
ATOM      6  H   UNL     1       2.221  -4.942   4.064  0.00  0.00    +0.210 HD
ENDBRANCH   4   5
BRANCH   4   7
ATOM      7  C   UNL     1       0.153  -4.367   2.509  0.00  0.00    +0.258 C 
BRANCH   7   8
ATOM      8  O   UNL     1       0.174  -2.939   2.564  0.00  0.00    -0.489 OA
BRANCH   8  14
ATOM      9  C   UNL     1       0.136   1.292   0.130  0.00  0.00    +0.044 C 
ATOM     10  C   UNL     1       0.117  -0.215   0.153  0.00  0.00    -0.044 A 
ATOM     11  C   UNL     1       0.062  -0.923  -1.034  0.00  0.00    +0.004 A 
ATOM     12  C   UNL     1       0.044  -2.306  -1.016  0.00  0.00    +0.004 A 
ATOM     13  C   UNL     1       0.081  -2.983   0.188  0.00  0.00    +0.046 A 
ATOM     14  C   UNL     1       0.137  -2.275   1.379  0.00  0.00    +0.124 A 
ATOM     15  C   UNL     1       0.161  -0.888   1.359  0.00  0.00    -0.006 A 
ATOM     16  C   UNL     1       0.228  -0.115   2.651  0.00  0.00    +0.048 C 
ENDBRANCH   8  14
ENDBRANCH   7   8
ENDBRANCH   4   7
ENDBRANCH   3   4
ENDBRANCH   1   3
BRANCH   1  17
ATOM     17  C   UNL     1      -0.045  -8.454   5.199  0.00  0.00    -0.041 C 
BRANCH  17  18
ATOM     18  C   UNL     1       1.268  -8.960   4.659  0.00  0.00    -0.046 A 
ATOM     19  C   UNL     1       1.356  -9.394   3.350  0.00  0.00    +0.004 A 
ATOM     20  C   UNL     1       2.560  -9.857   2.854  0.00  0.00    +0.020 A 
ATOM     21  C   UNL     1       3.679  -9.887   3.669  0.00  0.00    +0.042 A 
ATOM     22  C   UNL     1       3.591  -9.453   4.979  0.00  0.00    +0.040 A 
ATOM     23  C   UNL     1       2.386  -8.984   5.473  0.00  0.00    +0.044 A 
ATOM     24 CL   UNL     1       2.277  -8.433   7.116  0.00  0.00    -0.083 Cl
ATOM     25 CL   UNL     1       5.191 -10.470   3.047  0.00  0.00    -0.083 Cl
ENDBRANCH  17  18
ENDBRANCH   1  17
BRANCH   1  26
ATOM     26  C   UNL     1      -1.248  -6.498   5.894  0.00  0.00    -0.003 C 
BRANCH  26  27
ATOM     27  C   UNL     1      -1.262  -6.940   7.335  0.00  0.00    +0.089 A 
ATOM     28  C   UNL     1      -0.668  -6.301   8.359  0.00  0.00    +0.042 A 
ATOM     29  C   UNL     1      -0.934  -7.058   9.523  0.00  0.00    +0.041 A 
ATOM     30  C   UNL     1      -1.675  -8.114   9.141  0.00  0.00    +0.195 A 
ATOM     31  O   UNL     1      -1.875  -8.034   7.815  0.00  0.00    -0.470 OA
ENDBRANCH  26  27
ENDBRANCH   1  26
TORSDOF 10
