REMARK  Name = ZINC43574019
REMARK  9 active torsions:
REMARK  status: ('A' for Active; 'I' for Inactive)
REMARK    1  A    between atoms: C_1  and  C_2
REMARK    2  A    between atoms: C_17  and  C_39
REMARK    3  A    between atoms: C_19  and  O_37
REMARK    4  A    between atoms: C_22  and  C_36
REMARK    5  A    between atoms: C_23  and  C_24
REMARK    6  A    between atoms: C_23  and  O_28
REMARK    7  A    between atoms: C_24  and  C_26
REMARK    8  A    between atoms: O_28  and  C_29
REMARK    9  A    between atoms: C_29  and  C_31
REMARK                            x       y       z     vdW  Elec       q    Type
REMARK                         _______ _______ _______ _____ _____    ______ ____
ROOT
ATOM      1  C   UNL     1      -0.159   1.246  -0.196  0.00  0.00    +0.012 C 
ATOM      2  C   UNL     1       0.355  -0.187  -0.350  0.00  0.00    +0.038 C 
ATOM      3  C   UNL     1       1.595  -0.209  -1.274  0.00  0.00    +0.012 C 
ATOM      4  C   UNL     1       2.503  -1.273  -0.629  0.00  0.00    +0.005 C 
ATOM      5  C   UNL     1       3.937  -1.168  -1.093  0.00  0.00    +0.018 C 
ATOM      6  C   UNL     1       3.999  -1.266  -2.620  0.00  0.00    +0.010 C 
ATOM      7  C   UNL     1       5.460  -1.329  -3.075  0.00  0.00    +0.032 C 
ATOM      8  C   UNL     1       6.182  -0.122  -2.506  0.00  0.00    -0.055 C 
ATOM      9  C   UNL     1       6.881   0.653  -3.323  0.00  0.00    +0.051 C 
ATOM     10  C   UNL     1       7.576   1.844  -2.810  0.00  0.00    +0.179 C 
ATOM     11  O   UNL     1       8.252   2.536  -3.549  0.00  0.00    -0.288 OA
ATOM     12  C   UNL     1       7.435   2.180  -1.383  0.00  0.00    +0.047 C 
ATOM     13  C   UNL     1       6.738   1.387  -0.585  0.00  0.00    -0.011 C 
ATOM     14  C   UNL     1       6.069   0.133  -1.032  0.00  0.00    +0.029 C 
ATOM     15  C   UNL     1       4.584   0.142  -0.647  0.00  0.00    +0.086 C 
ATOM     16  C   UNL     1       4.496   0.235   0.881  0.00  0.00    +0.137 C 
ATOM     17  C   UNL     1       3.026   0.279   1.288  0.00  0.00    +0.044 C 
ATOM     18  C   UNL     1       2.333  -1.024   0.879  0.00  0.00    +0.021 C 
ATOM     19  C   UNL     1       0.813  -0.733   1.015  0.00  0.00    +0.180 C 
ATOM     20  C   UNL     1       2.776  -2.230   1.710  0.00  0.00    +0.016 C 
ATOM     21 CL   UNL     1       3.735   1.538  -1.409  0.00  0.00    -0.114 Cl
ATOM     22  C   UNL     1       6.734  -1.037  -0.304  0.00  0.00    +0.022 C 
ENDROOT
BRANCH  19  23
ATOM     23  C   UNL     1       0.070  -2.002   1.341  0.00  0.00    +0.192 C 
ATOM     24  O   UNL     1      -0.559  -2.087   2.369  0.00  0.00    -0.292 OA
BRANCH  23  25
ATOM     25  C   UNL     1       0.110  -3.166   0.385  0.00  0.00    +0.187 C 
ATOM     26 CL   UNL     1      -0.938  -4.494   1.009  0.00  0.00    -0.117 Cl
ENDBRANCH  23  25
ENDBRANCH  19  23
BRANCH  16  27
ATOM     27  O   UNL     1       5.155   1.421   1.328  0.00  0.00    -0.390 OA
ATOM     28  H   UNL     1       5.137   1.544   2.287  0.00  0.00    +0.210 HD
ENDBRANCH  16  27
BRANCH  19  29
ATOM     29  O   UNL     1       0.590   0.243   2.035  0.00  0.00    -0.444 OA
BRANCH  29  30
ATOM     30  C   UNL     1       0.855  -0.126   3.305  0.00  0.00    +0.376 C 
ATOM     31  O   UNL     1       1.218  -1.261   3.545  0.00  0.00    -0.241 OA
BRANCH  30  32
ATOM     32  C   UNL     1       0.707   0.842   4.394  0.00  0.00    +0.211 A 
ATOM     33  C   UNL     1       0.946   0.603   5.718  0.00  0.00    +0.056 A 
ATOM     34  C   UNL     1       0.678   1.801   6.399  0.00  0.00    +0.042 A 
ATOM     35  C   UNL     1       0.291   2.706   5.473  0.00  0.00    +0.196 A 
ATOM     36  O   UNL     1       0.314   2.127   4.266  0.00  0.00    -0.456 OA
ENDBRANCH  30  32
ENDBRANCH  29  30
ENDBRANCH  19  29
TORSDOF 6
