REMARK  Name = ZINC22938424
REMARK  8 active torsions:
REMARK  status: ('A' for Active; 'I' for Inactive)
REMARK    1  A    between atoms: C_1  and  C_2
REMARK    2  A    between atoms: C_5  and  C_7
REMARK    3  A    between atoms: C_7  and  C_9
REMARK    4  A    between atoms: C_7  and  N_24
REMARK    5  A    between atoms: C_9  and  N_10
REMARK    6  A    between atoms: C_11  and  C_13
REMARK    7  A    between atoms: C_14  and  C_23
REMARK    8  A    between atoms: N_27  and  C_30
REMARK                            x       y       z     vdW  Elec       q    Type
REMARK                         _______ _______ _______ _____ _____    ______ ____
ROOT
ATOM      1  C   UNL     1       2.299  -3.399   1.370  0.00  0.00    +0.131 C 
ENDROOT
BRANCH   1   2
ATOM      2  N   UNL     1       3.312  -4.457   1.342  0.00  0.00    -0.307 N 
ATOM      3  C   UNL     1       3.990  -4.770   2.464  0.00  0.00    +0.280 C 
ATOM      4  O   UNL     1       3.761  -4.174   3.500  0.00  0.00    -0.267 OA
ATOM      5  H   UNL     1       3.494  -4.933   0.517  0.00  0.00    +0.149 HD
BRANCH   3   6
ATOM      6  C   UNL     1       5.005  -5.832   2.437  0.00  0.00    +0.193 A 
ATOM      7  C   UNL     1       5.744  -6.235   3.503  0.00  0.00    +0.008 A 
ATOM      8  C   UNL     1       6.614  -7.303   3.013  0.00  0.00    +0.024 A 
ATOM      9  C   UNL     1       7.588  -8.113   3.602  0.00  0.00    +0.013 A 
ATOM     10  C   UNL     1       8.241  -9.046   2.847  0.00  0.00    +0.016 A 
ATOM     11  C   UNL     1       7.942  -9.194   1.498  0.00  0.00    +0.021 A 
ATOM     12  C   UNL     1       6.984  -8.405   0.898  0.00  0.00    +0.062 A 
ATOM     13  C   UNL     1       6.306  -7.449   1.647  0.00  0.00    +0.137 A 
ATOM     14  O   UNL     1       5.341  -6.558   1.349  0.00  0.00    -0.450 OA
ATOM     15 BR   UNL     1       8.860 -10.492   0.474  0.00  0.00    -0.050 Br
ATOM     16  C   UNL     1       5.680  -5.691   4.907  0.00  0.00    +0.048 C 
ENDBRANCH   3   6
ENDBRANCH   1   2
BRANCH   1  17
ATOM     17  C   UNL     1       1.684  -3.245  -0.023  0.00  0.00    +0.140 C 
BRANCH  17  18
ATOM     18  N   UNL     1       2.750  -3.011  -1.006  0.00  0.00    -0.295 NA
ATOM     19  C   UNL     1       3.568  -1.849  -0.628  0.00  0.00    +0.066 C 
ATOM     20  C   UNL     1       4.700  -1.676  -1.643  0.00  0.00    -0.064 C 
ATOM     21  N   UNL     1       4.131  -1.481  -2.983  0.00  0.00    +0.379 N 
ATOM     22  C   UNL     1       3.337  -2.659  -3.356  0.00  0.00    -0.064 C 
ATOM     23  C   UNL     1       2.194  -2.841  -2.356  0.00  0.00    +0.066 C 
ATOM     24  C   UNL     1       5.218  -1.296  -3.954  0.00  0.00    -0.096 C 
ATOM     25  H   UNL     1       3.540  -0.663  -2.982  0.00  0.00    -0.082 HD
ENDBRANCH  17  18
BRANCH  17  30
ATOM     26  C   UNL     1      -0.060   1.487   0.044  0.00  0.00    +0.086 C 
ATOM     27  C   UNL     1      -0.026  -0.019   0.004  0.00  0.00    +0.102 A 
ATOM     28  C   UNL     1      -1.098  -0.829  -0.056  0.00  0.00    +0.045 A 
ATOM     29  C   UNL     1      -0.610  -2.155  -0.075  0.00  0.00    +0.046 A 
ATOM     30  C   UNL     1       0.732  -2.076  -0.025  0.00  0.00    +0.124 A 
ATOM     31  O   UNL     1       1.081  -0.780   0.017  0.00  0.00    -0.463 OA
ENDBRANCH  17  30
ENDBRANCH   1  17
TORSDOF 5
