REMARK  Name = ZINC27885965
REMARK  4 active torsions:
REMARK  status: ('A' for Active; 'I' for Inactive)
REMARK    1  A    between atoms: C_1  and  N_2
REMARK    2  A    between atoms: C_8  and  C_14
REMARK    3  A    between atoms: N_16  and  C_17
REMARK    4  A    between atoms: C_23  and  C_25
REMARK                            x       y       z     vdW  Elec       q    Type
REMARK                         _______ _______ _______ _____ _____    ______ ____
ROOT
ATOM      1  C   UNL     1      -0.876  -6.349  -0.029  0.00  0.00    +0.244 C 
ATOM      2  O   UNL     1       0.203  -6.908  -0.037  0.00  0.00    -0.270 OA
ATOM      3  N   UNL     1      -2.011  -7.076  -0.027  0.00  0.00    -0.308 N 
ATOM      4  H   UNL     1      -2.873  -6.630  -0.021  0.00  0.00    +0.149 HD
ENDROOT
BRANCH   1  12
ATOM      5  C   UNL     1      -0.018   1.461   0.010  0.00  0.00    +0.154 C 
ATOM      6  N   UNL     1       0.002  -0.004   0.002  0.00  0.00    -0.290 N 
ATOM      7  C   UNL     1      -1.164  -0.686   0.004  0.00  0.00    +0.262 A 
ATOM      8  O   UNL     1      -2.341  -0.038   0.013  0.00  0.00    -0.267 OA
ATOM      9  C   UNL     1      -1.114  -2.096  -0.004  0.00  0.00    +0.065 A 
ATOM     10  C   UNL     1      -2.282  -2.872  -0.003  0.00  0.00    +0.016 A 
ATOM     11  C   UNL     1      -2.193  -4.231  -0.011  0.00  0.00    +0.014 A 
ATOM     12  C   UNL     1      -0.944  -4.870  -0.021  0.00  0.00    +0.039 A 
ATOM     13  C   UNL     1       0.227  -4.129  -0.022  0.00  0.00    +0.041 A 
ATOM     14  C   UNL     1       0.157  -2.729  -0.013  0.00  0.00    +0.080 A 
ATOM     15  N   UNL     1       1.263  -1.972  -0.015  0.00  0.00    -0.222 NA
ATOM     16  C   UNL     1       1.180  -0.651  -0.013  0.00  0.00    +0.183 A 
ATOM     17  S   UNL     1       2.625   0.268  -0.022  0.00  0.00    -0.011 S 
ENDBRANCH   1  12
BRANCH   3  18
ATOM     18  C   UNL     1      -1.944  -8.540  -0.036  0.00  0.00    +0.085 C 
ATOM     19  C   UNL     1      -1.789  -9.051   1.398  0.00  0.00    +0.023 C 
ATOM     20  C   UNL     1      -2.988  -8.600   2.233  0.00  0.00    +0.002 C 
ATOM     21  C   UNL     1      -4.274  -9.166   1.627  0.00  0.00    +0.001 C 
ATOM     22  C   UNL     1      -4.430  -8.654   0.193  0.00  0.00    +0.014 C 
ATOM     23  C   UNL     1      -3.230  -9.105  -0.642  0.00  0.00    +0.113 C 
BRANCH  23  24
ATOM     24  C   UNL     1      -3.386  -8.594  -2.076  0.00  0.00    +0.395 C 
ATOM     25  F   UNL     1      -2.289  -9.006  -2.840  0.00  0.00    -0.170 F 
ATOM     26  F   UNL     1      -4.561  -9.111  -2.630  0.00  0.00    -0.170 F 
ATOM     27  F   UNL     1      -3.450  -7.197  -2.068  0.00  0.00    -0.170 F 
ENDBRANCH  23  24
ENDBRANCH   3  18
TORSDOF 3
