REMARK  Name = ZINC64891381
REMARK  10 active torsions:
REMARK  status: ('A' for Active; 'I' for Inactive)
REMARK    1  A    between atoms: C_1  and  C_2
REMARK    2  A    between atoms: C_2  and  O_3
REMARK    3  A    between atoms: O_3  and  C_4
REMARK    4  A    between atoms: C_7  and  C_13
REMARK    5  A    between atoms: C_9  and  O_10
REMARK    6  A    between atoms: O_10  and  C_11
REMARK    7  A    between atoms: C_11  and  C_12
REMARK    8  A    between atoms: C_13  and  C_14
REMARK    9  A    between atoms: C_16  and  C_19
REMARK   10  A    between atoms: N_29  and  C_30
REMARK                            x       y       z     vdW  Elec       q    Type
REMARK                         _______ _______ _______ _____ _____    ______ ____
ROOT
ATOM      1  C   UNL     1      -0.088  -6.554  -2.607  0.00  0.00    +0.232 A 
ATOM      2  N   UNL     1      -0.172  -6.668  -3.902  0.00  0.00    -0.191 NA
ATOM      3  C   UNL     1      -1.378  -7.156  -4.244  0.00  0.00    +0.202 A 
ATOM      4  N   UNL     1      -2.074  -7.356  -3.152  0.00  0.00    -0.056 NA
ATOM      5  O   UNL     1      -1.241  -6.971  -2.068  0.00  0.00    -0.337 OA
ENDROOT
BRANCH   3   6
ATOM      6  C   UNL     1      -1.843  -7.422  -5.628  0.00  0.00    +0.025 A 
ATOM      7  C   UNL     1      -0.997  -7.170  -6.708  0.00  0.00    +0.014 A 
ATOM      8  C   UNL     1      -1.425  -7.416  -7.995  0.00  0.00    +0.029 A 
ATOM      9  C   UNL     1      -2.701  -7.916  -8.219  0.00  0.00    +0.070 A 
ATOM     10  C   UNL     1      -3.552  -8.171  -7.140  0.00  0.00    +0.068 A 
ATOM     11  C   UNL     1      -3.121  -7.930  -5.847  0.00  0.00    +0.039 A 
ATOM     12  N   UNL     1      -4.743  -8.659  -7.674  0.00  0.00    -0.306 N 
ATOM     13  H   UNL     1      -5.526  -8.925  -7.166  0.00  0.00    +0.170 HD
ATOM     14  C   UNL     1      -4.621  -8.699  -9.014  0.00  0.00    +0.328 A 
ATOM     15  O   UNL     1      -5.483  -9.077  -9.785  0.00  0.00    -0.247 OA
ATOM     16  N   UNL     1      -3.401  -8.257  -9.372  0.00  0.00    -0.289 N 
BRANCH  16  17
ATOM     17  C   UNL     1      -2.896  -8.152 -10.743  0.00  0.00    +0.092 C 
ATOM     18  C   UNL     1      -3.830  -7.257 -11.583  0.00  0.00    +0.025 C 
ATOM     19  C   UNL     1      -3.842  -7.926 -12.980  0.00  0.00    +0.002 C 
ATOM     20  C   UNL     1      -3.831  -9.436 -12.636  0.00  0.00    +0.002 C 
ATOM     21  C   UNL     1      -2.897  -9.538 -11.412  0.00  0.00    +0.025 C 
ENDBRANCH  16  17
ENDBRANCH   3   6
BRANCH   1  22
ATOM     22  C   UNL     1       1.107  -6.044  -1.844  0.00  0.00    +0.134 C 
BRANCH  22  26
ATOM     23  C   UNL     1       0.777  -1.811  -1.336  0.00  0.00    +0.162 A 
ATOM     24  C   UNL     1       0.243  -2.669  -0.388  0.00  0.00    +0.050 A 
ATOM     25  C   UNL     1       0.352  -4.037  -0.555  0.00  0.00    +0.008 A 
ATOM     26  C   UNL     1       0.992  -4.552  -1.667  0.00  0.00    -0.035 A 
ATOM     27  C   UNL     1       1.526  -3.702  -2.616  0.00  0.00    +0.053 A 
ATOM     28  C   UNL     1       1.416  -2.330  -2.458  0.00  0.00    +0.162 A 
BRANCH  23  29
ATOM     29  O   UNL     1       0.671  -0.465  -1.174  0.00  0.00    -0.489 OA
BRANCH  29  31
ATOM     30  C   UNL     1      -0.019   1.526   0.010  0.00  0.00    +0.048 C 
ATOM     31  C   UNL     1       0.002  -0.004   0.002  0.00  0.00    +0.226 C 
ENDBRANCH  29  31
ENDBRANCH  23  29
BRANCH  28  32
ATOM     32  O   UNL     1       1.936  -1.492  -3.394  0.00  0.00    -0.489 OA
BRANCH  32  33
ATOM     33  C   UNL     1       2.578  -2.095  -4.520  0.00  0.00    +0.226 C 
ATOM     34  C   UNL     1       3.096  -1.002  -5.457  0.00  0.00    +0.048 C 
ENDBRANCH  32  33
ENDBRANCH  28  32
ENDBRANCH  22  26
ENDBRANCH   1  22
TORSDOF 8
