REMARK  Name = ZINC02132094
REMARK  8 active torsions:
REMARK  status: ('A' for Active; 'I' for Inactive)
REMARK    1  A    between atoms: C_1  and  C_2
REMARK    2  A    between atoms: C_16  and  C_18
REMARK    3  A    between atoms: C_18  and  C_19
REMARK    4  A    between atoms: C_19  and  C_20
REMARK    5  A    between atoms: N_25  and  C_28
REMARK    6  A    between atoms: C_28  and  C_29
REMARK    7  A    between atoms: C_32  and  O_35
REMARK    8  A    between atoms: O_35  and  C_36
REMARK                            x       y       z     vdW  Elec       q    Type
REMARK                         _______ _______ _______ _____ _____    ______ ____
ROOT
ATOM      1  C   UNL     1      -1.390   4.861   4.160  0.00  0.00    +0.046 C 
ATOM      2  C   UNL     1      -0.841   3.529   3.720  0.00  0.00    -0.028 A 
ATOM      3  C   UNL     1      -1.338   2.365   4.268  0.00  0.00    +0.025 A 
ATOM      4  C   UNL     1      -0.839   1.137   3.869  0.00  0.00    +0.042 A 
ATOM      5  C   UNL     1       0.163   1.077   2.915  0.00  0.00    +0.024 A 
ATOM      6  C   UNL     1       0.662   2.237   2.367  0.00  0.00    -0.026 A 
ATOM      7  C   UNL     1       0.168   3.477   2.761  0.00  0.00    +0.039 A 
ATOM      8  N   UNL     1       0.824   4.500   2.070  0.00  0.00    -0.286 N 
ATOM      9  C   UNL     1       1.750   4.023   1.217  0.00  0.00    +0.211 C 
ATOM     10  O   UNL     1       2.469   4.675   0.489  0.00  0.00    -0.277 OA
ATOM     11  C   UNL     1       1.721   2.524   1.341  0.00  0.00    +0.050 C 
ATOM     12  C   UNL     1       1.403   1.856  -0.001  0.00  0.00    +0.088 C 
ATOM     13  C   UNL     1       2.261   0.560  -0.009  0.00  0.00    +0.073 C 
ATOM     14  C   UNL     1       2.994   0.564   1.349  0.00  0.00    -0.057 C 
ATOM     15  C   UNL     1       1.227  -0.543  -0.010  0.00  0.00    +0.224 C 
ATOM     16  O   UNL     1       1.469  -1.731  -0.020  0.00  0.00    -0.275 OA
ATOM     17  N   UNL     1       0.002  -0.004   0.002  0.00  0.00    -0.237 N 
ATOM     18  C   UNL     1      -0.016   1.334   0.009  0.00  0.00    +0.225 C 
ATOM     19  O   UNL     1      -1.015   2.021   0.018  0.00  0.00    -0.275 OA
ATOM     20 CL   UNL     1      -1.469  -0.325   4.563  0.00  0.00    -0.084 Cl
ATOM     21  H   UNL     1       0.635   5.443   2.192  0.00  0.00    +0.155 HD
ATOM     22  N   UNL     1       3.006   1.976   1.740  0.00  0.00    +0.394 N 
ATOM     23  H   UNL     1       3.129   2.062   2.756  0.00  0.00    -0.083 HD
ATOM     24  H   UNL     1       3.767   2.470   1.260  0.00  0.00    -0.083 HD
ENDROOT
BRANCH  14  25
ATOM     25  C   UNL     1       4.414   0.017   1.190  0.00  0.00    -0.006 C 
BRANCH  25  26
ATOM     26  C   UNL     1       5.078  -0.087   2.564  0.00  0.00    +0.094 C 
BRANCH  26  27
ATOM     27  C   UNL     1       6.477  -0.626   2.407  0.00  0.00    +0.210 C 
ATOM     28  O   UNL     1       6.901  -0.900   1.304  0.00  0.00    -0.276 OA
ATOM     29  N   UNL     1       7.257  -0.803   3.492  0.00  0.00    -0.329 N 
ATOM     30  H   UNL     1       6.918  -0.584   4.374  0.00  0.00    +0.145 HD
ATOM     31  H   UNL     1       8.157  -1.150   3.391  0.00  0.00    +0.145 HD
ENDBRANCH  26  27
ENDBRANCH  25  26
ENDBRANCH  14  25
BRANCH  17  32
ATOM     32  C   UNL     1      -1.219  -0.813   0.007  0.00  0.00    +0.151 C 
BRANCH  32  33
ATOM     33  C   UNL     1      -1.649  -1.083  -1.412  0.00  0.00    -0.029 A 
ATOM     34  C   UNL     1      -2.512  -0.210  -2.050  0.00  0.00    +0.009 A 
ATOM     35  C   UNL     1      -2.903  -0.452  -3.352  0.00  0.00    +0.046 A 
ATOM     36  C   UNL     1      -2.438  -1.578  -4.017  0.00  0.00    +0.120 A 
ATOM     37  C   UNL     1      -1.577  -2.454  -3.373  0.00  0.00    +0.046 A 
ATOM     38  C   UNL     1      -1.184  -2.205  -2.072  0.00  0.00    +0.009 A 
BRANCH  36  39
ATOM     39  O   UNL     1      -2.825  -1.821  -5.297  0.00  0.00    -0.495 OA
ATOM     40  C   UNL     1      -3.713  -0.875  -5.897  0.00  0.00    +0.277 C 
ENDBRANCH  36  39
ENDBRANCH  32  33
ENDBRANCH  17  32
TORSDOF 6
