REMARK  Name = ZINC12928898
REMARK  7 active torsions:
REMARK  status: ('A' for Active; 'I' for Inactive)
REMARK    1  A    between atoms: C_1  and  C_2
REMARK    2  A    between atoms: C_3  and  C_12
REMARK    3  A    between atoms: C_8  and  S_10
REMARK    4  A    between atoms: S_10  and  C_11
REMARK    5  A    between atoms: C_12  and  C_13
REMARK    6  A    between atoms: C_13  and  C_14
REMARK    7  A    between atoms: N_16  and  C_17
REMARK                            x       y       z     vdW  Elec       q    Type
REMARK                         _______ _______ _______ _____ _____    ______ ____
ROOT
ATOM      1  C   UNL     1      -2.484   0.042   0.014  0.00  0.00    +0.051 C 
ENDROOT
BRANCH   1   4
ATOM      2  C   UNL     1      -0.020   1.539   0.008  0.00  0.00    +0.066 C 
ATOM      3  C   UNL     1       0.011   0.033   0.000  0.00  0.00    +0.049 A 
ATOM      4  C   UNL     1      -1.157  -0.673   0.003  0.00  0.00    +0.038 A 
ATOM      5  C   UNL     1      -1.103  -2.078  -0.006  0.00  0.00    +0.256 A 
ATOM      6  O   UNL     1      -2.128  -2.740  -0.004  0.00  0.00    -0.267 OA
ATOM      7  N   UNL     1       0.105  -2.681  -0.016  0.00  0.00    -0.302 N 
ATOM      8  H   UNL     1       0.166  -3.649  -0.022  0.00  0.00    +0.171 HD
ATOM      9  C   UNL     1       1.238  -1.925  -0.017  0.00  0.00    +0.169 A 
ATOM     10  N   UNL     1       1.178  -0.607  -0.015  0.00  0.00    -0.228 NA
BRANCH   9  11
ATOM     11  S   UNL     1       2.810  -2.720  -0.030  0.00  0.00    -0.091 S 
ATOM     12  C   UNL     1       3.996  -1.348  -0.029  0.00  0.00    +0.093 C 
ENDBRANCH   9  11
ENDBRANCH   1   4
BRANCH   1  13
ATOM     13  C   UNL     1      -3.000   0.182  -1.419  0.00  0.00    +0.101 C 
BRANCH  13  14
ATOM     14  C   UNL     1      -4.327   0.897  -1.408  0.00  0.00    +0.218 C 
ATOM     15  O   UNL     1      -4.811   1.259  -0.356  0.00  0.00    -0.275 OA
ATOM     16  N   UNL     1      -4.975   1.134  -2.565  0.00  0.00    -0.285 N 
ATOM     17  H   UNL     1      -4.558   0.903  -3.410  0.00  0.00    +0.155 HD
BRANCH  16  18
ATOM     18  C   UNL     1      -6.249   1.713  -2.549  0.00  0.00    +0.047 A 
ATOM     19  C   UNL     1      -6.571   2.658  -1.584  0.00  0.00    +0.024 A 
ATOM     20  C   UNL     1      -7.829   3.228  -1.570  0.00  0.00    +0.002 A 
ATOM     21  C   UNL     1      -8.768   2.857  -2.515  0.00  0.00    +0.001 A 
ATOM     22  C   UNL     1      -8.451   1.916  -3.477  0.00  0.00    +0.016 A 
ATOM     23  C   UNL     1      -7.192   1.346  -3.500  0.00  0.00    +0.035 A 
ATOM     24  I   UNL     1      -6.710  -0.074  -4.962  0.00  0.00    -0.042 I 
ENDBRANCH  16  18
ENDBRANCH  13  14
ENDBRANCH   1  13
TORSDOF 5
