REMARK  Name = ZINC19332362
REMARK  6 active torsions:
REMARK  status: ('A' for Active; 'I' for Inactive)
REMARK    1  A    between atoms: C_3  and  N_29
REMARK    2  A    between atoms: C_6  and  C_7
REMARK    3  A    between atoms: C_7  and  C_9
REMARK    4  A    between atoms: C_7  and  O_28
REMARK    5  A    between atoms: C_9  and  N_10
REMARK    6  A    between atoms: C_17  and  O_27
REMARK                            x       y       z     vdW  Elec       q    Type
REMARK                         _______ _______ _______ _____ _____    ______ ____
ROOT
ATOM      1  N   UNL     1       9.727   1.458  -2.127  0.00  0.00    +0.382 N 
ATOM      2  C   UNL     1      10.332   0.323  -1.421  0.00  0.00    -0.075 C 
ATOM      3  C   UNL     1      11.845   0.532  -1.318  0.00  0.00    +0.029 C 
ATOM      4  C   UNL     1      12.434   0.659  -2.724  0.00  0.00    +0.110 C 
ATOM      5  C   UNL     1      11.751   1.813  -3.460  0.00  0.00    +0.029 C 
ATOM      6  C   UNL     1      10.241   1.567  -3.498  0.00  0.00    -0.075 C 
ATOM      7  C   UNL     1      13.939   0.932  -2.626  0.00  0.00    +0.084 C 
ATOM      8  C   UNL     1      14.481   1.157  -4.040  0.00  0.00    +0.152 C 
ATOM      9  C   UNL     1      13.989   0.063  -4.953  0.00  0.00    +0.025 A 
ATOM     10  C   UNL     1      14.644  -0.147  -6.155  0.00  0.00    +0.048 A 
ATOM     11  C   UNL     1      14.215  -1.137  -7.020  0.00  0.00    +0.124 A 
ATOM     12  C   UNL     1      13.126  -1.923  -6.684  0.00  0.00    +0.042 A 
ATOM     13  C   UNL     1      12.472  -1.718  -5.487  0.00  0.00    +0.049 A 
ATOM     14  C   UNL     1      12.902  -0.724  -4.614  0.00  0.00    +0.127 A 
ATOM     15  O   UNL     1      12.235  -0.558  -3.442  0.00  0.00    -0.485 OA
ATOM     16  F   UNL     1      14.858  -1.337  -8.191  0.00  0.00    -0.205 F 
ATOM     17  H   UNL     1      10.008   2.376  -1.590  0.00  0.00    -0.082 HD
ENDROOT
BRANCH   8  18
ATOM     18  O   UNL     1      15.909   1.144  -4.009  0.00  0.00    -0.387 OA
ATOM     19  H   UNL     1      16.481   1.291  -4.938  0.00  0.00    +0.210 HD
ENDBRANCH   8  18
BRANCH   1  20
ATOM     20  C   UNL     1       8.261   1.362  -2.121  0.00  0.00    -0.042 C 
BRANCH  20  21
ATOM     21  C   UNL     1       7.661   2.673  -2.631  0.00  0.00    +0.128 C 
BRANCH  21  27
ATOM     22  C   UNL     1       5.541   2.191  -3.871  0.00  0.00    +0.008 A 
ATOM     23  C   UNL     1       4.166   2.077  -3.926  0.00  0.00    +0.024 A 
ATOM     24  C   UNL     1       3.404   2.324  -2.792  0.00  0.00    +0.036 A 
ATOM     25  C   UNL     1       4.028   2.692  -1.607  0.00  0.00    +0.024 A 
ATOM     26  C   UNL     1       5.404   2.798  -1.557  0.00  0.00    +0.008 A 
ATOM     27  C   UNL     1       6.160   2.551  -2.688  0.00  0.00    -0.021 A 
BRANCH  24  28
ATOM     28  N   UNL     1       2.011   2.209  -2.844  0.00  0.00    -0.271 N 
ATOM     29  C   UNL     1       1.255   1.844  -4.048  0.00  0.00    +0.114 C 
ATOM     30  C   UNL     1      -0.143   1.422  -3.544  0.00  0.00    +0.029 C 
ATOM     31  C   UNL     1      -0.246   2.198  -2.211  0.00  0.00    +0.098 C 
ATOM     32  C   UNL     1       1.193   2.419  -1.798  0.00  0.00    +0.220 C 
ATOM     33  O   UNL     1       1.555   2.740  -0.686  0.00  0.00    -0.275 OA
ENDBRANCH  24  28
ENDBRANCH  21  27
BRANCH  21  34
ATOM     34  O   UNL     1       8.019   3.737  -1.747  0.00  0.00    -0.389 OA
ATOM     35  H   UNL     1       9.079   3.978  -1.577  0.00  0.00    +0.210 HD
ENDBRANCH  21  34
ENDBRANCH  20  21
ENDBRANCH   1  20
TORSDOF 6
