REMARK  Name = ZINC44714490
REMARK  8 active torsions:
REMARK  status: ('A' for Active; 'I' for Inactive)
REMARK    1  A    between atoms: C_1  and  C_2
REMARK    2  A    between atoms: C_2  and  C_3
REMARK    3  A    between atoms: C_7  and  C_16
REMARK    4  A    between atoms: N_18  and  C_19
REMARK    5  A    between atoms: C_19  and  C_20
REMARK    6  A    between atoms: C_20  and  C_21
REMARK    7  A    between atoms: C_22  and  C_33
REMARK    8  A    between atoms: C_28  and  C_31
REMARK                            x       y       z     vdW  Elec       q    Type
REMARK                         _______ _______ _______ _____ _____    ______ ____
ROOT
ATOM      1  C   UNL     1      -0.662  -3.862   2.332  0.00  0.00    +0.218 C 
ATOM      2  O   UNL     1      -0.251  -2.782   2.700  0.00  0.00    -0.275 OA
ATOM      3  N   UNL     1      -0.614  -4.920   3.165  0.00  0.00    -0.315 N 
ATOM      4  H   UNL     1      -0.943  -5.784   2.871  0.00  0.00    +0.149 HD
ENDROOT
BRANCH   1   9
ATOM      5  C   UNL     1      -1.120  -0.555  -0.103  0.00  0.00    +0.215 C 
ATOM      6  O   UNL     1      -1.986   0.293  -0.125  0.00  0.00    -0.276 OA
ATOM      7  N   UNL     1      -1.455  -1.860  -0.067  0.00  0.00    -0.300 N 
ATOM      8  C   UNL     1      -0.547  -3.030  -0.029  0.00  0.00    +0.121 C 
ATOM      9  C   UNL     1      -1.226  -4.020   0.944  0.00  0.00    +0.100 C 
ATOM     10  C   UNL     1      -2.715  -3.635   0.921  0.00  0.00    -0.004 C 
ATOM     11  C   UNL     1      -2.816  -2.448  -0.049  0.00  0.00    +0.115 C 
ATOM     12  C   UNL     1      -3.172  -3.210   2.313  0.00  0.00    -0.010 C 
ATOM     13  C   UNL     1      -4.668  -2.886   2.277  0.00  0.00    -0.082 C 
ATOM     14  N   UNL     1      -5.416  -4.069   1.833  0.00  0.00    +0.379 N 
ATOM     15  C   UNL     1      -5.037  -4.415   0.458  0.00  0.00    -0.082 C 
ATOM     16  C   UNL     1      -3.556  -4.803   0.417  0.00  0.00    -0.010 C 
ATOM     17  H   UNL     1      -5.208  -4.845   2.443  0.00  0.00    -0.086 HD
ATOM     18  H   UNL     1      -6.405  -3.873   1.868  0.00  0.00    -0.086 HD
BRANCH   5  20
ATOM     19  C   UNL     1       0.435   1.376  -0.157  0.00  0.00    +0.013 C 
ATOM     20  C   UNL     1       0.332  -0.150  -0.115  0.00  0.00    +0.092 C 
ENDBRANCH   5  20
ENDBRANCH   1   9
BRANCH   3  21
ATOM     21  C   UNL     1      -0.066  -4.766   4.515  0.00  0.00    +0.109 C 
BRANCH  21  22
ATOM     22  C   UNL     1      -0.128  -6.108   5.247  0.00  0.00    +0.056 C 
BRANCH  22  23
ATOM     23  C   UNL     1       0.436  -5.949   6.635  0.00  0.00    -0.018 A 
ATOM     24  C   UNL     1       1.718  -6.107   7.000  0.00  0.00    +0.017 A 
ATOM     25  N   UNL     1       1.853  -5.881   8.342  0.00  0.00    -0.358 N 
ATOM     26  H   UNL     1       2.688  -5.936   8.835  0.00  0.00    +0.166 HD
ATOM     27  C   UNL     1       0.633  -5.564   8.890  0.00  0.00    +0.047 A 
ATOM     28  C   UNL     1      -0.310  -5.587   7.844  0.00  0.00    +0.004 A 
ATOM     29  C   UNL     1      -1.647  -5.297   8.104  0.00  0.00    +0.029 A 
ATOM     30  C   UNL     1      -2.037  -4.983   9.403  0.00  0.00    +0.052 A 
ATOM     31  C   UNL     1      -1.089  -4.960  10.435  0.00  0.00    +0.021 A 
ATOM     32  C   UNL     1       0.220  -5.250  10.183  0.00  0.00    +0.027 A 
ATOM     33  C   UNL     1       2.842  -6.480   6.067  0.00  0.00    +0.063 C 
BRANCH  30  34
ATOM     34  C   UNL     1      -3.409  -4.682   9.685  0.00  0.00    +0.099 C 
ATOM     35  N   UNL     1      -4.497  -4.444   9.909  0.00  0.00    -0.191 NA
ENDBRANCH  30  34
ENDBRANCH  22  23
ENDBRANCH  21  22
ENDBRANCH   3  21
TORSDOF 6
