REMARK  Name = ZINC58892514
REMARK  11 active torsions:
REMARK  status: ('A' for Active; 'I' for Inactive)
REMARK    1  A    between atoms: C_4  and  C_7
REMARK    2  A    between atoms: C_7  and  C_9
REMARK    3  A    between atoms: C_7  and  O_34
REMARK    4  A    between atoms: C_9  and  C_10
REMARK    5  A    between atoms: C_10  and  C_11
REMARK    6  A    between atoms: N_13  and  N_14
REMARK    7  A    between atoms: C_15  and  C_16
REMARK    8  A    between atoms: C_21  and  O_22
REMARK    9  A    between atoms: O_22  and  C_23
REMARK   10  A    between atoms: C_23  and  C_24
REMARK   11  A    between atoms: C_28  and  N_30
REMARK                            x       y       z     vdW  Elec       q    Type
REMARK                         _______ _______ _______ _____ _____    ______ ____
ROOT
ATOM      1  C   UNL     1       8.567  -5.250  -3.363  0.00  0.00    +0.037 A 
ATOM      2  C   UNL     1       8.151  -4.959  -2.062  0.00  0.00    +0.028 A 
ATOM      3  C   UNL     1       8.827  -5.498  -0.987  0.00  0.00    +0.019 A 
ATOM      4  C   UNL     1       9.918  -6.327  -1.193  0.00  0.00    +0.019 A 
ATOM      5  C   UNL     1      10.338  -6.622  -2.476  0.00  0.00    +0.047 A 
ATOM      6  C   UNL     1       9.667  -6.094  -3.567  0.00  0.00    +0.130 A 
ATOM      7 BR   UNL     1       8.264  -5.103   0.774  0.00  0.00    -0.050 Br
ENDROOT
BRANCH   1   9
ATOM      8  N   UNL     1       7.191  -3.566  -4.385  0.00  0.00    -0.188 NA
ATOM      9  C   UNL     1       7.849  -4.678  -4.516  0.00  0.00    +0.142 C 
BRANCH   8  12
ATOM     10  C   UNL     1       6.554  -1.718  -3.026  0.00  0.00    +0.232 C 
ATOM     11  O   UNL     1       5.686  -1.443  -3.828  0.00  0.00    -0.274 OA
ATOM     12  N   UNL     1       7.323  -2.809  -3.213  0.00  0.00    -0.207 N 
ATOM     13  H   UNL     1       7.968  -3.069  -2.537  0.00  0.00    +0.177 HD
BRANCH  10  14
ATOM     14  C   UNL     1       6.772  -0.840  -1.821  0.00  0.00    +0.100 C 
BRANCH  14  15
ATOM     15  C   UNL     1       5.693   0.244  -1.778  0.00  0.00    +0.045 C 
BRANCH  15  16
ATOM     16  C   UNL     1       5.843   1.062  -0.494  0.00  0.00    +0.145 C 
BRANCH  16  20
ATOM     17  C   UNL     1       3.073   4.313  -0.547  0.00  0.00    +0.000 A 
ATOM     18  C   UNL     1       4.392   4.524  -0.900  0.00  0.00    +0.000 A 
ATOM     19  C   UNL     1       5.289   3.472  -0.883  0.00  0.00    +0.006 A 
ATOM     20  C   UNL     1       4.866   2.209  -0.512  0.00  0.00    -0.019 A 
ATOM     21  C   UNL     1       3.547   1.999  -0.157  0.00  0.00    +0.006 A 
ATOM     22  C   UNL     1       2.650   3.050  -0.176  0.00  0.00    +0.000 A 
ENDBRANCH  16  20
BRANCH  16  23
ATOM     23  O   UNL     1       5.578   0.228   0.636  0.00  0.00    -0.387 OA
ATOM     24  H   UNL     1       4.722  -0.219   0.602  0.00  0.00    +0.210 HD
ENDBRANCH  16  23
ENDBRANCH  15  16
ENDBRANCH  14  15
ENDBRANCH  10  14
ENDBRANCH   8  12
ENDBRANCH   1   9
BRANCH   6  25
ATOM     25  O   UNL     1      10.076  -6.388  -4.828  0.00  0.00    -0.487 OA
BRANCH  25  26
ATOM     26  C   UNL     1      11.140  -7.333  -4.960  0.00  0.00    +0.264 C 
BRANCH  26  27
ATOM     27  C   UNL     1      11.525  -7.456  -6.412  0.00  0.00    -0.008 A 
ATOM     28  C   UNL     1      10.973  -8.456  -7.191  0.00  0.00    +0.007 A 
ATOM     29  C   UNL     1      11.325  -8.569  -8.523  0.00  0.00    +0.003 A 
ATOM     30  C   UNL     1      12.230  -7.681  -9.076  0.00  0.00    +0.033 A 
ATOM     31  C   UNL     1      12.781  -6.681  -8.298  0.00  0.00    +0.127 A 
ATOM     32  C   UNL     1      12.425  -6.566  -6.967  0.00  0.00    +0.039 A 
BRANCH  31  33
ATOM     33  N   UNL     1      13.750  -5.732  -8.890  0.00  0.00    +0.056 N 
ATOM     34  O   UNL     1      13.988  -5.771 -10.074  0.00  0.00    -0.126 OA
ATOM     35  O   UNL     1      14.303  -4.917  -8.189  0.00  0.00    -0.126 OA
ENDBRANCH  31  33
ENDBRANCH  26  27
ENDBRANCH  25  26
ENDBRANCH   6  25
TORSDOF 11
