REMARK  Name = ZINC67079446
REMARK  6 active torsions:
REMARK  status: ('A' for Active; 'I' for Inactive)
REMARK    1  A    between atoms: N_9  and  C_10
REMARK    2  A    between atoms: C_10  and  C_11
REMARK    3  A    between atoms: N_13  and  C_14
REMARK    4  A    between atoms: C_14  and  C_15
REMARK    5  A    between atoms: C_15  and  C_16
REMARK    6  A    between atoms: N_20  and  C_21
REMARK                            x       y       z     vdW  Elec       q    Type
REMARK                         _______ _______ _______ _____ _____    ______ ____
ROOT
ATOM      1  C   UNL     1       1.523  -4.326   1.599  0.00  0.00    +0.233 C 
ATOM      2  O   UNL     1       1.089  -3.662   2.517  0.00  0.00    -0.274 OA
ATOM      3  N   UNL     1       2.591  -5.125   1.792  0.00  0.00    -0.313 N 
ATOM      4  H   UNL     1       2.938  -5.656   1.058  0.00  0.00    +0.149 HD
ENDROOT
BRANCH   1   5
ATOM      5  C   UNL     1       0.867  -4.259   0.244  0.00  0.00    +0.217 C 
BRANCH   5  14
ATOM      6  C   UNL     1      -1.691  -0.071   0.123  0.00  0.00    +0.011 A 
ATOM      7  C   UNL     1      -0.635   0.763  -0.117  0.00  0.00    +0.021 A 
ATOM      8  C   UNL     1       0.652   0.256  -0.236  0.00  0.00    +0.043 A 
ATOM      9  C   UNL     1       0.887  -1.098  -0.116  0.00  0.00    +0.046 A 
ATOM     10  C   UNL     1      -0.173  -1.964   0.128  0.00  0.00    +0.051 A 
ATOM     11  C   UNL     1      -1.475  -1.444   0.249  0.00  0.00    -0.000 A 
ATOM     12  C   UNL     1      -2.348  -2.594   0.498  0.00  0.00    +0.027 A 
ATOM     13  C   UNL     1      -1.566  -3.684   0.514  0.00  0.00    +0.087 A 
ATOM     14  N   UNL     1      -0.263  -3.328   0.294  0.00  0.00    -0.338 N 
ATOM     15 CL   UNL     1       1.977   1.335  -0.541  0.00  0.00    -0.083 Cl
ENDBRANCH   5  14
ENDBRANCH   1   5
BRANCH   3  16
ATOM     16  C   UNL     1       3.229  -5.190   3.109  0.00  0.00    +0.112 C 
BRANCH  16  17
ATOM     17  C   UNL     1       4.409  -6.162   3.057  0.00  0.00    +0.095 C 
BRANCH  17  18
ATOM     18  C   UNL     1       5.065  -6.230   4.412  0.00  0.00    +0.134 A 
ATOM     19  N   UNL     1       4.690  -5.575   5.463  0.00  0.00    -0.158 NA
ATOM     20  N   UNL     1       5.553  -5.910   6.516  0.00  0.00    -0.254 N 
ATOM     21  C   UNL     1       6.452  -6.792   6.033  0.00  0.00    +0.176 A 
ATOM     22  N   UNL     1       6.155  -7.000   4.735  0.00  0.00    -0.304 N 
ATOM     23  S   UNL     1       7.731  -7.519   6.910  0.00  0.00    -0.011 S 
ATOM     24  H   UNL     1       5.511  -5.570   7.424  0.00  0.00    +0.191 HD
BRANCH  22  25
ATOM     25  C   UNL     1       6.874  -7.894   3.823  0.00  0.00    +0.091 C 
ATOM     26  C   UNL     1       7.805  -8.937   4.444  0.00  0.00    +0.027 C 
ATOM     27  C   UNL     1       8.391  -7.724   3.718  0.00  0.00    +0.027 C 
ENDBRANCH  22  25
ENDBRANCH  17  18
ENDBRANCH  16  17
ENDBRANCH   3  16
TORSDOF 6
