REMARK  Name = ZINC15107437
REMARK  4 active torsions:
REMARK  status: ('A' for Active; 'I' for Inactive)
REMARK    1  A    between atoms: C_4  and  C_7
REMARK    2  A    between atoms: C_11  and  C_12
REMARK    3  A    between atoms: C_15  and  C_21
REMARK    4  A    between atoms: C_24  and  C_27
REMARK                            x       y       z     vdW  Elec       q    Type
REMARK                         _______ _______ _______ _____ _____    ______ ____
ROOT
ATOM      1  C   UNL     1       3.697  -0.686  -0.038  0.00  0.00    +0.025 A 
ATOM      2  C   UNL     1       4.090  -1.472  -1.120  0.00  0.00    +0.053 A 
ATOM      3  C   UNL     1       5.313  -2.082  -1.028  0.00  0.00    +0.020 A 
ATOM      4  S   UNL     1       5.934  -1.651   0.456  0.00  0.00    -0.084 S 
ATOM      5  C   UNL     1       4.601  -0.613   1.029  0.00  0.00    +0.110 A 
ATOM      6  C   UNL     1       5.922  -2.948  -2.090  0.00  0.00    +0.066 C 
ATOM      7  C   UNL     1       4.786  -3.603  -2.885  0.00  0.00    +0.109 C 
ATOM      8  C   UNL     1       3.703  -2.604  -3.181  0.00  0.00    +0.218 C 
ATOM      9  O   UNL     1       3.152  -2.648  -4.261  0.00  0.00    -0.275 OA
ATOM     10  N   UNL     1       3.319  -1.664  -2.301  0.00  0.00    -0.284 N 
ATOM     11  H   UNL     1       2.530  -1.125  -2.468  0.00  0.00    +0.155 HD
ENDROOT
BRANCH   1  15
ATOM     12  C   UNL     1      -0.017   1.379   0.010  0.00  0.00    +0.000 A 
ATOM     13  C   UNL     1       1.169   2.093   0.002  0.00  0.00    +0.001 A 
ATOM     14  C   UNL     1       2.377   1.428  -0.013  0.00  0.00    +0.008 A 
ATOM     15  C   UNL     1       2.403   0.034  -0.021  0.00  0.00    -0.015 A 
ATOM     16  C   UNL     1       1.204  -0.680  -0.013  0.00  0.00    +0.008 A 
ATOM     17  C   UNL     1       0.002  -0.004   0.002  0.00  0.00    +0.001 A 
ENDBRANCH   1  15
BRANCH   6  18
ATOM     18  C   UNL     1       6.775  -4.013  -1.450  0.00  0.00    -0.039 A 
ATOM     19  C   UNL     1       6.204  -4.920  -0.575  0.00  0.00    +0.005 A 
ATOM     20  C   UNL     1       6.979  -5.896   0.014  0.00  0.00    +0.015 A 
ATOM     21  C   UNL     1       8.344  -5.969  -0.275  0.00  0.00    +0.063 A 
ATOM     22  C   UNL     1       8.914  -5.051  -1.159  0.00  0.00    +0.015 A 
ATOM     23  C   UNL     1       8.126  -4.082  -1.745  0.00  0.00    +0.005 A 
BRANCH  21  24
ATOM     24  C   UNL     1       9.179  -7.011   0.352  0.00  0.00    +0.387 C 
ATOM     25  O   UNL     1       8.677  -7.814   1.126  0.00  0.00    -0.241 OA
ATOM     26  O   UNL     1      10.374  -7.072   0.097  0.00  0.00    -0.241 OA
ENDBRANCH  21  24
ENDBRANCH   6  18
BRANCH   5  27
ATOM     27  C   UNL     1       4.485   0.097   2.246  0.00  0.00    +0.394 C 
ATOM     28  O   UNL     1       3.484   0.766   2.472  0.00  0.00    -0.240 OA
ATOM     29  O   UNL     1       5.387   0.044   3.074  0.00  0.00    -0.240 OA
ENDBRANCH   5  27
TORSDOF 4
