REMARK  Name = ZINC26300377
REMARK  7 active torsions:
REMARK  status: ('A' for Active; 'I' for Inactive)
REMARK    1  A    between atoms: C_1  and  N_2
REMARK    2  A    between atoms: N_2  and  C_3
REMARK    3  A    between atoms: N_2  and  C_17
REMARK    4  A    between atoms: C_3  and  C_4
REMARK    5  A    between atoms: N_6  and  C_7
REMARK    6  A    between atoms: C_17  and  C_18
REMARK    7  A    between atoms: N_20  and  C_21
REMARK                            x       y       z     vdW  Elec       q    Type
REMARK                         _______ _______ _______ _____ _____    ______ ____
ROOT
ATOM      1  C   UNL     1      -2.508  -3.073  -1.742  0.00  0.00    +0.201 C 
ATOM      2  O   UNL     1      -3.095  -2.962  -2.798  0.00  0.00    -0.278 OA
ATOM      3  N   UNL     1      -3.098  -3.701  -0.706  0.00  0.00    -0.285 N 
ATOM      4  H   UNL     1      -2.536  -3.875   0.224  0.00  0.00    +0.155 HD
ENDROOT
BRANCH   3   5
ATOM      5  C   UNL     1      -4.427  -4.131  -0.812  0.00  0.00    +0.073 A 
ATOM      6  C   UNL     1      -5.465  -3.279  -0.456  0.00  0.00    +0.082 A 
ATOM      7  C   UNL     1      -6.776  -3.704  -0.567  0.00  0.00    +0.063 A 
ATOM      8  C   UNL     1      -7.054  -4.981  -1.021  0.00  0.00    +0.043 A 
ATOM      9  C   UNL     1      -6.022  -5.834  -1.371  0.00  0.00    +0.063 A 
ATOM     10  C   UNL     1      -4.709  -5.412  -1.268  0.00  0.00    +0.082 A 
ATOM     11 CL   UNL     1      -3.415  -6.483  -1.708  0.00  0.00    -0.080 Cl
ATOM     12 CL   UNL     1      -6.376  -7.436  -1.941  0.00  0.00    -0.082 Cl
ATOM     13 CL   UNL     1      -8.074  -2.638  -0.129  0.00  0.00    -0.082 Cl
ATOM     14 CL   UNL     1      -5.116  -1.679   0.121  0.00  0.00    -0.080 Cl
ENDBRANCH   3   5
BRANCH   1  15
ATOM     15  C   UNL     1      -1.118  -2.511  -1.590  0.00  0.00    +0.019 C 
BRANCH  15  17
ATOM     16  C   UNL     1      -1.528  -0.703  -3.148  0.00  0.00    -0.095 C 
ATOM     17  N   UNL     1      -0.704  -1.882  -2.852  0.00  0.00    +0.389 N 
ATOM     18  H   UNL     1      -0.857  -2.613  -3.660  0.00  0.00    -0.081 HD
BRANCH  17  19
ATOM     19  C   UNL     1       0.723  -1.534  -2.822  0.00  0.00    +0.019 C 
BRANCH  19  20
ATOM     20  C   UNL     1       1.168  -1.123  -4.202  0.00  0.00    +0.197 C 
ATOM     21  O   UNL     1       0.376  -1.125  -5.121  0.00  0.00    -0.278 OA
ATOM     22  N   UNL     1       2.448  -0.757  -4.417  0.00  0.00    -0.314 N 
ATOM     23  H   UNL     1       3.167  -0.759  -3.584  0.00  0.00    +0.149 HD
BRANCH  22  24
ATOM     24  C   UNL     1       2.880  -0.358  -5.758  0.00  0.00    +0.073 C 
ATOM     25  C   UNL     1       4.218  -0.904  -6.260  0.00  0.00    +0.024 C 
ATOM     26  C   UNL     1       4.093   0.569  -5.862  0.00  0.00    +0.024 C 
ENDBRANCH  22  24
ENDBRANCH  19  20
ENDBRANCH  17  19
ENDBRANCH  15  17
ENDBRANCH   1  15
TORSDOF 6
