REMARK  Name = ZINC03393597
REMARK  5 active torsions:
REMARK  status: ('A' for Active; 'I' for Inactive)
REMARK    1  A    between atoms: C_5  and  N_7
REMARK    2  A    between atoms: C_8  and  C_10
REMARK    3  A    between atoms: C_10  and  N_11
REMARK    4  A    between atoms: C_19  and  C_21
REMARK    5  A    between atoms: C_21  and  N_57
REMARK                            x       y       z     vdW  Elec       q    Type
REMARK                         _______ _______ _______ _____ _____    ______ ____
ROOT
ATOM      1  N   UNL     1       6.626   2.496   2.892  0.00  0.00    -0.320 N 
ATOM      2  C   UNL     1       6.162   1.325   2.321  0.00  0.00    +0.131 A 
ATOM      3  C   UNL     1       7.030   0.504   1.549  0.00  0.00    +0.051 A 
ATOM      4  C   UNL     1       8.453   0.717   1.239  0.00  0.00    -0.025 A 
ATOM      5  C   UNL     1       9.054  -0.214   0.481  0.00  0.00    -0.004 A 
ATOM      6  S   UNL     1       7.791  -1.418   0.137  0.00  0.00    -0.073 S 
ATOM      7  C   UNL     1       6.451  -0.661   1.016  0.00  0.00    +0.114 A 
ATOM      8  N   UNL     1       5.184  -0.963   1.231  0.00  0.00    -0.227 NA
ATOM      9  C   UNL     1       4.425  -0.160   1.951  0.00  0.00    +0.116 A 
ATOM     10  N   UNL     1       4.902   0.951   2.483  0.00  0.00    -0.219 NA
ATOM     11  C   UNL     1      10.502   0.108   0.226  0.00  0.00    +0.043 C 
ATOM     12  C   UNL     1      10.632   1.607   0.574  0.00  0.00    +0.010 C 
ATOM     13  C   UNL     1       9.485   1.794   1.586  0.00  0.00    +0.037 C 
ATOM     14  H   UNL     1       7.550   2.763   2.768  0.00  0.00    +0.148 HD
ENDROOT
BRANCH   1  15
ATOM     15  C   UNL     1       5.721   3.333   3.684  0.00  0.00    +0.199 C 
BRANCH  15  17
ATOM     16  N   UNL     1       5.834   5.457   4.947  0.00  0.00    -0.283 N 
ATOM     17  C   UNL     1       6.468   4.540   4.190  0.00  0.00    +0.234 C 
ATOM     18  O   UNL     1       7.641   4.687   3.916  0.00  0.00    -0.274 OA
ATOM     19  H   UNL     1       4.881   5.374   5.112  0.00  0.00    +0.155 HD
BRANCH  16  24
ATOM     20  C   UNL     1       8.304   8.153   5.332  0.00  0.00    +0.002 A 
ATOM     21  C   UNL     1       7.963   8.646   6.579  0.00  0.00    +0.001 A 
ATOM     22  C   UNL     1       6.916   8.082   7.285  0.00  0.00    +0.017 A 
ATOM     23  C   UNL     1       6.208   7.024   6.747  0.00  0.00    +0.039 A 
ATOM     24  C   UNL     1       6.548   6.528   5.495  0.00  0.00    +0.047 A 
ATOM     25  C   UNL     1       7.603   7.094   4.791  0.00  0.00    +0.024 A 
ATOM     26 BR   UNL     1       4.778   6.253   7.714  0.00  0.00    -0.048 Br
ENDBRANCH  16  24
ENDBRANCH  15  17
ENDBRANCH   1  15
BRANCH   9  27
ATOM     27  C   UNL     1       2.979  -0.523   2.179  0.00  0.00    -0.001 C 
BRANCH  27  33
ATOM     28  C   UNL     1       0.784  -0.465   1.161  0.00  0.00    -0.078 C 
ATOM     29  C   UNL     1      -0.004   0.047  -0.047  0.00  0.00    -0.019 C 
ATOM     30  C   UNL     1      -0.020   1.578  -0.028  0.00  0.00    -0.004 C 
ATOM     31  C   UNL     1       1.421   2.096  -0.033  0.00  0.00    -0.019 C 
ATOM     32  C   UNL     1       2.167   1.525   1.175  0.00  0.00    -0.078 C 
ATOM     33  N   UNL     1       2.168   0.049   1.085  0.00  0.00    +0.384 N 
ATOM     34  H   UNL     1       2.577  -0.229   0.185  0.00  0.00    -0.081 HD
ENDBRANCH  27  33
ENDBRANCH   9  27
TORSDOF 5
