REMARK  Name = ZINC29219764
REMARK  11 active torsions:
REMARK  status: ('A' for Active; 'I' for Inactive)
REMARK    1  A    between atoms: C_1  and  C_2
REMARK    2  A    between atoms: C_2  and  C_3
REMARK    3  A    between atoms: C_3  and  N_4
REMARK    4  A    between atoms: C_5  and  C_7
REMARK    5  A    between atoms: C_7  and  N_8
REMARK    6  A    between atoms: C_11  and  N_14
REMARK    7  A    between atoms: C_15  and  C_17
REMARK    8  A    between atoms: C_18  and  C_19
REMARK    9  A    between atoms: C_20  and  C_33
REMARK   10  A    between atoms: N_22  and  C_25
REMARK   11  A    between atoms: C_25  and  C_26
REMARK                            x       y       z     vdW  Elec       q    Type
REMARK                         _______ _______ _______ _____ _____    ______ ____
ROOT
ATOM      1  N   UNL     1      -1.635  -0.078   1.172  0.00  0.00    -0.309 N 
ATOM      2  C   UNL     1      -1.753  -1.316   0.651  0.00  0.00    +0.237 C 
ATOM      3  O   UNL     1      -0.758  -1.934   0.319  0.00  0.00    -0.271 OA
ATOM      4  H   UNL     1      -2.534   0.480   1.472  0.00  0.00    +0.149 HD
ENDROOT
BRANCH   1   8
ATOM      5  N   UNL     1       1.475   2.210   2.858  0.00  0.00    +0.385 N 
ATOM      6  C   UNL     1       0.942   2.671   1.570  0.00  0.00    -0.076 C 
ATOM      7  C   UNL     1      -0.436   2.049   1.335  0.00  0.00    +0.004 C 
ATOM      8  C   UNL     1      -0.310   0.523   1.339  0.00  0.00    +0.070 C 
ATOM      9  C   UNL     1       0.293   0.073   2.672  0.00  0.00    +0.004 C 
ATOM     10  C   UNL     1       1.650   0.752   2.868  0.00  0.00    -0.076 C 
ATOM     11  H   UNL     1       0.741   2.465   3.636  0.00  0.00    -0.081 HD
BRANCH   5  12
ATOM     12  C   UNL     1       2.735   2.893   3.182  0.00  0.00    +0.019 C 
BRANCH  12  14
ATOM     13  N   UNL     1       3.483   5.190   3.714  0.00  0.00    -0.317 N 
ATOM     14  C   UNL     1       2.468   4.360   3.403  0.00  0.00    +0.196 C 
ATOM     15  O   UNL     1       1.339   4.793   3.301  0.00  0.00    -0.278 OA
ATOM     16  H   UNL     1       4.506   4.798   3.806  0.00  0.00    +0.149 HD
BRANCH  13  17
ATOM     17  C   UNL     1       3.223   6.616   3.929  0.00  0.00    +0.104 C 
BRANCH  17  19
ATOM     18  C   UNL     1       4.264   8.817   4.490  0.00  0.00    +0.005 C 
ATOM     19  C   UNL     1       4.535   7.328   4.266  0.00  0.00    +0.015 C 
ENDBRANCH  17  19
ENDBRANCH  13  17
ENDBRANCH  12  14
ENDBRANCH   5  12
ENDBRANCH   1   8
BRANCH   2  20
ATOM     20  C   UNL     1      -3.035  -1.898   0.490  0.00  0.00    +0.068 C 
ATOM     21  C   UNL     1      -3.153  -3.139  -0.032  0.00  0.00    +0.018 C 
BRANCH  21  22
ATOM     22  C   UNL     1      -4.481  -3.742  -0.199  0.00  0.00    +0.034 A 
ATOM     23  C   UNL     1      -4.990  -4.342  -1.374  0.00  0.00    +0.069 A 
ATOM     24  N   UNL     1      -6.200  -4.761  -1.123  0.00  0.00    -0.174 NA
ATOM     25  N   UNL     1      -6.526  -4.447   0.201  0.00  0.00    -0.248 N 
ATOM     26  C   UNL     1      -5.475  -3.825   0.763  0.00  0.00    +0.135 A 
ATOM     27 CL   UNL     1      -5.380  -3.234   2.393  0.00  0.00    -0.062 Cl
ATOM     28  C   UNL     1      -4.261  -4.478  -2.686  0.00  0.00    +0.068 C 
BRANCH  25  29
ATOM     29  C   UNL     1      -7.798  -4.747   0.863  0.00  0.00    +0.181 C 
BRANCH  29  30
ATOM     30  C   UNL     1      -7.764  -6.153   1.402  0.00  0.00    -0.008 A 
ATOM     31  C   UNL     1      -7.391  -6.382   2.713  0.00  0.00    +0.007 A 
ATOM     32  C   UNL     1      -7.360  -7.673   3.208  0.00  0.00    +0.000 A 
ATOM     33  C   UNL     1      -7.702  -8.735   2.392  0.00  0.00    +0.001 A 
ATOM     34  C   UNL     1      -8.075  -8.507   1.081  0.00  0.00    +0.020 A 
ATOM     35  C   UNL     1      -8.111  -7.215   0.587  0.00  0.00    +0.046 A 
ATOM     36 CL   UNL     1      -8.586  -6.928  -1.058  0.00  0.00    -0.083 Cl
ENDBRANCH  29  30
ENDBRANCH  25  29
ENDBRANCH  21  22
ENDBRANCH   2  20
TORSDOF 9
