REMARK  Name = ZINC39693548
REMARK  11 active torsions:
REMARK  status: ('A' for Active; 'I' for Inactive)
REMARK    1  A    between atoms: C_1  and  C_2
REMARK    2  A    between atoms: C_2  and  C_3
REMARK    3  A    between atoms: C_2  and  C_4
REMARK    4  A    between atoms: C_2  and  O_5
REMARK    5  A    between atoms: O_5  and  C_6
REMARK    6  A    between atoms: N_8  and  C_9
REMARK    7  A    between atoms: C_9  and  C_10
REMARK    8  A    between atoms: C_10  and  N_11
REMARK    9  A    between atoms: C_12  and  C_14
REMARK   10  A    between atoms: C_25  and  C_27
REMARK   11  A    between atoms: C_30  and  C_32
REMARK                            x       y       z     vdW  Elec       q    Type
REMARK                         _______ _______ _______ _____ _____    ______ ____
ROOT
ATOM      1  C   UNL     1       8.095  -0.218  -5.353  0.00  0.00    +0.100 C 
ATOM      2  C   UNL     1       8.177   1.303  -5.612  0.00  0.00    +0.121 C 
ATOM      3  N   UNL     1       9.264   1.456  -6.607  0.00  0.00    -0.294 N 
ATOM      4  C   UNL     1       9.081   0.311  -7.531  0.00  0.00    +0.115 C 
ATOM      5  C   UNL     1       8.690  -0.865  -6.615  0.00  0.00    -0.004 C 
ATOM      6  C   UNL     1       9.923  -1.688  -6.257  0.00  0.00    -0.010 C 
ATOM      7  C   UNL     1      10.463  -2.367  -7.519  0.00  0.00    -0.082 C 
ATOM      8  N   UNL     1       9.424  -3.231  -8.094  0.00  0.00    +0.379 N 
ATOM      9  C   UNL     1       8.278  -2.419  -8.521  0.00  0.00    -0.082 C 
ATOM     10  C   UNL     1       7.646  -1.742  -7.301  0.00  0.00    -0.010 C 
ATOM     11  C   UNL     1      10.205   2.419  -6.660  0.00  0.00    +0.282 C 
ATOM     12  O   UNL     1      11.037   2.408  -7.549  0.00  0.00    -0.267 OA
ATOM     13  H   UNL     1       9.801  -3.724  -8.889  0.00  0.00    -0.086 HD
ATOM     14  H   UNL     1       9.122  -3.898  -7.400  0.00  0.00    -0.086 HD
ENDROOT
BRANCH  11  15
ATOM     15  C   UNL     1      10.227   3.479  -5.650  0.00  0.00    +0.190 A 
ATOM     16  C   UNL     1      11.126   4.521  -5.590  0.00  0.00    +0.055 A 
ATOM     17  C   UNL     1      10.780   5.289  -4.473  0.00  0.00    +0.051 A 
ATOM     18  C   UNL     1       9.694   4.694  -3.897  0.00  0.00    +0.139 A 
ATOM     19  O   UNL     1       9.367   3.608  -4.617  0.00  0.00    -0.450 OA
BRANCH  18  20
ATOM     20  C   UNL     1       8.993   5.168  -2.688  0.00  0.00    +0.052 A 
ATOM     21  C   UNL     1       9.716   5.481  -1.535  0.00  0.00    +0.014 A 
ATOM     22  C   UNL     1       9.055   5.924  -0.409  0.00  0.00    +0.001 A 
ATOM     23  C   UNL     1       7.677   6.059  -0.418  0.00  0.00    +0.003 A 
ATOM     24  C   UNL     1       6.953   5.752  -1.555  0.00  0.00    +0.039 A 
ATOM     25  C   UNL     1       7.602   5.312  -2.693  0.00  0.00    +0.134 A 
ATOM     26  F   UNL     1       6.894   5.018  -3.806  0.00  0.00    -0.205 F 
ENDBRANCH  18  20
ENDBRANCH  11  15
BRANCH   1  28
ATOM     27  N   UNL     1       6.368  -1.713  -4.404  0.00  0.00    -0.314 N 
ATOM     28  C   UNL     1       6.661  -0.644  -5.171  0.00  0.00    +0.218 C 
ATOM     29  O   UNL     1       5.771  -0.024  -5.714  0.00  0.00    -0.275 OA
ATOM     30  H   UNL     1       7.080  -2.208  -3.970  0.00  0.00    +0.149 HD
BRANCH  27  31
ATOM     31  C   UNL     1       4.974  -2.126  -4.227  0.00  0.00    +0.123 C 
BRANCH  31  32
ATOM     32  C   UNL     1       4.918  -3.356  -3.319  0.00  0.00    +0.126 C 
BRANCH  32  35
ATOM     33  C   UNL     1       3.230  -4.839  -2.375  0.00  0.00    +0.401 C 
ATOM     34  O   UNL     1       4.122  -5.460  -1.831  0.00  0.00    -0.226 OA
ATOM     35  N   UNL     1       3.524  -3.770  -3.142  0.00  0.00    -0.280 N 
ATOM     36  H   UNL     1       2.812  -3.274  -3.576  0.00  0.00    +0.152 HD
BRANCH  33  37
ATOM     37  O   UNL     1       1.949  -5.219  -2.212  0.00  0.00    -0.445 OA
BRANCH  37  39
ATOM     38  C   UNL     1       2.242  -6.091   0.022  0.00  0.00    +0.055 C 
ATOM     39  C   UNL     1       1.711  -6.361  -1.387  0.00  0.00    +0.107 C 
ATOM     40  C   UNL     1       2.428  -7.576  -1.978  0.00  0.00    +0.055 C 
ATOM     41  C   UNL     1       0.208  -6.638  -1.321  0.00  0.00    +0.055 C 
ENDBRANCH  37  39
ENDBRANCH  33  37
ENDBRANCH  32  35
ENDBRANCH  31  32
ENDBRANCH  27  31
ENDBRANCH   1  28
TORSDOF 8
