REMARK  Name = ZINC37443631
REMARK  9 active torsions:
REMARK  status: ('A' for Active; 'I' for Inactive)
REMARK    1  A    between atoms: C_1  and  C_2
REMARK    2  A    between atoms: C_7  and  N_12
REMARK    3  A    between atoms: C_9  and  C_11
REMARK    4  A    between atoms: C_13  and  C_15
REMARK    5  A    between atoms: C_15  and  C_37
REMARK    6  A    between atoms: N_27  and  C_28
REMARK    7  A    between atoms: C_28  and  C_29
REMARK    8  A    between atoms: C_34  and  O_35
REMARK    9  A    between atoms: O_35  and  C_36
REMARK                            x       y       z     vdW  Elec       q    Type
REMARK                         _______ _______ _______ _____ _____    ______ ____
ROOT
ATOM      1  C   UNL     1      -2.385  -3.386   1.732  0.00  0.00    +0.129 C 
ATOM      2  C   UNL     1      -2.755  -4.821   2.108  0.00  0.00    +0.157 C 
ATOM      3  N   UNL     1      -2.748  -5.652   0.901  0.00  0.00    -0.331 N 
ATOM      4  C   UNL     1      -2.487  -6.981   0.754  0.00  0.00    +0.088 A 
ATOM      5  C   UNL     1      -2.127  -8.186   1.405  0.00  0.00    +0.067 A 
ATOM      6  C   UNL     1      -2.072  -9.146   0.467  0.00  0.00    +0.198 A 
ATOM      7  O   UNL     1      -2.375  -8.619  -0.732  0.00  0.00    -0.461 OA
ATOM      8  C   UNL     1      -2.631  -7.300  -0.596  0.00  0.00    +0.153 A 
ATOM      9  C   UNL     1      -2.982  -6.124  -1.275  0.00  0.00    +0.079 A 
ATOM     10  C   UNL     1      -3.043  -5.122  -0.353  0.00  0.00    +0.109 A 
ATOM     11  C   UNL     1      -3.341  -3.693  -0.513  0.00  0.00    +0.264 C 
ATOM     12  O   UNL     1      -3.768  -3.240  -1.559  0.00  0.00    -0.268 OA
ATOM     13  N   UNL     1      -3.117  -2.906   0.566  0.00  0.00    -0.276 N 
ATOM     14  C   UNL     1      -2.692  -2.471   2.919  0.00  0.00    +0.043 C 
ENDROOT
BRANCH   1  16
ATOM     15  N   UNL     1      -0.451  -3.629   0.209  0.00  0.00    -0.310 N 
ATOM     16  C   UNL     1      -0.908  -3.325   1.440  0.00  0.00    +0.238 C 
ATOM     17  O   UNL     1      -0.130  -3.002   2.313  0.00  0.00    -0.273 OA
ATOM     18  H   UNL     1      -1.064  -3.952  -0.469  0.00  0.00    +0.149 HD
BRANCH  15  24
ATOM     19  C   UNL     1       0.841  -4.758  -3.731  0.00  0.00    +0.008 C 
ATOM     20  C   UNL     1       0.651  -4.773  -2.212  0.00  0.00    -0.009 C 
ATOM     21  C   UNL     1       1.438  -5.940  -1.611  0.00  0.00    +0.003 C 
ATOM     22  C   UNL     1       1.248  -5.955  -0.093  0.00  0.00    +0.002 C 
ATOM     23  C   UNL     1       1.758  -4.638   0.497  0.00  0.00    +0.022 C 
ATOM     24  C   UNL     1       0.971  -3.472  -0.104  0.00  0.00    +0.076 C 
ATOM     25  C   UNL     1       1.161  -3.457  -1.622  0.00  0.00    +0.009 C 
ATOM     26  C   UNL     1       0.374  -2.290  -2.223  0.00  0.00    +0.009 C 
ENDBRANCH  15  24
ENDBRANCH   1  16
BRANCH  13  27
ATOM     27  C   UNL     1      -3.623  -1.532   0.560  0.00  0.00    +0.148 C 
BRANCH  27  28
ATOM     28  C   UNL     1      -2.543  -0.600   0.074  0.00  0.00    +0.012 A 
ATOM     29  C   UNL     1      -1.756   0.080   0.982  0.00  0.00    +0.009 A 
ATOM     30  C   UNL     1      -0.765   0.935   0.536  0.00  0.00    +0.001 A 
ATOM     31  C   UNL     1      -0.560   1.112  -0.820  0.00  0.00    +0.004 A 
ATOM     32  C   UNL     1      -1.345   0.434  -1.732  0.00  0.00    +0.046 A 
ATOM     33  C   UNL     1      -2.336  -0.429  -1.287  0.00  0.00    +0.125 A 
BRANCH  33  34
ATOM     34  O   UNL     1      -3.105  -1.102  -2.183  0.00  0.00    -0.495 OA
ATOM     35  C   UNL     1      -2.835  -0.877  -3.568  0.00  0.00    +0.277 C 
ENDBRANCH  33  34
ENDBRANCH  27  28
ENDBRANCH  13  27
TORSDOF 5
