REMARK  Name = ZINC55212106
REMARK  8 active torsions:
REMARK  status: ('A' for Active; 'I' for Inactive)
REMARK    1  A    between atoms: C_1  and  C_2
REMARK    2  A    between atoms: C_4  and  C_13
REMARK    3  A    between atoms: C_6  and  S_9
REMARK    4  A    between atoms: C_7  and  C_8
REMARK    5  A    between atoms: S_9  and  N_12
REMARK    6  A    between atoms: C_16  and  C_26
REMARK    7  A    between atoms: C_21  and  C_23
REMARK    8  A    between atoms: C_23  and  C_24
REMARK                            x       y       z     vdW  Elec       q    Type
REMARK                         _______ _______ _______ _____ _____    ______ ____
ROOT
ATOM      1  C   UNL     1      -1.218   1.056   0.362  0.00  0.00    +0.044 C 
ATOM      2  C   UNL     1      -0.570  -0.297   0.221  0.00  0.00    -0.045 A 
ATOM      3  C   UNL     1      -0.584  -0.943  -0.999  0.00  0.00    +0.016 A 
ATOM      4  C   UNL     1       0.016  -2.196  -1.129  0.00  0.00    +0.039 A 
ATOM      5  C   UNL     1       0.627  -2.788  -0.022  0.00  0.00    +0.041 A 
ATOM      6  C   UNL     1       0.634  -2.132   1.192  0.00  0.00    +0.109 A 
ATOM      7  C   UNL     1       0.041  -0.888   1.312  0.00  0.00    -0.021 A 
ATOM      8  C   UNL     1       0.057  -0.174   2.639  0.00  0.00    +0.046 C 
ENDROOT
BRANCH   4   9
ATOM      9  C   UNL     1       0.005  -2.893  -2.432  0.00  0.00    +0.247 C 
ATOM     10  O   UNL     1       0.074  -4.106  -2.473  0.00  0.00    -0.270 OA
ATOM     11  N   UNL     1      -0.081  -2.184  -3.575  0.00  0.00    -0.288 N 
ATOM     12  C   UNL     1      -0.080  -0.714  -3.566  0.00  0.00    +0.096 C 
ATOM     13  C   UNL     1       0.806  -0.214  -4.672  0.00  0.00    -0.009 C 
ATOM     14  C   UNL     1       1.285  -0.973  -5.606  0.00  0.00    -0.027 C 
ATOM     15  C   UNL     1       1.045  -2.449  -5.711  0.00  0.00    +0.049 C 
ATOM     16  C   UNL     1      -0.175  -2.851  -4.886  0.00  0.00    +0.084 C 
ATOM     17  C   UNL     1      -1.506  -0.201  -3.779  0.00  0.00    +0.032 C 
BRANCH  16  18
ATOM     18  C   UNL     1      -0.189  -4.369  -4.695  0.00  0.00    +0.049 C 
BRANCH  18  19
ATOM     19  C   UNL     1      -1.478  -4.779  -4.030  0.00  0.00    -0.033 C 
ATOM     20  C   UNL     1      -2.273  -5.639  -4.617  0.00  0.00    +0.004 C 
ENDBRANCH  18  19
ENDBRANCH  16  18
ENDBRANCH   4   9
BRANCH   6  21
ATOM     21  S   UNL     1       1.403  -2.879   2.590  0.00  0.00    +0.056 S 
ATOM     22  O   UNL     1       0.473  -2.791   3.661  0.00  0.00    -0.153 OA
ATOM     23  O   UNL     1       1.939  -4.117   2.146  0.00  0.00    -0.153 OA
BRANCH  21  24
ATOM     24  N   UNL     1       2.693  -1.927   3.005  0.00  0.00    -0.204 NA
ATOM     25  H   UNL     1       2.889  -1.126   2.494  0.00  0.00    +0.144 HD
ATOM     26  H   UNL     1       3.253  -2.170   3.759  0.00  0.00    +0.144 HD
ENDBRANCH  21  24
ENDBRANCH   6  21
TORSDOF 5
