REMARK  Name = ZINC60330686
REMARK  10 active torsions:
REMARK  status: ('A' for Active; 'I' for Inactive)
REMARK    1  A    between atoms: C_1  and  C_2
REMARK    2  A    between atoms: C_2  and  C_3
REMARK    3  A    between atoms: C_3  and  C_4
REMARK    4  A    between atoms: C_4  and  N_5
REMARK    5  A    between atoms: C_10  and  C_12
REMARK    6  A    between atoms: C_12  and  N_13
REMARK    7  A    between atoms: N_13  and  S_14
REMARK    8  A    between atoms: S_14  and  C_17
REMARK    9  A    between atoms: C_20  and  S_23
REMARK   10  A    between atoms: S_23  and  N_26
REMARK                            x       y       z     vdW  Elec       q    Type
REMARK                         _______ _______ _______ _____ _____    ______ ____
ROOT
ATOM      1  S   UNL     1       0.757  -4.352  -2.224  0.00  0.00    +0.058 S 
ATOM      2  O   UNL     1       1.940  -3.692  -1.793  0.00  0.00    -0.153 OA
ATOM      3  O   UNL     1       0.672  -5.766  -2.337  0.00  0.00    -0.153 OA
ENDROOT
BRANCH   1   4
ATOM      4  C   UNL     1       0.364  -3.696  -3.812  0.00  0.00    +0.105 A 
ATOM      5  C   UNL     1      -0.404  -4.433  -4.693  0.00  0.00    +0.030 A 
ATOM      6  C   UNL     1      -0.712  -3.918  -5.938  0.00  0.00    +0.030 A 
ATOM      7  C   UNL     1      -0.253  -2.666  -6.302  0.00  0.00    +0.106 A 
ATOM      8  C   UNL     1       0.515  -1.929  -5.420  0.00  0.00    +0.030 A 
ATOM      9  C   UNL     1       0.820  -2.442  -4.173  0.00  0.00    +0.030 A 
BRANCH   7  10
ATOM     10  S   UNL     1      -0.645  -2.010  -7.890  0.00  0.00    +0.061 S 
ATOM     11  O   UNL     1       0.360  -1.052  -8.193  0.00  0.00    -0.153 OA
ATOM     12  O   UNL     1      -0.916  -3.122  -8.732  0.00  0.00    -0.153 OA
BRANCH  10  13
ATOM     13  N   UNL     1      -2.066  -1.174  -7.737  0.00  0.00    -0.172 NA
ATOM     14  C   UNL     1      -3.362  -1.841  -7.934  0.00  0.00    +0.137 C 
ATOM     15  C   UNL     1      -4.258  -1.521  -6.732  0.00  0.00    +0.177 C 
ATOM     16  O   UNL     1      -4.296  -0.106  -6.536  0.00  0.00    -0.377 OA
ATOM     17  C   UNL     1      -3.028   0.476  -6.223  0.00  0.00    +0.177 C 
ATOM     18  C   UNL     1      -2.069   0.257  -7.393  0.00  0.00    +0.137 C 
ENDBRANCH  10  13
ENDBRANCH   7  10
ENDBRANCH   1   4
BRANCH   1  19
ATOM     19  N   UNL     1      -0.448  -3.886  -1.189  0.00  0.00    -0.191 NA
ATOM     20  H   UNL     1      -0.251  -3.285  -0.454  0.00  0.00    +0.148 HD
BRANCH  19  21
ATOM     21  C   UNL     1      -1.813  -4.381  -1.384  0.00  0.00    +0.090 C 
BRANCH  21  27
ATOM     22  N   UNL     1      -1.931  -4.740   1.034  0.00  0.00    +0.382 N 
ATOM     23  C   UNL     1      -2.743  -4.584   2.247  0.00  0.00    -0.078 C 
ATOM     24  C   UNL     1      -2.912  -3.096   2.564  0.00  0.00    -0.019 C 
ATOM     25  C   UNL     1      -3.611  -2.406   1.388  0.00  0.00    -0.003 C 
ATOM     26  C   UNL     1      -2.794  -2.639   0.114  0.00  0.00    -0.014 C 
ATOM     27  C   UNL     1      -2.629  -4.144  -0.112  0.00  0.00    -0.053 C 
ATOM     28  H   UNL     1      -1.044  -4.279   1.164  0.00  0.00    -0.081 HD
BRANCH  22  29
ATOM     29  C   UNL     1      -1.706  -6.169   0.778  0.00  0.00    -0.078 C 
BRANCH  29  30
ATOM     30  C   UNL     1      -0.859  -6.762   1.905  0.00  0.00    -0.019 C 
BRANCH  30  32
ATOM     31  C   UNL     1       0.224  -8.843   2.767  0.00  0.00    +0.004 C 
ATOM     32  C   UNL     1      -0.624  -8.250   1.639  0.00  0.00    -0.005 C 
ENDBRANCH  30  32
ENDBRANCH  29  30
ENDBRANCH  22  29
ENDBRANCH  21  27
ENDBRANCH  19  21
ENDBRANCH   1  19
TORSDOF 9
