REMARK  Name = ZINC63959733
REMARK  9 active torsions:
REMARK  status: ('A' for Active; 'I' for Inactive)
REMARK    1  A    between atoms: C_1  and  C_2
REMARK    2  A    between atoms: C_2  and  C_3
REMARK    3  A    between atoms: C_2  and  C_4
REMARK    4  A    between atoms: C_2  and  C_5
REMARK    5  A    between atoms: N_14  and  C_15
REMARK    6  A    between atoms: C_15  and  C_16
REMARK    7  A    between atoms: C_16  and  C_17
REMARK    8  A    between atoms: C_17  and  C_18
REMARK    9  A    between atoms: C_19  and  C_25
REMARK                            x       y       z     vdW  Elec       q    Type
REMARK                         _______ _______ _______ _____ _____    ______ ____
ROOT
ATOM      1  C   UNL     1       0.707  -0.490  -1.238  0.00  0.00    +0.041 C 
ATOM      2  N   UNL     1       1.217   0.263  -2.143  0.00  0.00    -0.256 NA
ATOM      3  C   UNL     1       1.744  -0.558  -3.227  0.00  0.00    +0.274 C 
ATOM      4  N   UNL     1       2.025  -1.886  -2.593  0.00  0.00    -0.214 N 
ATOM      5  C   UNL     1       0.930  -1.944  -1.605  0.00  0.00    +0.180 C 
ATOM      6  N   UNL     1       3.182  -2.471  -3.061  0.00  0.00    -0.159 NA
ATOM      7  C   UNL     1       4.122  -1.781  -3.649  0.00  0.00    +0.175 C 
ATOM      8  S   UNL     1       3.467  -0.090  -3.661  0.00  0.00    -0.042 S 
ATOM      9  N   UNL     1       5.332  -2.234  -4.158  0.00  0.00    -0.322 N 
ATOM     10  H   UNL     1       5.948  -1.611  -4.574  0.00  0.00    +0.148 HD
ENDROOT
BRANCH   1  12
ATOM     11  C   UNL     1      -0.019   1.526   0.010  0.00  0.00    +0.017 C 
ATOM     12  C   UNL     1       0.002  -0.004   0.002  0.00  0.00    +0.002 C 
ATOM     13  C   UNL     1       0.742  -0.511   1.242  0.00  0.00    +0.017 C 
ATOM     14  C   UNL     1      -1.433  -0.534   0.013  0.00  0.00    +0.017 C 
ENDBRANCH   1  12
BRANCH   9  15
ATOM     15  C   UNL     1       5.680  -3.655  -4.066  0.00  0.00    +0.104 C 
BRANCH  15  16
ATOM     16  C   UNL     1       7.055  -3.885  -4.697  0.00  0.00    +0.025 C 
BRANCH  16  17
ATOM     17  C   UNL     1       7.417  -5.369  -4.601  0.00  0.00    +0.058 C 
BRANCH  17  18
ATOM     18  C   UNL     1       8.771  -5.596  -5.222  0.00  0.00    +0.055 A 
ATOM     19  C   UNL     1       9.992  -5.448  -4.594  0.00  0.00    +0.113 A 
ATOM     20  C   UNL     1      10.993  -5.764  -5.549  0.00  0.00    +0.156 A 
ATOM     21  N   UNL     1      10.394  -6.078  -6.670  0.00  0.00    -0.158 NA
ATOM     22  N   UNL     1       9.010  -5.984  -6.486  0.00  0.00    -0.279 N 
ATOM     23  H   UNL     1       8.336  -6.167  -7.158  0.00  0.00    +0.189 HD
ATOM     24  N   UNL     1      12.372  -5.743  -5.331  0.00  0.00    -0.341 N 
ATOM     25  H   UNL     1      12.722  -5.496  -4.461  0.00  0.00    +0.144 HD
ATOM     26  H   UNL     1      12.980  -5.976  -6.050  0.00  0.00    +0.144 HD
BRANCH  19  27
ATOM     27  C   UNL     1      10.208  -5.051  -3.236  0.00  0.00    +0.104 C 
ATOM     28  N   UNL     1      10.379  -4.736  -2.158  0.00  0.00    -0.191 NA
ENDBRANCH  19  27
ENDBRANCH  17  18
ENDBRANCH  16  17
ENDBRANCH  15  16
ENDBRANCH   9  15
TORSDOF 6
