REMARK  Name = ZINC65182471
REMARK  9 active torsions:
REMARK  status: ('A' for Active; 'I' for Inactive)
REMARK    1  A    between atoms: C_1  and  C_2
REMARK    2  A    between atoms: C_2  and  C_3
REMARK    3  A    between atoms: C_6  and  C_33
REMARK    4  A    between atoms: C_11  and  C_13
REMARK    5  A    between atoms: C_16  and  C_19
REMARK    6  A    between atoms: C_19  and  C_20
REMARK    7  A    between atoms: C_20  and  N_21
REMARK    8  A    between atoms: N_21  and  C_22
REMARK    9  A    between atoms: C_23  and  C_25
REMARK                            x       y       z     vdW  Elec       q    Type
REMARK                         _______ _______ _______ _____ _____    ______ ____
ROOT
ATOM      1  C   UNL     1      -1.317  -2.687   1.255  0.00  0.00    +0.318 C 
ATOM      2  N   UNL     1      -1.701  -4.107   1.238  0.00  0.00    -0.291 N 
ATOM      3  C   UNL     1      -0.533  -4.835   1.224  0.00  0.00    +0.139 C 
ATOM      4  N   UNL     1       0.498  -4.070   1.231  0.00  0.00    -0.072 NA
ATOM      5  O   UNL     1       0.119  -2.704   1.252  0.00  0.00    -0.367 OA
ATOM      6  H   UNL     1      -2.603  -4.463   1.235  0.00  0.00    +0.151 HD
ENDROOT
BRANCH   1  15
ATOM      7  C   UNL     1      -1.412  -0.526   0.013  0.00  0.00    -0.033 C 
ATOM      8  C   UNL     1      -2.549   0.207   0.022  0.00  0.00    -0.000 A 
ATOM      9  C   UNL     1      -2.800   1.653   0.025  0.00  0.00    +0.013 A 
ATOM     10  C   UNL     1      -4.077   2.097   0.035  0.00  0.00    -0.050 A 
ATOM     11  C   UNL     1      -5.165   1.213   0.043  0.00  0.00    +0.005 A 
ATOM     12  C   UNL     1      -5.014  -0.129   0.041  0.00  0.00    +0.026 A 
ATOM     13  C   UNL     1      -3.714  -0.706   0.030  0.00  0.00    +0.043 A 
ATOM     14  N   UNL     1      -3.313  -1.954   0.026  0.00  0.00    -0.373 N 
ATOM     15  C   UNL     1      -1.847  -1.974   0.009  0.00  0.00    +0.169 C 
ATOM     16  C   UNL     1      -4.338   3.581   0.039  0.00  0.00    +0.044 C 
ATOM     17  H   UNL     1      -3.890  -2.734   0.030  0.00  0.00    +0.160 HD
BRANCH   7  19
ATOM     18  C   UNL     1      -0.019   1.526   0.010  0.00  0.00    +0.008 C 
ATOM     19  C   UNL     1       0.002  -0.004   0.002  0.00  0.00    +0.030 C 
ENDBRANCH   7  19
ENDBRANCH   1  15
BRANCH   3  20
ATOM     20  C   UNL     1      -0.472  -6.340   1.204  0.00  0.00    +0.094 C 
BRANCH  20  21
ATOM     21  C   UNL     1       0.990  -6.791   1.194  0.00  0.00    +0.115 C 
BRANCH  21  22
ATOM     22  N   UNL     1       1.049  -8.255   1.175  0.00  0.00    -0.300 N 
ATOM     23  C   UNL     1       1.074  -8.970  -0.104  0.00  0.00    +0.132 C 
ATOM     24  C   UNL     1       1.080  -8.944   2.333  0.00  0.00    +0.252 C 
ATOM     25  O   UNL     1       1.058  -8.350   3.394  0.00  0.00    -0.270 OA
BRANCH  24  26
ATOM     26  C   UNL     1       1.139 -10.418   2.313  0.00  0.00    +0.107 A 
ATOM     27  C   UNL     1       2.376 -11.072   2.307  0.00  0.00    +0.138 A 
ATOM     28  C   UNL     1       2.423 -12.453   2.289  0.00  0.00    +0.039 A 
ATOM     29  C   UNL     1       1.251 -13.188   2.277  0.00  0.00    +0.006 A 
ATOM     30  C   UNL     1       0.025 -12.550   2.283  0.00  0.00    +0.039 A 
ATOM     31  C   UNL     1      -0.041 -11.169   2.307  0.00  0.00    +0.138 A 
ATOM     32  F   UNL     1      -1.240 -10.548   2.319  0.00  0.00    -0.205 F 
ATOM     33  F   UNL     1       3.521 -10.355   2.317  0.00  0.00    -0.205 F 
ENDBRANCH  24  26
ENDBRANCH  21  22
ENDBRANCH  20  21
ENDBRANCH   3  20
TORSDOF 6
