REMARK  Name = ZINC39655640
REMARK  7 active torsions:
REMARK  status: ('A' for Active; 'I' for Inactive)
REMARK    1  A    between atoms: C_4  and  N_7
REMARK    2  A    between atoms: N_7  and  C_8
REMARK    3  A    between atoms: C_8  and  C_9
REMARK    4  A    between atoms: C_9  and  N_10
REMARK    5  A    between atoms: C_11  and  C_13
REMARK    6  A    between atoms: C_24  and  C_26
REMARK    7  A    between atoms: C_29  and  C_31
REMARK                            x       y       z     vdW  Elec       q    Type
REMARK                         _______ _______ _______ _____ _____    ______ ____
ROOT
ATOM      1  C   UNL     1       6.312  -6.230  -0.093  0.00  0.00    +0.100 C 
ATOM      2  C   UNL     1       5.540  -6.773  -1.316  0.00  0.00    +0.121 C 
ATOM      3  N   UNL     1       6.581  -7.000  -2.345  0.00  0.00    -0.294 N 
ATOM      4  C   UNL     1       7.734  -7.547  -1.590  0.00  0.00    +0.115 C 
ATOM      5  C   UNL     1       7.751  -6.744  -0.274  0.00  0.00    -0.004 C 
ATOM      6  C   UNL     1       8.141  -7.647   0.891  0.00  0.00    -0.010 C 
ATOM      7  C   UNL     1       9.594  -8.098   0.718  0.00  0.00    -0.082 C 
ATOM      8  N   UNL     1      10.471  -6.921   0.670  0.00  0.00    +0.379 N 
ATOM      9  C   UNL     1      10.150  -6.105  -0.507  0.00  0.00    -0.082 C 
ATOM     10  C   UNL     1       8.720  -5.571  -0.386  0.00  0.00    -0.010 C 
ATOM     11  C   UNL     1       6.499  -6.764  -3.670  0.00  0.00    +0.282 C 
ATOM     12  O   UNL     1       7.449  -7.006  -4.391  0.00  0.00    -0.267 OA
ATOM     13  H   UNL     1      10.338  -6.370   1.505  0.00  0.00    -0.086 HD
ATOM     14  H   UNL     1      11.432  -7.222   0.618  0.00  0.00    -0.086 HD
ENDROOT
BRANCH  11  15
ATOM     15  C   UNL     1       5.266  -6.216  -4.241  0.00  0.00    +0.190 A 
ATOM     16  C   UNL     1       5.047  -5.934  -5.571  0.00  0.00    +0.055 A 
ATOM     17  C   UNL     1       3.745  -5.432  -5.668  0.00  0.00    +0.051 A 
ATOM     18  C   UNL     1       3.222  -5.426  -4.406  0.00  0.00    +0.139 A 
ATOM     19  O   UNL     1       4.145  -5.906  -3.556  0.00  0.00    -0.450 OA
BRANCH  18  20
ATOM     20  C   UNL     1       1.866  -4.974  -4.039  0.00  0.00    +0.052 A 
ATOM     21  C   UNL     1       1.394  -3.737  -4.484  0.00  0.00    +0.014 A 
ATOM     22  C   UNL     1       0.126  -3.321  -4.137  0.00  0.00    +0.001 A 
ATOM     23  C   UNL     1      -0.680  -4.125  -3.350  0.00  0.00    +0.003 A 
ATOM     24  C   UNL     1      -0.222  -5.351  -2.904  0.00  0.00    +0.039 A 
ATOM     25  C   UNL     1       1.045  -5.785  -3.249  0.00  0.00    +0.134 A 
ATOM     26  F   UNL     1       1.490  -6.985  -2.818  0.00  0.00    -0.205 F 
ENDBRANCH  18  20
ENDBRANCH  11  15
BRANCH   1  28
ATOM     27  N   UNL     1       6.369  -4.055   1.083  0.00  0.00    -0.314 N 
ATOM     28  C   UNL     1       6.290  -4.724  -0.085  0.00  0.00    +0.218 C 
ATOM     29  O   UNL     1       6.201  -4.113  -1.128  0.00  0.00    -0.275 OA
ATOM     30  H   UNL     1       6.440  -4.543   1.918  0.00  0.00    +0.149 HD
BRANCH  27  31
ATOM     31  C   UNL     1       6.347  -2.590   1.091  0.00  0.00    +0.123 C 
BRANCH  31  32
ATOM     32  C   UNL     1       6.449  -2.086   2.532  0.00  0.00    +0.120 C 
BRANCH  32  33
ATOM     33  N   UNL     1       6.428  -0.622   2.540  0.00  0.00    -0.342 N 
ATOM     34  H   UNL     1       6.356  -0.133   1.705  0.00  0.00    +0.146 HD
BRANCH  33  38
ATOM     35  C   UNL     1       6.670   1.444   6.147  0.00  0.00    +0.000 A 
ATOM     36  C   UNL     1       6.569   2.143   4.958  0.00  0.00    +0.002 A 
ATOM     37  C   UNL     1       6.489   1.460   3.759  0.00  0.00    +0.023 A 
ATOM     38  C   UNL     1       6.509   0.071   3.750  0.00  0.00    +0.027 A 
ATOM     39  C   UNL     1       6.611  -0.627   4.947  0.00  0.00    +0.023 A 
ATOM     40  C   UNL     1       6.691   0.062   6.141  0.00  0.00    +0.002 A 
ENDBRANCH  33  38
ENDBRANCH  32  33
ENDBRANCH  31  32
ENDBRANCH  27  31
ENDBRANCH   1  28
TORSDOF 7
