REMARK  Name = ZINC19290372
REMARK  6 active torsions:
REMARK  status: ('A' for Active; 'I' for Inactive)
REMARK    1  A    between atoms: C_1  and  N_2
REMARK    2  A    between atoms: C_4  and  C_11
REMARK    3  A    between atoms: C_11  and  C_13
REMARK    4  A    between atoms: C_11  and  O_35
REMARK    5  A    between atoms: C_13  and  N_14
REMARK    6  A    between atoms: C_21  and  O_34
REMARK                            x       y       z     vdW  Elec       q    Type
REMARK                         _______ _______ _______ _____ _____    ______ ____
ROOT
ATOM      1  N   UNL     1      -5.979   1.931   2.277  0.00  0.00    +0.382 N 
ATOM      2  C   UNL     1      -4.801   2.716   2.661  0.00  0.00    -0.075 C 
ATOM      3  C   UNL     1      -4.813   4.055   1.918  0.00  0.00    +0.029 C 
ATOM      4  C   UNL     1      -4.812   3.796   0.411  0.00  0.00    +0.110 C 
ATOM      5  C   UNL     1      -6.020   2.931   0.041  0.00  0.00    +0.029 C 
ATOM      6  C   UNL     1      -5.971   1.627   0.841  0.00  0.00    -0.075 C 
ATOM      7  C   UNL     1      -4.890   5.129  -0.340  0.00  0.00    +0.084 C 
ATOM      8  C   UNL     1      -3.719   6.004   0.112  0.00  0.00    +0.152 C 
ATOM      9  C   UNL     1      -2.438   5.206   0.073  0.00  0.00    +0.023 A 
ATOM     10  C   UNL     1      -1.226   5.903   0.069  0.00  0.00    +0.010 A 
ATOM     11  C   UNL     1      -0.033   5.253   0.043  0.00  0.00    +0.009 A 
ATOM     12  C   UNL     1      -0.006   3.848   0.028  0.00  0.00    -0.014 A 
ATOM     13  C   UNL     1       1.207   3.140   0.009  0.00  0.00    +0.008 A 
ATOM     14  C   UNL     1       1.191   1.779   0.000  0.00  0.00    +0.001 A 
ATOM     15  C   UNL     1      -0.013   1.076   0.008  0.00  0.00    +0.001 A 
ATOM     16  C   UNL     1      -1.206   1.730   0.017  0.00  0.00    +0.012 A 
ATOM     17  C   UNL     1      -1.228   3.135   0.032  0.00  0.00    +0.024 A 
ATOM     18  C   UNL     1      -2.452   3.843   0.047  0.00  0.00    +0.135 A 
ATOM     19  O   UNL     1      -3.608   3.131   0.033  0.00  0.00    -0.485 OA
ATOM     20  H   UNL     1      -6.871   2.540   2.486  0.00  0.00    -0.082 HD
ENDROOT
BRANCH   8  21
ATOM     21  O   UNL     1      -3.603   7.130  -0.760  0.00  0.00    -0.387 OA
ATOM     22  H   UNL     1      -2.812   7.876  -0.593  0.00  0.00    +0.210 HD
ENDBRANCH   8  21
BRANCH   1  23
ATOM     23  C   UNL     1      -6.074   0.701   3.075  0.00  0.00    -0.042 C 
BRANCH  23  24
ATOM     24  C   UNL     1      -7.431   0.037   2.829  0.00  0.00    +0.130 C 
BRANCH  24  28
ATOM     25  C   UNL     1      -8.492  -3.146   6.572  0.00  0.00    +0.149 C 
ATOM     26  N   UNL     1      -7.989  -2.644   5.291  0.00  0.00    -0.349 N 
ATOM     27  C   UNL     1      -8.088  -1.349   4.861  0.00  0.00    +0.092 A 
ATOM     28  C   UNL     1      -7.528  -1.225   3.647  0.00  0.00    +0.004 A 
ATOM     29  C   UNL     1      -7.035  -2.551   3.266  0.00  0.00    +0.005 A 
ATOM     30  C   UNL     1      -7.347  -3.405   4.340  0.00  0.00    +0.049 A 
ATOM     31  C   UNL     1      -6.994  -4.748   4.267  0.00  0.00    +0.026 A 
ATOM     32  C   UNL     1      -6.340  -5.224   3.152  0.00  0.00    +0.002 A 
ATOM     33  C   UNL     1      -6.029  -4.377   2.098  0.00  0.00    +0.001 A 
ATOM     34  C   UNL     1      -6.368  -3.053   2.148  0.00  0.00    +0.010 A 
ENDBRANCH  24  28
BRANCH  24  35
ATOM     35  O   UNL     1      -8.476   0.933   3.211  0.00  0.00    -0.389 OA
ATOM     36  H   UNL     1      -8.567   1.913   2.719  0.00  0.00    +0.210 HD
ENDBRANCH  24  35
ENDBRANCH  23  24
ENDBRANCH   1  23
TORSDOF 5
