REMARK  Name = ZINC17590103
REMARK  8 active torsions:
REMARK  status: ('A' for Active; 'I' for Inactive)
REMARK    1  A    between atoms: C_1  and  N_2
REMARK    2  A    between atoms: C_6  and  C_7
REMARK    3  A    between atoms: C_7  and  C_9
REMARK    4  A    between atoms: C_7  and  N_15
REMARK    5  A    between atoms: N_15  and  C_16
REMARK    6  A    between atoms: C_19  and  C_25
REMARK    7  A    between atoms: C_21  and  N_22
REMARK    8  A    between atoms: C_25  and  C_27
REMARK                            x       y       z     vdW  Elec       q    Type
REMARK                         _______ _______ _______ _____ _____    ______ ____
ROOT
ATOM      1  C   UNL     1      -2.004  -0.537   3.539  0.00  0.00    +0.059 A 
ATOM      2  C   UNL     1      -2.864   0.267   2.795  0.00  0.00    +0.026 A 
ATOM      3  C   UNL     1      -4.207   0.015   2.793  0.00  0.00    +0.013 A 
ATOM      4  C   UNL     1      -4.717  -1.054   3.538  0.00  0.00    +0.025 A 
ATOM      5  C   UNL     1      -3.850  -1.860   4.284  0.00  0.00    +0.046 A 
ATOM      6  C   UNL     1      -2.508  -1.605   4.277  0.00  0.00    +0.148 A 
ENDROOT
BRANCH   6   7
ATOM      7  N   UNL     1      -1.589  -2.460   5.061  0.00  0.00    +0.058 N 
ATOM      8  O   UNL     1      -0.503  -2.749   4.614  0.00  0.00    -0.126 OA
ATOM      9  O   UNL     1      -1.923  -2.870   6.148  0.00  0.00    -0.126 OA
ENDBRANCH   6   7
BRANCH   1  10
ATOM     10  N   UNL     1      -0.639  -0.277   3.539  0.00  0.00    -0.329 N 
ATOM     11  H   UNL     1      -0.049  -0.781   4.120  0.00  0.00    +0.147 HD
BRANCH  10  12
ATOM     12  C   UNL     1      -0.090   0.761   2.662  0.00  0.00    +0.165 C 
BRANCH  12  18
ATOM     13  C   UNL     1      -0.411   2.219  -0.053  0.00  0.00    +0.150 C 
ATOM     14  N   UNL     1       0.022   0.830   0.122  0.00  0.00    -0.337 N 
ATOM     15  C   UNL     1       0.360  -0.047  -0.873  0.00  0.00    +0.104 A 
ATOM     16  C   UNL     1       0.695  -1.206  -0.273  0.00  0.00    +0.102 A 
ATOM     17  N   UNL     1       0.566  -1.040   1.051  0.00  0.00    -0.348 N 
ATOM     18  C   UNL     1       0.168   0.178   1.296  0.00  0.00    +0.112 A 
ATOM     19  H   UNL     1       0.744  -1.718   1.722  0.00  0.00    +0.167 HD
ENDBRANCH  12  18
BRANCH  12  20
ATOM     20  C   UNL     1       1.202   1.277   3.240  0.00  0.00    -0.020 A 
ATOM     21  C   UNL     1       2.100   0.398   3.817  0.00  0.00    +0.006 A 
ATOM     22  C   UNL     1       3.286   0.872   4.347  0.00  0.00    +0.000 A 
ATOM     23  C   UNL     1       3.573   2.223   4.301  0.00  0.00    +0.000 A 
ATOM     24  C   UNL     1       2.675   3.101   3.724  0.00  0.00    +0.000 A 
ATOM     25  C   UNL     1       1.491   2.627   3.190  0.00  0.00    +0.006 A 
ENDBRANCH  12  20
ENDBRANCH  10  12
ENDBRANCH   1  10
BRANCH   4  26
ATOM     26  C   UNL     1      -6.165  -1.330   3.538  0.00  0.00    +0.193 C 
ATOM     27  O   UNL     1      -6.856  -0.953   2.611  0.00  0.00    -0.287 OA
BRANCH  26  28
ATOM     28  C   UNL     1      -6.777  -2.064   4.665  0.00  0.00    +0.022 A 
ATOM     29  C   UNL     1      -6.132  -2.114   5.903  0.00  0.00    +0.012 A 
ATOM     30  C   UNL     1      -6.710  -2.800   6.951  0.00  0.00    +0.001 A 
ATOM     31  C   UNL     1      -7.925  -3.438   6.778  0.00  0.00    +0.000 A 
ATOM     32  C   UNL     1      -8.569  -3.393   5.554  0.00  0.00    +0.001 A 
ATOM     33  C   UNL     1      -8.006  -2.706   4.499  0.00  0.00    +0.012 A 
ENDBRANCH  26  28
ENDBRANCH   4  26
TORSDOF 7
