REMARK  Name = ZINC13308992
REMARK  12 active torsions:
REMARK  status: ('A' for Active; 'I' for Inactive)
REMARK    1  A    between atoms: C_1  and  C_2
REMARK    2  A    between atoms: C_2  and  C_3
REMARK    3  A    between atoms: C_2  and  C_4
REMARK    4  A    between atoms: C_9  and  N_10
REMARK    5  A    between atoms: C_11  and  C_25
REMARK    6  A    between atoms: C_14  and  S_15
REMARK    7  A    between atoms: S_15  and  C_16
REMARK    8  A    between atoms: C_16  and  C_17
REMARK    9  A    between atoms: C_17  and  C_19
REMARK   10  A    between atoms: C_19  and  C_21
REMARK   11  A    between atoms: C_19  and  C_23
REMARK   12  A    between atoms: C_23  and  C_24
REMARK                            x       y       z     vdW  Elec       q    Type
REMARK                         _______ _______ _______ _____ _____    ______ ____
ROOT
ATOM      1  N   UNL     1       2.457   2.781  -2.385  0.00  0.00    -0.270 N 
ATOM      2  C   UNL     1       3.737   2.421  -2.747  0.00  0.00    +0.169 A 
ATOM      3  N   UNL     1       3.807   1.113  -2.664  0.00  0.00    -0.128 NA
ATOM      4  N   UNL     1       2.678   0.636  -2.277  0.00  0.00    -0.122 NA
ATOM      5  C   UNL     1       1.816   1.610  -2.088  0.00  0.00    +0.197 A 
ENDROOT
BRANCH   2   6
ATOM      6  C   UNL     1       4.824   3.335  -3.155  0.00  0.00    +0.020 A 
ATOM      7  C   UNL     1       4.718   4.705  -2.910  0.00  0.00    +0.013 A 
ATOM      8  C   UNL     1       5.738   5.552  -3.289  0.00  0.00    +0.021 A 
ATOM      9  C   UNL     1       6.862   5.047  -3.922  0.00  0.00    +0.041 A 
ATOM     10  C   UNL     1       6.971   3.690  -4.173  0.00  0.00    +0.021 A 
ATOM     11  C   UNL     1       5.960   2.832  -3.794  0.00  0.00    +0.013 A 
ATOM     12 CL   UNL     1       8.139   6.120  -4.404  0.00  0.00    -0.084 Cl
ENDBRANCH   2   6
BRANCH   1  18
ATOM     13  C   UNL     1       1.312   4.625  -3.449  0.00  0.00    -0.021 A 
ATOM     14  C   UNL     1       0.784   5.900  -3.391  0.00  0.00    +0.006 A 
ATOM     15  C   UNL     1       0.874   6.634  -2.223  0.00  0.00    +0.000 A 
ATOM     16  C   UNL     1       1.488   6.093  -1.108  0.00  0.00    +0.002 A 
ATOM     17  C   UNL     1       2.013   4.817  -1.159  0.00  0.00    +0.026 A 
ATOM     18  C   UNL     1       1.924   4.077  -2.330  0.00  0.00    +0.054 A 
BRANCH  13  20
ATOM     19  C   UNL     1      -0.252   3.640  -5.102  0.00  0.00    +0.012 C 
ATOM     20  C   UNL     1       1.218   3.827  -4.724  0.00  0.00    +0.015 C 
ATOM     21  C   UNL     1       1.942   4.573  -5.847  0.00  0.00    +0.012 C 
ENDBRANCH  13  20
ENDBRANCH   1  18
BRANCH   5  22
ATOM     22  S   UNL     1       0.144   1.438  -1.559  0.00  0.00    -0.078 S 
BRANCH  22  23
ATOM     23  C   UNL     1       0.052  -0.361  -1.387  0.00  0.00    +0.153 C 
BRANCH  23  24
ATOM     24  C   UNL     1      -1.330  -0.752  -0.930  0.00  0.00    +0.166 C 
ATOM     25  O   UNL     1      -2.166   0.098  -0.739  0.00  0.00    -0.295 OA
BRANCH  24  26
ATOM     26  C   UNL     1      -1.668  -2.204  -0.710  0.00  0.00    +0.199 C 
BRANCH  26  27
ATOM     27  C   UNL     1      -2.801  -2.312   0.279  0.00  0.00    +0.008 C 
ATOM     28  C   UNL     1      -2.603  -1.863   1.704  0.00  0.00    +0.059 C 
ATOM     29  H   UNL     1      -4.720  -2.894   0.470  0.00  0.00    +0.155 HD
ATOM     30  N   UNL     1      -3.924  -2.800  -0.160  0.00  0.00    -0.404 N 
ATOM     31  H   UNL     1      -4.008  -3.092  -1.141  0.00  0.00    +0.155 HD
ENDBRANCH  26  27
BRANCH  26  32
ATOM     32  C   UNL     1      -2.072  -2.813  -1.988  0.00  0.00    +0.079 C 
ATOM     33  N   UNL     1      -2.384  -3.282  -2.974  0.00  0.00    -0.195 NA
ENDBRANCH  26  32
ENDBRANCH  24  26
ENDBRANCH  23  24
ENDBRANCH  22  23
ENDBRANCH   5  22
TORSDOF 9
