REMARK  Name = ZINC52594531
REMARK  6 active torsions:
REMARK  status: ('A' for Active; 'I' for Inactive)
REMARK    1  A    between atoms: C_15  and  C_17
REMARK    2  A    between atoms: C_17  and  C_19
REMARK    3  A    between atoms: C_17  and  N_29
REMARK    4  A    between atoms: C_19  and  C_20
REMARK    5  A    between atoms: C_30  and  C_32
REMARK    6  A    between atoms: C_32  and  N_38
REMARK                            x       y       z     vdW  Elec       q    Type
REMARK                         _______ _______ _______ _____ _____    ______ ____
ROOT
ATOM      1  C   UNL     1       8.026  -1.661   1.777  0.00  0.00    +0.163 C 
ENDROOT
BRANCH   1  16
ATOM      2  C   UNL     1       0.187   1.271  -1.242  0.00  0.00    +0.000 A 
ATOM      3  C   UNL     1       1.390   1.952  -1.263  0.00  0.00    +0.000 A 
ATOM      4  C   UNL     1       2.574   1.266  -1.079  0.00  0.00    +0.004 A 
ATOM      5  C   UNL     1       2.562  -0.104  -0.874  0.00  0.00    -0.038 A 
ATOM      6  C   UNL     1       1.358  -0.785  -0.851  0.00  0.00    -0.044 A 
ATOM      7  C   UNL     1       0.172  -0.095  -1.036  0.00  0.00    +0.004 A 
ATOM      8  C   UNL     1       1.608  -2.258  -0.607  0.00  0.00    +0.036 C 
ATOM      9  C   UNL     1       3.106  -2.471  -0.918  0.00  0.00    +0.016 C 
ATOM     10  C   UNL     1       3.698  -1.075  -0.654  0.00  0.00    -0.001 C 
ATOM     11  C   UNL     1       4.830  -0.795  -1.638  0.00  0.00    +0.030 C 
ATOM     12  C   UNL     1       5.943  -1.830  -1.440  0.00  0.00    +0.108 C 
ATOM     13  N   UNL     1       6.342  -1.831  -0.026  0.00  0.00    -0.300 N 
ATOM     14  C   UNL     1       5.309  -2.023   1.000  0.00  0.00    +0.108 C 
ATOM     15  C   UNL     1       4.201  -0.986   0.784  0.00  0.00    +0.030 C 
ATOM     16  C   UNL     1       7.632  -1.658   0.323  0.00  0.00    +0.236 C 
ATOM     17  O   UNL     1       8.476  -1.501  -0.534  0.00  0.00    -0.274 OA
ENDBRANCH   1  16
BRANCH   1  18
ATOM     18  N   UNL     1       9.325  -1.002   1.933  0.00  0.00    -0.305 N 
ATOM     19  C   UNL     1      10.410  -1.492   1.301  0.00  0.00    +0.202 C 
ATOM     20  O   UNL     1      10.310  -2.480   0.604  0.00  0.00    -0.277 OA
ATOM     21  H   UNL     1       9.405  -0.212   2.490  0.00  0.00    +0.149 HD
BRANCH  19  22
ATOM     22  C   UNL     1      11.746  -0.814   1.461  0.00  0.00    +0.007 C 
ATOM     23  C   UNL     1      11.811   0.408   0.542  0.00  0.00    -0.004 C 
ATOM     24  C   UNL     1      11.635  -0.037  -0.911  0.00  0.00    -0.001 C 
ATOM     25  C   UNL     1      12.751  -1.015  -1.284  0.00  0.00    -0.000 C 
ATOM     26  C   UNL     1      12.686  -2.237  -0.366  0.00  0.00    -0.001 C 
ATOM     27  C   UNL     1      12.862  -1.792   1.088  0.00  0.00    -0.004 C 
BRANCH  22  28
ATOM     28  N   UNL     1      11.915  -0.388   2.856  0.00  0.00    +0.388 N 
ATOM     29  H   UNL     1      11.872  -1.194   3.462  0.00  0.00    -0.089 HD
ATOM     30  H   UNL     1      12.810   0.066   2.963  0.00  0.00    -0.089 HD
ATOM     31  H   UNL     1      11.179   0.257   3.102  0.00  0.00    -0.089 HD
ENDBRANCH  22  28
ENDBRANCH  19  22
ENDBRANCH   1  18
BRANCH   1  32
ATOM     32  C   UNL     1       8.123  -3.104   2.277  0.00  0.00    +0.065 C 
BRANCH  32  33
ATOM     33  C   UNL     1       8.397  -3.105   3.759  0.00  0.00    -0.039 C 
ATOM     34  C   UNL     1       7.486  -3.210   4.753  0.00  0.00    -0.001 A 
ATOM     35  C   UNL     1       6.024  -3.347   4.753  0.00  0.00    +0.010 A 
ATOM     36  C   UNL     1       5.373  -3.430   5.935  0.00  0.00    +0.001 A 
ATOM     37  C   UNL     1       6.057  -3.387   7.158  0.00  0.00    +0.002 A 
ATOM     38  C   UNL     1       7.399  -3.263   7.239  0.00  0.00    +0.026 A 
ATOM     39  C   UNL     1       8.184  -3.168   6.058  0.00  0.00    +0.043 A 
ATOM     40  N   UNL     1       9.477  -3.043   5.877  0.00  0.00    -0.380 N 
ATOM     41  C   UNL     1       9.745  -2.997   4.435  0.00  0.00    +0.144 C 
ATOM     42  H   UNL     1      10.145  -2.993   6.579  0.00  0.00    +0.160 HD
ENDBRANCH  32  33
ENDBRANCH   1  32
TORSDOF 6
