REMARK  Name = ZINC35621425
REMARK  12 active torsions:
REMARK  status: ('A' for Active; 'I' for Inactive)
REMARK    1  A    between atoms: C_1  and  C_2
REMARK    2  A    between atoms: N_5  and  C_8
REMARK    3  A    between atoms: C_9  and  C_19
REMARK    4  A    between atoms: N_12  and  C_15
REMARK    5  A    between atoms: C_15  and  C_16
REMARK    6  A    between atoms: C_16  and  O_17
REMARK    7  A    between atoms: O_17  and  C_18
REMARK    8  A    between atoms: C_20  and  C_29
REMARK    9  A    between atoms: N_22  and  C_25
REMARK   10  A    between atoms: C_25  and  C_26
REMARK   11  A    between atoms: C_25  and  C_27
REMARK   12  A    between atoms: C_25  and  C_28
REMARK                            x       y       z     vdW  Elec       q    Type
REMARK                         _______ _______ _______ _____ _____    ______ ____
ROOT
ATOM      1  C   UNL     1      -1.077  -3.489   1.975  0.00  0.00    +0.106 C 
ATOM      2  C   UNL     1      -0.390  -4.096   2.992  0.00  0.00    +0.078 C 
ATOM      3  C   UNL     1      -1.350  -5.000   3.662  0.00  0.00    +0.256 C 
ATOM      4  O   UNL     1      -1.108  -5.712   4.616  0.00  0.00    -0.269 OA
ATOM      5  N   UNL     1      -2.537  -4.899   3.038  0.00  0.00    -0.231 N 
ATOM      6  C   UNL     1      -2.455  -4.016   2.028  0.00  0.00    +0.268 C 
ATOM      7  O   UNL     1      -3.362  -3.705   1.282  0.00  0.00    -0.268 OA
ENDROOT
BRANCH   1  12
ATOM      8  C   UNL     1      -0.760  -0.775  -2.785  0.00  0.00    +0.007 C 
ATOM      9  C   UNL     1      -0.356  -1.116  -1.349  0.00  0.00    -0.011 C 
ATOM     10  C   UNL     1       0.074  -2.583  -1.276  0.00  0.00    +0.022 C 
ATOM     11  C   UNL     1       0.511  -2.912   0.155  0.00  0.00    +0.105 C 
ATOM     12  N   UNL     1      -0.578  -2.556   1.075  0.00  0.00    -0.325 N 
ATOM     13  C   UNL     1      -1.129  -1.195   1.024  0.00  0.00    +0.105 C 
ATOM     14  C   UNL     1      -1.547  -0.885  -0.416  0.00  0.00    +0.022 C 
ENDBRANCH   1  12
BRANCH   2  15
ATOM     15  C   UNL     1       1.027  -3.890   3.348  0.00  0.00    +0.083 A 
ATOM     16  C   UNL     1       2.179  -4.631   2.829  0.00  0.00    +0.105 A 
ATOM     17  N   UNL     1       3.251  -4.133   3.404  0.00  0.00    -0.167 NA
ATOM     18  N   UNL     1       2.873  -3.106   4.272  0.00  0.00    -0.223 N 
ATOM     19  C   UNL     1       1.533  -2.953   4.236  0.00  0.00    +0.278 A 
ATOM     20  O   UNL     1       0.811  -2.050   4.943  0.00  0.00    -0.265 OA
BRANCH  16  21
ATOM     21  C   UNL     1       2.143  -5.737   1.842  0.00  0.00    +0.003 A 
ATOM     22  C   UNL     1       1.077  -6.635   1.836  0.00  0.00    +0.010 A 
ATOM     23  C   UNL     1       1.048  -7.662   0.914  0.00  0.00    +0.001 A 
ATOM     24  C   UNL     1       2.075  -7.801  -0.003  0.00  0.00    +0.000 A 
ATOM     25  C   UNL     1       3.135  -6.912  -0.002  0.00  0.00    +0.001 A 
ATOM     26  C   UNL     1       3.172  -5.878   0.912  0.00  0.00    +0.010 A 
ENDBRANCH  16  21
BRANCH  18  27
ATOM     27  C   UNL     1       3.791  -2.312   5.092  0.00  0.00    +0.059 C 
ATOM     28  C   UNL     1       5.227  -2.781   4.849  0.00  0.00    +0.036 C 
ATOM     29  C   UNL     1       3.667  -0.835   4.713  0.00  0.00    +0.036 C 
ATOM     30  C   UNL     1       3.440  -2.490   6.570  0.00  0.00    +0.036 C 
ENDBRANCH  18  27
ENDBRANCH   2  15
BRANCH   5  31
ATOM     31  C   UNL     1      -3.745  -5.641   3.408  0.00  0.00    +0.145 C 
BRANCH  31  32
ATOM     32  C   UNL     1      -4.546  -4.832   4.431  0.00  0.00    +0.179 C 
BRANCH  32  33
ATOM     33  O   UNL     1      -5.014  -3.626   3.824  0.00  0.00    -0.381 OA
ATOM     34  C   UNL     1      -5.778  -2.794   4.698  0.00  0.00    +0.194 C 
ENDBRANCH  32  33
ENDBRANCH  31  32
ENDBRANCH   5  31
TORSDOF 7
