REMARK  Name = ZINC15947669
REMARK  8 active torsions:
REMARK  status: ('A' for Active; 'I' for Inactive)
REMARK    1  A    between atoms: C_1  and  C_2
REMARK    2  A    between atoms: C_11  and  O_32
REMARK    3  A    between atoms: C_13  and  C_16
REMARK    4  A    between atoms: C_19  and  O_24
REMARK    5  A    between atoms: C_20  and  O_22
REMARK    6  A    between atoms: O_22  and  C_23
REMARK    7  A    between atoms: O_24  and  C_25
REMARK    8  A    between atoms: C_25  and  C_26
REMARK                            x       y       z     vdW  Elec       q    Type
REMARK                         _______ _______ _______ _____ _____    ______ ____
ROOT
ATOM      1  C   UNL     1      -0.019   1.526   0.010  0.00  0.00    +0.008 C 
ATOM      2  C   UNL     1       0.002  -0.004   0.002  0.00  0.00    -0.009 C 
ATOM      3  C   UNL     1      -1.434  -0.537   0.019  0.00  0.00    +0.008 C 
ATOM      4  C   UNL     1      -1.433  -2.045  -0.237  0.00  0.00    +0.037 C 
ATOM      5  C   UNL     1      -0.467  -2.706   0.737  0.00  0.00    -0.023 A 
ATOM      6  C   UNL     1       0.483  -1.985   1.377  0.00  0.00    -0.004 A 
ATOM      7  S   UNL     1       1.344  -3.164   2.381  0.00  0.00    -0.078 S 
ATOM      8  C   UNL     1       0.503  -4.535   1.978  0.00  0.00    +0.080 A 
ATOM      9  C   UNL     1      -0.471  -4.120   1.062  0.00  0.00    +0.068 A 
ATOM     10  C   UNL     1      -1.397  -5.154   0.532  0.00  0.00    +0.220 C 
ATOM     11  N   UNL     1      -1.097  -6.406   0.750  0.00  0.00    -0.223 NA
ATOM     12  C   UNL     1       0.114  -6.860   1.422  0.00  0.00    +0.224 C 
ATOM     13  N   UNL     1       0.623  -5.850   2.368  0.00  0.00    -0.313 N 
ATOM     14  C   UNL     1       0.739  -0.515   1.249  0.00  0.00    +0.046 C 
ATOM     15  H   UNL     1       1.020  -6.098   3.217  0.00  0.00    +0.149 HD
ENDROOT
BRANCH  12  16
ATOM     16  C   UNL     1       1.174  -7.140   0.388  0.00  0.00    -0.002 A 
ATOM     17  C   UNL     1       2.510  -6.983   0.708  0.00  0.00    +0.011 A 
ATOM     18  C   UNL     1       3.485  -7.239  -0.237  0.00  0.00    +0.050 A 
ATOM     19  C   UNL     1       3.126  -7.655  -1.509  0.00  0.00    +0.162 A 
ATOM     20  C   UNL     1       1.782  -7.814  -1.831  0.00  0.00    +0.162 A 
ATOM     21  C   UNL     1       0.809  -7.560  -0.878  0.00  0.00    +0.056 A 
BRANCH  20  22
ATOM     22  O   UNL     1       1.423  -8.222  -3.078  0.00  0.00    -0.491 OA
ATOM     23  C   UNL     1       0.025  -8.364  -3.338  0.00  0.00    +0.277 C 
ENDBRANCH  20  22
BRANCH  19  24
ATOM     24  O   UNL     1       4.084  -7.907  -2.440  0.00  0.00    -0.484 OA
BRANCH  24  25
ATOM     25  C   UNL     1       5.443  -7.722  -2.038  0.00  0.00    +0.264 C 
BRANCH  25  26
ATOM     26  C   UNL     1       6.357  -8.046  -3.192  0.00  0.00    -0.010 A 
ATOM     27  C   UNL     1       6.820  -9.337  -3.365  0.00  0.00    +0.007 A 
ATOM     28  C   UNL     1       7.658  -9.635  -4.424  0.00  0.00    +0.000 A 
ATOM     29  C   UNL     1       8.032  -8.641  -5.310  0.00  0.00    +0.000 A 
ATOM     30  C   UNL     1       7.568  -7.351  -5.137  0.00  0.00    +0.000 A 
ATOM     31  C   UNL     1       6.726  -7.054  -4.081  0.00  0.00    +0.007 A 
ENDBRANCH  25  26
ENDBRANCH  24  25
ENDBRANCH  19  24
ENDBRANCH  12  16
BRANCH  10  32
ATOM     32  O   UNL     1      -2.512  -4.810  -0.154  0.00  0.00    -0.492 OA
ATOM     33  H   UNL     1      -3.039  -5.565  -0.450  0.00  0.00    +0.294 HD
ENDBRANCH  10  32
TORSDOF 6
