REMARK  Name = ZINC65181823
REMARK  11 active torsions:
REMARK  status: ('A' for Active; 'I' for Inactive)
REMARK    1  A    between atoms: C_1  and  C_2
REMARK    2  A    between atoms: C_2  and  C_3
REMARK    3  A    between atoms: C_2  and  C_4
REMARK    4  A    between atoms: C_4  and  N_5
REMARK    5  A    between atoms: N_8  and  N_9
REMARK    6  A    between atoms: C_10  and  C_12
REMARK    7  A    between atoms: C_15  and  S_18
REMARK    8  A    between atoms: S_18  and  N_21
REMARK    9  A    between atoms: N_21  and  C_22
REMARK   10  A    between atoms: C_22  and  C_23
REMARK   11  A    between atoms: C_22  and  C_24
REMARK                            x       y       z     vdW  Elec       q    Type
REMARK                         _______ _______ _______ _____ _____    ______ ____
ROOT
ATOM      1  N   UNL     1      -1.339  -4.704  -0.356  0.00  0.00    -0.229 N 
ATOM      2  C   UNL     1      -1.323  -6.046  -0.474  0.00  0.00    +0.260 C 
ATOM      3  O   UNL     1      -2.368  -6.667  -0.487  0.00  0.00    -0.269 OA
ATOM      4  H   UNL     1      -0.505  -4.208  -0.346  0.00  0.00    +0.173 HD
ENDROOT
BRANCH   1   8
ATOM      5  N   UNL     1      -1.416  -1.993  -0.116  0.00  0.00    -0.298 N 
ATOM      6  C   UNL     1      -2.575  -2.682  -0.130  0.00  0.00    +0.316 C 
ATOM      7  O   UNL     1      -3.634  -2.092  -0.036  0.00  0.00    -0.251 OA
ATOM      8  N   UNL     1      -2.559  -4.024  -0.248  0.00  0.00    -0.218 N 
ATOM      9  H   UNL     1      -0.572  -2.463  -0.190  0.00  0.00    +0.150 HD
ATOM     10  H   UNL     1      -3.393  -4.520  -0.258  0.00  0.00    +0.174 HD
BRANCH   5  11
ATOM     11  C   UNL     1      -1.433  -0.534   0.013  0.00  0.00    +0.108 C 
BRANCH  11  13
ATOM     12  C   UNL     1      -0.019   1.526   0.010  0.00  0.00    +0.009 C 
ATOM     13  C   UNL     1       0.002  -0.004   0.002  0.00  0.00    -0.000 C 
ATOM     14  C   UNL     1       0.742  -0.511   1.242  0.00  0.00    +0.009 C 
ENDBRANCH  11  13
ENDBRANCH   5  11
ENDBRANCH   1   8
BRANCH   2  15
ATOM     15  C   UNL     1      -0.036  -6.763  -0.588  0.00  0.00    +0.038 A 
ATOM     16  C   UNL     1       1.166  -6.054  -0.568  0.00  0.00    +0.015 A 
ATOM     17  C   UNL     1       2.364  -6.729  -0.674  0.00  0.00    +0.029 A 
ATOM     18  C   UNL     1       2.377  -8.107  -0.801  0.00  0.00    +0.105 A 
ATOM     19  C   UNL     1       1.189  -8.816  -0.822  0.00  0.00    +0.029 A 
ATOM     20  C   UNL     1      -0.016  -8.154  -0.711  0.00  0.00    +0.015 A 
BRANCH  18  21
ATOM     21  S   UNL     1       3.911  -8.961  -0.936  0.00  0.00    +0.059 S 
ATOM     22  O   UNL     1       3.635 -10.191  -1.592  0.00  0.00    -0.153 OA
ATOM     23  O   UNL     1       4.855  -8.025  -1.439  0.00  0.00    -0.153 OA
BRANCH  21  24
ATOM     24  N   UNL     1       4.397  -9.343   0.601  0.00  0.00    -0.187 NA
ATOM     25  H   UNL     1       5.203  -8.948   0.967  0.00  0.00    +0.148 HD
BRANCH  24  26
ATOM     26  C   UNL     1       3.608 -10.278   1.407  0.00  0.00    +0.070 C 
ATOM     27  C   UNL     1       4.545 -11.114   2.281  0.00  0.00    +0.025 C 
ATOM     28  C   UNL     1       2.643  -9.493   2.298  0.00  0.00    +0.025 C 
ENDBRANCH  24  26
ENDBRANCH  21  24
ENDBRANCH  18  21
ENDBRANCH   2  15
TORSDOF 7
