REMARK  Name = ZINC08867238
REMARK  10 active torsions:
REMARK  status: ('A' for Active; 'I' for Inactive)
REMARK    1  A    between atoms: C_1  and  C_2
REMARK    2  A    between atoms: C_6  and  C_39
REMARK    3  A    between atoms: C_7  and  N_8
REMARK    4  A    between atoms: C_9  and  C_11
REMARK    5  A    between atoms: C_11  and  N_17
REMARK    6  A    between atoms: N_17  and  C_18
REMARK    7  A    between atoms: C_18  and  C_19
REMARK    8  A    between atoms: C_19  and  C_20
REMARK    9  A    between atoms: C_21  and  C_30
REMARK   10  A    between atoms: C_31  and  C_33
REMARK                            x       y       z     vdW  Elec       q    Type
REMARK                         _______ _______ _______ _____ _____    ______ ____
ROOT
ATOM      1  N   UNL     1      -0.720   1.249   3.132  0.00  0.00    -0.283 N 
ATOM      2  C   UNL     1      -1.335   1.086   1.944  0.00  0.00    +0.247 C 
ATOM      3  O   UNL     1      -2.529   0.863   1.903  0.00  0.00    -0.270 OA
ENDROOT
BRANCH   1   4
ATOM      4  C   UNL     1       0.695   1.625   3.179  0.00  0.00    +0.114 C 
ATOM      5  C   UNL     1       0.878   3.005   2.544  0.00  0.00    +0.035 C 
ATOM      6  C   UNL     1       0.051   4.035   3.316  0.00  0.00    +0.003 C 
ATOM      7  C   UNL     1       0.520   4.077   4.772  0.00  0.00    +0.000 C 
ATOM      8  C   UNL     1       0.337   2.697   5.407  0.00  0.00    +0.003 C 
ATOM      9  C   UNL     1       1.164   1.667   4.635  0.00  0.00    +0.035 C 
BRANCH   4  11
ATOM     10  N   UNL     1       1.077  -0.662   2.317  0.00  0.00    -0.283 N 
ATOM     11  C   UNL     1       1.510   0.610   2.419  0.00  0.00    +0.241 C 
ATOM     12  O   UNL     1       2.555   0.939   1.898  0.00  0.00    -0.273 OA
ATOM     13  H   UNL     1       0.164  -0.884   2.558  0.00  0.00    +0.155 HD
BRANCH  10  20
ATOM     14  C   UNL     1       1.518  -2.919   3.993  0.00  0.00    +0.045 C 
ATOM     15  C   UNL     1       2.188  -2.781   2.651  0.00  0.00    -0.029 A 
ATOM     16  C   UNL     1       3.041  -3.768   2.198  0.00  0.00    +0.005 A 
ATOM     17  C   UNL     1       3.660  -3.640   0.969  0.00  0.00    +0.001 A 
ATOM     18  C   UNL     1       3.425  -2.525   0.186  0.00  0.00    +0.005 A 
ATOM     19  C   UNL     1       2.568  -1.536   0.630  0.00  0.00    -0.029 A 
ATOM     20  C   UNL     1       1.945  -1.662   1.864  0.00  0.00    +0.039 A 
ATOM     21  C   UNL     1       2.311  -0.321  -0.224  0.00  0.00    +0.045 C 
ENDBRANCH  10  20
ENDBRANCH   4  11
ENDBRANCH   1   4
BRANCH   2  22
ATOM     22  C   UNL     1      -0.556   1.178   0.690  0.00  0.00    +0.037 A 
ATOM     23  C   UNL     1       0.761   1.638   0.715  0.00  0.00    +0.013 A 
ATOM     24  C   UNL     1       1.483   1.717  -0.458  0.00  0.00    +0.001 A 
ATOM     25  C   UNL     1       0.901   1.351  -1.658  0.00  0.00    +0.000 A 
ATOM     26  C   UNL     1      -0.406   0.899  -1.691  0.00  0.00    +0.001 A 
ATOM     27  C   UNL     1      -1.138   0.810  -0.524  0.00  0.00    +0.013 A 
ENDBRANCH   2  22
BRANCH   1  28
ATOM     28  C   UNL     1      -1.467   1.051   4.377  0.00  0.00    +0.114 C 
BRANCH  28  29
ATOM     29  C   UNL     1      -2.200  -0.291   4.323  0.00  0.00    +0.056 C 
BRANCH  29  30
ATOM     30  C   UNL     1      -3.065  -0.440   5.548  0.00  0.00    -0.018 A 
ATOM     31  C   UNL     1      -2.679  -0.907   6.746  0.00  0.00    +0.017 A 
ATOM     32  N   UNL     1      -3.736  -0.893   7.615  0.00  0.00    -0.358 N 
ATOM     33  H   UNL     1      -3.701  -1.182   8.540  0.00  0.00    +0.166 HD
ATOM     34  C   UNL     1      -4.859  -0.413   6.979  0.00  0.00    +0.047 A 
ATOM     35  C   UNL     1      -4.488  -0.108   5.656  0.00  0.00    +0.003 A 
ATOM     36  C   UNL     1      -5.435   0.404   4.768  0.00  0.00    +0.010 A 
ATOM     37  C   UNL     1      -6.720   0.605   5.187  0.00  0.00    +0.001 A 
ATOM     38  C   UNL     1      -7.091   0.306   6.491  0.00  0.00    +0.002 A 
ATOM     39  C   UNL     1      -6.172  -0.200   7.384  0.00  0.00    +0.026 A 
ATOM     40  C   UNL     1      -1.287  -1.374   7.085  0.00  0.00    +0.063 C 
ENDBRANCH  29  30
ENDBRANCH  28  29
ENDBRANCH   1  28
TORSDOF 7
