REMARK  Name = ZINC13785152
REMARK  10 active torsions:
REMARK  status: ('A' for Active; 'I' for Inactive)
REMARK    1  A    between atoms: C_1  and  C_2
REMARK    2  A    between atoms: C_2  and  C_36
REMARK    3  A    between atoms: C_3  and  C_32
REMARK    4  A    between atoms: C_5  and  C_7
REMARK    5  A    between atoms: N_9  and  N_10
REMARK    6  A    between atoms: C_11  and  C_12
REMARK    7  A    between atoms: C_15  and  O_30
REMARK    8  A    between atoms: C_16  and  C_18
REMARK    9  A    between atoms: C_18  and  N_19
REMARK   10  A    between atoms: O_30  and  C_31
REMARK                            x       y       z     vdW  Elec       q    Type
REMARK                         _______ _______ _______ _____ _____    ______ ____
ROOT
ATOM      1  C   UNL     1      -0.889   3.116   3.080  0.00  0.00    -0.005 A 
ATOM      2  C   UNL     1      -2.033   2.454   3.532  0.00  0.00    +0.013 A 
ATOM      3  C   UNL     1      -2.510   1.360   2.842  0.00  0.00    +0.046 A 
ATOM      4  C   UNL     1      -1.859   0.919   1.698  0.00  0.00    +0.125 A 
ATOM      5  C   UNL     1      -0.718   1.572   1.248  0.00  0.00    +0.013 A 
ATOM      6  C   UNL     1      -0.234   2.667   1.931  0.00  0.00    +0.018 A 
ENDROOT
BRANCH   1   8
ATOM      7  N   UNL     1      -0.985   4.704   4.881  0.00  0.00    -0.188 NA
ATOM      8  C   UNL     1      -0.374   4.287   3.813  0.00  0.00    +0.138 C 
BRANCH   7  11
ATOM      9  C   UNL     1      -1.129   6.249   6.686  0.00  0.00    +0.236 C 
ATOM     10  O   UNL     1      -2.123   5.674   7.080  0.00  0.00    -0.274 OA
ATOM     11  N   UNL     1      -0.496   5.816   5.578  0.00  0.00    -0.207 N 
ATOM     12  H   UNL     1       0.298   6.276   5.263  0.00  0.00    +0.177 HD
BRANCH   9  16
ATOM     13  C   UNL     1      -1.437   9.387   8.978  0.00  0.00    +0.012 C 
ATOM     14  C   UNL     1      -1.367   7.887   8.686  0.00  0.00    -0.016 C 
ATOM     15  C   UNL     1      -0.006   7.203   8.823  0.00  0.00    +0.033 C 
ATOM     16  C   UNL     1      -0.604   7.446   7.436  0.00  0.00    +0.090 C 
ATOM     17  C   UNL     1      -2.606   7.080   9.079  0.00  0.00    +0.012 C 
BRANCH  15  18
ATOM     18  C   UNL     1       0.013   5.786   9.335  0.00  0.00    +0.010 C 
ATOM     19  C   UNL     1       0.663   5.495  10.438  0.00  0.00    +0.103 C 
ATOM     20 CL   UNL     1       1.501   6.743  11.307  0.00  0.00    -0.071 Cl
ATOM     21 CL   UNL     1       0.685   3.862  11.028  0.00  0.00    -0.071 Cl
ENDBRANCH  15  18
ENDBRANCH   9  16
ENDBRANCH   7  11
ENDBRANCH   1   8
BRANCH   4  22
ATOM     22  O   UNL     1      -2.336  -0.156   1.018  0.00  0.00    -0.495 OA
ATOM     23  C   UNL     1      -3.513  -0.780   1.536  0.00  0.00    +0.277 C 
ENDBRANCH   4  22
BRANCH   5  24
ATOM     24  C   UNL     1      -0.013   1.086   0.008  0.00  0.00    +0.155 C 
BRANCH  24  25
ATOM     25  N   UNL     1      -0.721   1.571  -1.179  0.00  0.00    -0.230 N 
ATOM     26  C   UNL     1      -1.714   0.906  -1.798  0.00  0.00    +0.254 C 
ATOM     27  O   UNL     1      -2.158  -0.174  -1.466  0.00  0.00    -0.270 OA
ATOM     28  C   UNL     1      -2.175   1.713  -2.947  0.00  0.00    +0.049 A 
ATOM     29  C   UNL     1      -3.146   1.542  -3.921  0.00  0.00    +0.014 A 
ATOM     30  C   UNL     1      -3.326   2.517  -4.890  0.00  0.00    +0.001 A 
ATOM     31  C   UNL     1      -2.544   3.657  -4.891  0.00  0.00    +0.001 A 
ATOM     32  C   UNL     1      -1.569   3.841  -3.923  0.00  0.00    +0.014 A 
ATOM     33  C   UNL     1      -1.377   2.875  -2.949  0.00  0.00    +0.049 A 
ATOM     34  C   UNL     1      -0.461   2.737  -1.797  0.00  0.00    +0.254 C 
ATOM     35  O   UNL     1       0.384   3.543  -1.464  0.00  0.00    -0.270 OA
ENDBRANCH  24  25
ENDBRANCH   5  24
TORSDOF 7
