REMARK  Name = ZINC52252552
REMARK  10 active torsions:
REMARK  status: ('A' for Active; 'I' for Inactive)
REMARK    1  A    between atoms: C_1  and  C_2
REMARK    2  A    between atoms: C_2  and  C_3
REMARK    3  A    between atoms: C_2  and  C_4
REMARK    4  A    between atoms: C_4  and  C_6
REMARK    5  A    between atoms: C_4  and  C_10
REMARK    6  A    between atoms: C_6  and  O_8
REMARK    7  A    between atoms: O_8  and  C_9
REMARK    8  A    between atoms: C_10  and  C_11
REMARK    9  A    between atoms: C_10  and  C_12
REMARK   10  A    between atoms: C_10  and  O_22
REMARK                            x       y       z     vdW  Elec       q    Type
REMARK                         _______ _______ _______ _____ _____    ______ ____
ROOT
ATOM      1  C   UNL     1       1.610  -1.663   1.337  0.00  0.00    +0.133 C 
ATOM      2  C   UNL     1       2.601  -1.142   2.380  0.00  0.00    +0.050 C 
ENDROOT
BRANCH   1   3
ATOM      3  C   UNL     1       2.356  -2.058   0.088  0.00  0.00    +0.138 A 
ATOM      4  C   UNL     1       2.494  -3.314  -0.358  0.00  0.00    +0.056 A 
ATOM      5  C   UNL     1       3.285  -3.226  -1.591  0.00  0.00    +0.022 A 
ATOM      6  C   UNL     1       3.761  -4.158  -2.512  0.00  0.00    +0.027 A 
ATOM      7  C   UNL     1       4.497  -3.729  -3.595  0.00  0.00    +0.019 A 
ATOM      8  C   UNL     1       4.765  -2.378  -3.769  0.00  0.00    +0.019 A 
ATOM      9  C   UNL     1       4.300  -1.447  -2.865  0.00  0.00    +0.048 A 
ATOM     10  C   UNL     1       3.555  -1.858  -1.767  0.00  0.00    +0.135 A 
ATOM     11  O   UNL     1       2.976  -1.201  -0.742  0.00  0.00    -0.457 OA
ATOM     12 BR   UNL     1       5.147  -4.986  -4.850  0.00  0.00    -0.050 Br
ENDBRANCH   1   3
BRANCH   1  13
ATOM     13  O   UNL     1       0.922  -2.801   1.861  0.00  0.00    -0.380 OA
ATOM     14  H   UNL     1       0.276  -3.185   1.252  0.00  0.00    +0.211 HD
ENDBRANCH   1  13
BRANCH   1  15
ATOM     15  C   UNL     1       0.599  -0.566   1.001  0.00  0.00    +0.139 C 
BRANCH  15  17
ATOM     16  C   UNL     1      -1.535  -0.070  -0.201  0.00  0.00    +0.008 C 
ATOM     17  C   UNL     1      -0.426  -1.105   0.001  0.00  0.00    -0.000 C 
ATOM     18  C   UNL     1       0.263  -1.383  -1.336  0.00  0.00    +0.008 C 
ENDBRANCH  15  17
BRANCH  15  19
ATOM     19  C   UNL     1      -0.107  -0.131   2.259  0.00  0.00    +0.313 C 
ATOM     20  O   UNL     1       0.170  -0.646   3.316  0.00  0.00    -0.250 OA
BRANCH  19  21
ATOM     21  O   UNL     1      -1.044   0.829   2.205  0.00  0.00    -0.468 OA
ATOM     22  C   UNL     1      -1.673   1.192   3.437  0.00  0.00    +0.280 C 
ENDBRANCH  19  21
ENDBRANCH  15  19
ENDBRANCH   1  15
TORSDOF 6
