REMARK  Name = ZINC39330229
REMARK  11 active torsions:
REMARK  status: ('A' for Active; 'I' for Inactive)
REMARK    1  A    between atoms: C_1  and  C_2
REMARK    2  A    between atoms: C_2  and  C_3
REMARK    3  A    between atoms: C_3  and  C_5
REMARK    4  A    between atoms: C_3  and  N_20
REMARK    5  A    between atoms: N_10  and  C_11
REMARK    6  A    between atoms: C_12  and  C_19
REMARK    7  A    between atoms: C_14  and  C_18
REMARK    8  A    between atoms: C_16  and  C_17
REMARK    9  A    between atoms: N_20  and  C_21
REMARK   10  A    between atoms: C_21  and  C_22
REMARK   11  A    between atoms: C_22  and  C_23
REMARK                            x       y       z     vdW  Elec       q    Type
REMARK                         _______ _______ _______ _____ _____    ______ ____
ROOT
ATOM      1  C   UNL     1       0.843  -0.272  -0.993  0.00  0.00    -0.025 C 
ENDROOT
BRANCH   1   2
ATOM      2  C   UNL     1       0.762  -1.789  -1.175  0.00  0.00    +0.221 C 
ATOM      3  N   UNL     1       1.659  -2.222  -2.255  0.00  0.00    -0.148 NA
ATOM      4  N   UNL     1       1.002  -2.753  -3.151  0.00  0.00    -0.066 NA
ATOM      5  N   UNL     1      -0.367  -2.783  -2.879  0.00  0.00    -0.165 N 
ATOM      6  N   UNL     1      -0.587  -2.180  -1.624  0.00  0.00    -0.212 N 
ATOM      7  H   UNL     1      -1.051  -3.157  -3.455  0.00  0.00    +0.195 HD
BRANCH   6   8
ATOM      8  C   UNL     1      -1.800  -1.996  -0.958  0.00  0.00    +0.057 A 
ATOM      9  C   UNL     1      -2.632  -0.939  -1.306  0.00  0.00    -0.027 A 
ATOM     10  C   UNL     1      -3.832  -0.760  -0.646  0.00  0.00    +0.008 A 
ATOM     11  C   UNL     1      -4.205  -1.631   0.361  0.00  0.00    -0.050 A 
ATOM     12  C   UNL     1      -3.380  -2.684   0.710  0.00  0.00    +0.008 A 
ATOM     13  C   UNL     1      -2.181  -2.872   0.051  0.00  0.00    -0.027 A 
ATOM     14  C   UNL     1      -1.285  -4.023   0.428  0.00  0.00    +0.046 C 
ATOM     15  C   UNL     1      -5.515  -1.432   1.080  0.00  0.00    +0.044 C 
ATOM     16  C   UNL     1      -2.225   0.011  -2.403  0.00  0.00    +0.046 C 
ENDBRANCH   6   8
ENDBRANCH   1   2
BRANCH   1  17
ATOM     17  N   UNL     1       2.227   0.110  -0.681  0.00  0.00    +0.384 N 
ATOM     18  H   UNL     1       2.490  -0.278   0.213  0.00  0.00    -0.085 HD
ATOM     19  H   UNL     1       2.844  -0.245  -1.396  0.00  0.00    -0.085 HD
BRANCH  17  20
ATOM     20  C   UNL     1       2.330   1.575  -0.628  0.00  0.00    -0.077 C 
BRANCH  20  21
ATOM     21  C   UNL     1       3.794   1.976  -0.431  0.00  0.00    +0.018 C 
BRANCH  21  22
ATOM     22  C   UNL     1       3.900   3.478  -0.377  0.00  0.00    -0.024 A 
ATOM     23  C   UNL     1       3.711   4.323   0.805  0.00  0.00    +0.003 A 
ATOM     24  C   UNL     1       3.404   4.067   2.142  0.00  0.00    +0.010 A 
ATOM     25  C   UNL     1       3.295   5.105   3.024  0.00  0.00    +0.001 A 
ATOM     26  C   UNL     1       3.488   6.412   2.602  0.00  0.00    +0.002 A 
ATOM     27  C   UNL     1       3.793   6.688   1.286  0.00  0.00    +0.026 A 
ATOM     28  C   UNL     1       3.909   5.647   0.371  0.00  0.00    +0.047 A 
ATOM     29  N   UNL     1       4.194   5.596  -0.975  0.00  0.00    -0.360 N 
ATOM     30  C   UNL     1       4.191   4.295  -1.401  0.00  0.00    +0.087 A 
ATOM     31  H   UNL     1       4.376   6.366  -1.536  0.00  0.00    +0.165 HD
ENDBRANCH  21  22
ENDBRANCH  20  21
ENDBRANCH  17  20
ENDBRANCH   1  17
BRANCH   1  33
ATOM     32  C   UNL     1       0.410  -0.486   1.459  0.00  0.00    +0.002 C 
ATOM     33  C   UNL     1      -0.074   0.153   0.156  0.00  0.00    -0.015 C 
ENDBRANCH   1  33
TORSDOF 7
