REMARK  Name = ZINC21255541
REMARK  7 active torsions:
REMARK  status: ('A' for Active; 'I' for Inactive)
REMARK    1  A    between atoms: C_1  and  C_2
REMARK    2  A    between atoms: C_2  and  C_3
REMARK    3  A    between atoms: C_3  and  O_4
REMARK    4  A    between atoms: O_4  and  C_5
REMARK    5  A    between atoms: C_8  and  C_11
REMARK    6  A    between atoms: C_16  and  C_26
REMARK    7  A    between atoms: C_29  and  C_31
REMARK                            x       y       z     vdW  Elec       q    Type
REMARK                         _______ _______ _______ _____ _____    ______ ____
ROOT
ATOM      1  C   UNL     1       2.235  -2.156   2.973  0.00  0.00    +0.032 C 
ATOM      2  C   UNL     1       1.875  -0.728   3.377  0.00  0.00    +0.059 C 
ATOM      3  C   UNL     1       1.310   0.024   2.183  0.00  0.00    +0.017 C 
ATOM      4  C   UNL     1       0.615  -0.626   1.235  0.00  0.00    +0.039 C 
ATOM      5  C   UNL     1       0.002  -0.004   0.002  0.00  0.00    +0.172 C 
ATOM      6  N   UNL     1      -0.018   1.443   0.010  0.00  0.00    -0.329 N 
ATOM      7  C   UNL     1       1.167   2.174   0.003  0.00  0.00    +0.049 A 
ATOM      8  C   UNL     1       1.520   2.962  -1.082  0.00  0.00    +0.025 A 
ATOM      9  C   UNL     1       2.736   3.622  -1.077  0.00  0.00    +0.002 A 
ATOM     10  C   UNL     1       3.597   3.499  -0.001  0.00  0.00    +0.002 A 
ATOM     11  C   UNL     1       3.236   2.733   1.095  0.00  0.00    +0.025 A 
ATOM     12  C   UNL     1       2.010   2.094   1.101  0.00  0.00    +0.052 A 
ATOM     13  N   UNL     1       1.555   1.360   2.192  0.00  0.00    -0.316 N 
ATOM     14  C   UNL     1       0.404  -2.021   1.335  0.00  0.00    +0.163 C 
ATOM     15  O   UNL     1      -0.248  -2.580   0.475  0.00  0.00    -0.292 OA
ATOM     16  C   UNL     1       0.956  -2.834   2.468  0.00  0.00    +0.088 C 
ATOM     17  H   UNL     1      -0.977   1.980   0.022  0.00  0.00    +0.147 HD
ATOM     18  H   UNL     1       1.396   1.942   3.112  0.00  0.00    +0.152 HD
ENDROOT
BRANCH   1  22
ATOM     19  C   UNL     1       3.761  -4.277   6.355  0.00  0.00    +0.121 A 
ATOM     20  C   UNL     1       4.549  -4.111   5.226  0.00  0.00    +0.046 A 
ATOM     21  C   UNL     1       4.054  -3.425   4.134  0.00  0.00    +0.007 A 
ATOM     22  C   UNL     1       2.773  -2.904   4.166  0.00  0.00    -0.043 A 
ATOM     23  C   UNL     1       1.988  -3.063   5.293  0.00  0.00    +0.007 A 
ATOM     24  C   UNL     1       2.476  -3.753   6.385  0.00  0.00    +0.046 A 
BRANCH  19  25
ATOM     25  O   UNL     1       4.246  -4.951   7.431  0.00  0.00    -0.492 OA
BRANCH  25  26
ATOM     26  C   UNL     1       3.378  -5.083   8.559  0.00  0.00    +0.229 C 
BRANCH  26  28
ATOM     27  C   UNL     1       3.164  -6.007  10.870  0.00  0.00    +0.007 C 
ATOM     28  C   UNL     1       4.093  -5.865   9.663  0.00  0.00    +0.038 C 
ENDBRANCH  26  28
ENDBRANCH  25  26
ENDBRANCH  19  25
ENDBRANCH   1  22
BRANCH   5  29
ATOM     29  C   UNL     1       0.780  -0.465  -1.204  0.00  0.00    +0.130 A 
ATOM     30  C   UNL     1       0.463  -1.508  -1.992  0.00  0.00    +0.047 A 
ATOM     31  C   UNL     1       1.457  -1.579  -2.995  0.00  0.00    +0.045 A 
ATOM     32  C   UNL     1       2.322  -0.577  -2.759  0.00  0.00    +0.102 A 
ATOM     33  O   UNL     1       1.904   0.098  -1.676  0.00  0.00    -0.463 OA
ATOM     34  C   UNL     1       3.550  -0.261  -3.574  0.00  0.00    +0.086 C 
ENDBRANCH   5  29
TORSDOF 5
