REMARK  Name = ZINC51675127
REMARK  5 active torsions:
REMARK  status: ('A' for Active; 'I' for Inactive)
REMARK    1  A    between atoms: C_1  and  C_2
REMARK    2  A    between atoms: C_2  and  C_4
REMARK    3  A    between atoms: C_2  and  N_12
REMARK    4  A    between atoms: C_19  and  C_22
REMARK    5  A    between atoms: N_24  and  C_25
REMARK                            x       y       z     vdW  Elec       q    Type
REMARK                         _______ _______ _______ _____ _____    ______ ____
ROOT
ATOM      1  N   UNL     1      -1.175  -0.348   2.431  0.00  0.00    -0.293 N 
ATOM      2  C   UNL     1       0.158  -0.509   2.306  0.00  0.00    +0.303 C 
ATOM      3  O   UNL     1       0.717  -0.175   1.279  0.00  0.00    -0.253 OA
ATOM      4  N   UNL     1       0.870  -1.041   3.319  0.00  0.00    -0.285 N 
ATOM      5  C   UNL     1       2.304  -1.322   3.159  0.00  0.00    +0.109 C 
ATOM      6  C   UNL     1       2.563  -2.786   3.528  0.00  0.00    +0.020 C 
ATOM      7  C   UNL     1       2.022  -3.057   4.934  0.00  0.00    +0.016 C 
ATOM      8  C   UNL     1       0.511  -2.814   4.957  0.00  0.00    +0.092 C 
ATOM      9  C   UNL     1       0.230  -1.345   4.606  0.00  0.00    +0.122 C 
ATOM     10  H   UNL     1      -1.609  -0.541   3.276  0.00  0.00    +0.151 HD
ENDROOT
BRANCH   8  11
ATOM     11  C   UNL     1      -0.025  -3.113   6.333  0.00  0.00    +0.218 C 
ATOM     12  O   UNL     1       0.726  -3.484   7.209  0.00  0.00    -0.275 OA
ATOM     13  N   UNL     1      -1.341  -2.968   6.589  0.00  0.00    -0.312 N 
ATOM     14  H   UNL     1      -1.942  -2.671   5.888  0.00  0.00    +0.149 HD
BRANCH  13  15
ATOM     15  C   UNL     1      -1.863  -3.259   7.927  0.00  0.00    +0.073 C 
ATOM     16  C   UNL     1      -3.166  -4.054   8.019  0.00  0.00    +0.024 C 
ATOM     17  C   UNL     1      -3.157  -2.560   8.347  0.00  0.00    +0.024 C 
ENDBRANCH  13  15
ENDBRANCH   8  11
BRANCH   1  19
ATOM     18  C   UNL     1      -2.435  -1.083   0.469  0.00  0.00    +0.033 C 
ATOM     19  C   UNL     1      -1.966   0.119   1.290  0.00  0.00    +0.104 C 
BRANCH  19  20
ATOM     20  C   UNL     1      -3.165   0.884   1.790  0.00  0.00    +0.008 A 
ATOM     21  C   UNL     1      -3.689   0.608   3.039  0.00  0.00    +0.011 A 
ATOM     22  C   UNL     1      -4.788   1.308   3.498  0.00  0.00    +0.039 A 
ATOM     23  C   UNL     1      -5.365   2.289   2.708  0.00  0.00    +0.126 A 
ATOM     24  C   UNL     1      -4.840   2.567   1.458  0.00  0.00    +0.077 A 
ATOM     25  C   UNL     1      -3.736   1.868   1.001  0.00  0.00    +0.131 A 
ATOM     26  F   UNL     1      -3.220   2.142  -0.217  0.00  0.00    -0.205 F 
ATOM     27  F   UNL     1      -6.439   2.973   3.158  0.00  0.00    -0.205 F 
ENDBRANCH  19  20
ENDBRANCH   1  19
TORSDOF 4
