REMARK  Name = ZINC39666399
REMARK  9 active torsions:
REMARK  status: ('A' for Active; 'I' for Inactive)
REMARK    1  A    between atoms: C_1  and  C_2
REMARK    2  A    between atoms: C_2  and  C_4
REMARK    3  A    between atoms: C_2  and  O_29
REMARK    4  A    between atoms: C_4  and  N_5
REMARK    5  A    between atoms: C_6  and  C_8
REMARK    6  A    between atoms: C_19  and  C_21
REMARK    7  A    between atoms: C_26  and  O_27
REMARK    8  A    between atoms: O_27  and  C_28
REMARK    9  A    between atoms: O_29  and  C_30
REMARK                            x       y       z     vdW  Elec       q    Type
REMARK                         _______ _______ _______ _____ _____    ______ ____
ROOT
ATOM      1  C   UNL     1       1.482  -3.618  -3.364  0.00  0.00    +0.100 C 
ATOM      2  C   UNL     1       0.135  -4.362  -3.494  0.00  0.00    +0.121 C 
ATOM      3  N   UNL     1      -0.089  -4.480  -4.954  0.00  0.00    -0.296 N 
ATOM      4  C   UNL     1       1.254  -4.774  -5.510  0.00  0.00    +0.115 C 
ATOM      5  C   UNL     1       2.215  -3.894  -4.688  0.00  0.00    -0.004 C 
ATOM      6  C   UNL     1       3.520  -4.639  -4.424  0.00  0.00    -0.010 C 
ATOM      7  C   UNL     1       4.258  -4.851  -5.748  0.00  0.00    -0.082 C 
ATOM      8  N   UNL     1       4.532  -3.550  -6.371  0.00  0.00    +0.379 N 
ATOM      9  C   UNL     1       3.270  -2.880  -6.707  0.00  0.00    -0.082 C 
ATOM     10  C   UNL     1       2.490  -2.585  -5.423  0.00  0.00    -0.010 C 
ATOM     11  C   UNL     1      -1.250  -4.349  -5.625  0.00  0.00    +0.250 C 
ATOM     12  O   UNL     1      -2.260  -4.019  -5.034  0.00  0.00    -0.270 OA
ATOM     13  H   UNL     1       5.057  -2.975  -5.729  0.00  0.00    -0.086 HD
ATOM     14  H   UNL     1       5.072  -3.689  -7.212  0.00  0.00    -0.086 HD
ENDROOT
BRANCH  11  15
ATOM     15  C   UNL     1      -1.296  -4.607  -7.077  0.00  0.00    +0.078 A 
ATOM     16  C   UNL     1      -0.500  -5.608  -7.639  0.00  0.00    +0.017 A 
ATOM     17  C   UNL     1      -0.548  -5.844  -8.995  0.00  0.00    +0.001 A 
ATOM     18  C   UNL     1      -1.383  -5.093  -9.807  0.00  0.00    +0.004 A 
ATOM     19  C   UNL     1      -2.175  -4.101  -9.265  0.00  0.00    +0.046 A 
ATOM     20  C   UNL     1      -2.144  -3.853  -7.900  0.00  0.00    +0.132 A 
BRANCH  20  21
ATOM     21  O   UNL     1      -2.926  -2.882  -7.366  0.00  0.00    -0.494 OA
ATOM     22  C   UNL     1      -3.764  -2.155  -8.266  0.00  0.00    +0.277 C 
ENDBRANCH  20  21
ENDBRANCH  11  15
BRANCH   1  24
ATOM     23  N   UNL     1       2.196  -1.370  -2.617  0.00  0.00    -0.312 N 
ATOM     24  C   UNL     1       1.250  -2.139  -3.192  0.00  0.00    +0.218 C 
ATOM     25  O   UNL     1       0.211  -1.640  -3.570  0.00  0.00    -0.275 OA
ATOM     26  H   UNL     1       3.027  -1.769  -2.314  0.00  0.00    +0.149 HD
BRANCH  23  27
ATOM     27  C   UNL     1       1.970   0.068  -2.449  0.00  0.00    +0.148 C 
BRANCH  27  29
ATOM     28  C   UNL     1       2.905   2.176  -1.488  0.00  0.00    +0.053 C 
ATOM     29  C   UNL     1       3.190   0.700  -1.776  0.00  0.00    +0.187 C 
BRANCH  29  30
ATOM     30  O   UNL     1       4.321   0.594  -2.643  0.00  0.00    -0.486 OA
BRANCH  30  31
ATOM     31  C   UNL     1       5.550   0.631  -2.061  0.00  0.00    +0.139 A 
ATOM     32  C   UNL     1       5.663   0.721  -0.682  0.00  0.00    +0.047 A 
ATOM     33  C   UNL     1       6.912   0.759  -0.093  0.00  0.00    +0.004 A 
ATOM     34  C   UNL     1       8.050   0.707  -0.878  0.00  0.00    +0.002 A 
ATOM     35  C   UNL     1       7.940   0.618  -2.253  0.00  0.00    +0.023 A 
ATOM     36  C   UNL     1       6.692   0.574  -2.847  0.00  0.00    +0.083 A 
ATOM     37 CL   UNL     1       6.555   0.455  -4.573  0.00  0.00    -0.080 Cl
ENDBRANCH  30  31
ENDBRANCH  29  30
ENDBRANCH  27  29
ENDBRANCH  23  27
ENDBRANCH   1  24
TORSDOF 7
