REMARK  Name = ZINC24136645
REMARK  4 active torsions:
REMARK  status: ('A' for Active; 'I' for Inactive)
REMARK    1  A    between atoms: C_3  and  O_9
REMARK    2  A    between atoms: O_9  and  C_10
REMARK    3  A    between atoms: C_10  and  C_11
REMARK    4  A    between atoms: C_17  and  C_20
REMARK                            x       y       z     vdW  Elec       q    Type
REMARK                         _______ _______ _______ _____ _____    ______ ____
ROOT
ATOM      1  C   UNL     1      -0.078   2.261  -2.138  0.00  0.00    +0.253 C 
ATOM      2  O   UNL     1       1.110   2.480  -2.029  0.00  0.00    -0.272 OA
ATOM      3  N   UNL     1      -0.729   1.575  -1.178  0.00  0.00    -0.298 N 
ATOM      4  C   UNL     1      -2.168   1.303  -1.297  0.00  0.00    +0.108 C 
ATOM      5  C   UNL     1      -2.869   1.797  -0.028  0.00  0.00    +0.020 C 
ATOM      6  C   UNL     1      -2.208   1.161   1.197  0.00  0.00    +0.016 C 
ATOM      7  C   UNL     1      -0.736   1.583   1.264  0.00  0.00    +0.092 C 
ATOM      8  C   UNL     1      -0.013   1.086   0.008  0.00  0.00    +0.120 C 
ENDROOT
BRANCH   7   9
ATOM      9  C   UNL     1      -0.091   0.982   2.486  0.00  0.00    +0.215 C 
ATOM     10  O   UNL     1      -0.743   0.287   3.236  0.00  0.00    -0.276 OA
ATOM     11  N   UNL     1       1.211   1.216   2.746  0.00  0.00    -0.329 N 
ATOM     12  H   UNL     1       1.682   0.778   3.638  0.00  0.00    +0.145 HD
ATOM     13  H   UNL     1       1.802   1.847   2.065  0.00  0.00    +0.145 HD
ENDBRANCH   7   9
BRANCH   1  14
ATOM     14  C   UNL     1      -0.827   2.757  -3.349  0.00  0.00    +0.324 C 
BRANCH  14  15
ATOM     15  O   UNL     1       0.074   3.449  -4.215  0.00  0.00    -0.482 OA
BRANCH  15  18
ATOM     16  C   UNL     1      -2.318   4.327  -6.812  0.00  0.00    +0.019 A 
ATOM     17  C   UNL     1      -1.792   3.804  -5.646  0.00  0.00    +0.048 A 
ATOM     18  C   UNL     1      -0.445   3.963  -5.362  0.00  0.00    +0.135 A 
ATOM     19  C   UNL     1       0.373   4.653  -6.247  0.00  0.00    +0.061 A 
ATOM     20  C   UNL     1      -0.156   5.170  -7.414  0.00  0.00    +0.034 A 
ATOM     21  C   UNL     1      -1.501   5.009  -7.696  0.00  0.00    +0.019 A 
ATOM     22 BR   UNL     1      -2.224   5.723  -9.291  0.00  0.00    -0.050 Br
ATOM     23 BR   UNL     1       2.209   4.880  -5.858  0.00  0.00    -0.046 Br
ENDBRANCH  15  18
ENDBRANCH  14  15
ENDBRANCH   1  14
TORSDOF 4
