REMARK  Name = ZINC14460886
REMARK  4 active torsions:
REMARK  status: ('A' for Active; 'I' for Inactive)
REMARK    1  A    between atoms: C_1  and  C_2
REMARK    2  A    between atoms: C_5  and  O_26
REMARK    3  A    between atoms: C_15  and  C_18
REMARK    4  A    between atoms: C_23  and  O_24
REMARK                            x       y       z     vdW  Elec       q    Type
REMARK                         _______ _______ _______ _____ _____    ______ ____
ROOT
ATOM      1  C   UNL     1      -0.298  -4.735   2.010  0.00  0.00    +0.044 C 
ATOM      2  C   UNL     1      -1.190  -3.899   1.130  0.00  0.00    -0.045 A 
ATOM      3  C   UNL     1      -2.270  -4.484   0.497  0.00  0.00    +0.007 A 
ATOM      4  C   UNL     1      -3.088  -3.716  -0.312  0.00  0.00    +0.047 A 
ATOM      5  C   UNL     1      -2.831  -2.369  -0.480  0.00  0.00    +0.138 A 
ATOM      6  C   UNL     1      -1.745  -1.762   0.162  0.00  0.00    +0.074 A 
ATOM      7  C   UNL     1      -0.921  -2.555   0.963  0.00  0.00    -0.013 A 
ATOM      8  C   UNL     1       0.237  -1.907   1.616  0.00  0.00    +0.049 C 
ATOM      9  C   UNL     1       0.803  -2.388   2.900  0.00  0.00    -0.023 C 
ATOM     10  C   UNL     1       1.285  -1.345   3.566  0.00  0.00    -0.030 C 
ATOM     11  C   UNL     1       1.037  -0.059   2.773  0.00  0.00    +0.033 C 
ATOM     12  C   UNL     1      -0.195  -0.444   1.946  0.00  0.00    +0.029 C 
ATOM     13  C   UNL     1      -0.378   0.214   0.594  0.00  0.00    +0.109 C 
ATOM     14  N   UNL     1      -1.569  -0.390  -0.023  0.00  0.00    -0.334 N 
ATOM     15  H   UNL     1      -2.404   0.118   0.228  0.00  0.00    +0.147 HD
ENDROOT
BRANCH  13  16
ATOM     16  C   UNL     1      -0.586   1.696   0.769  0.00  0.00    +0.015 A 
ATOM     17  C   UNL     1      -1.863   2.204   0.908  0.00  0.00    +0.024 A 
ATOM     18  C   UNL     1      -2.054   3.564   1.073  0.00  0.00    +0.018 A 
ATOM     19  C   UNL     1      -0.967   4.420   1.090  0.00  0.00    +0.019 A 
ATOM     20  C   UNL     1       0.312   3.917   0.946  0.00  0.00    +0.047 A 
ATOM     21  C   UNL     1       0.506   2.553   0.785  0.00  0.00    +0.122 A 
ATOM     22 BR   UNL     1      -3.803   4.255   1.269  0.00  0.00    -0.050 Br
BRANCH  21  23
ATOM     23  O   UNL     1       1.763   2.056   0.644  0.00  0.00    -0.506 OA
ATOM     24  H   UNL     1       2.065   2.007  -0.274  0.00  0.00    +0.292 HD
ENDBRANCH  21  23
ENDBRANCH  13  16
BRANCH   5  25
ATOM     25  O   UNL     1      -3.642  -1.624  -1.278  0.00  0.00    -0.505 OA
ATOM     26  H   UNL     1      -4.391  -1.224  -0.815  0.00  0.00    +0.292 HD
ENDBRANCH   5  25
TORSDOF 3
