REMARK  Name = ZINC19461365
REMARK  8 active torsions:
REMARK  status: ('A' for Active; 'I' for Inactive)
REMARK    1  A    between atoms: C_1  and  C_2
REMARK    2  A    between atoms: C_2  and  C_30
REMARK    3  A    between atoms: C_8  and  C_10
REMARK    4  A    between atoms: N_13  and  C_16
REMARK    5  A    between atoms: C_16  and  C_17
REMARK    6  A    between atoms: C_17  and  C_19
REMARK    7  A    between atoms: C_17  and  O_25
REMARK    8  A    between atoms: C_26  and  O_29
REMARK                            x       y       z     vdW  Elec       q    Type
REMARK                         _______ _______ _______ _____ _____    ______ ____
ROOT
ATOM      1  C   UNL     1      -2.525   3.819  -0.252  0.00  0.00    +0.053 C 
ATOM      2  C   UNL     1      -3.204   3.420   1.061  0.00  0.00    -0.008 C 
ATOM      3  C   UNL     1      -4.586   4.074   1.134  0.00  0.00    -0.078 C 
ATOM      4  N   UNL     1      -5.397   3.640  -0.011  0.00  0.00    +0.382 N 
ATOM      5  C   UNL     1      -4.788   4.055  -1.281  0.00  0.00    -0.078 C 
ATOM      6  C   UNL     1      -3.413   3.399  -1.427  0.00  0.00    -0.008 C 
ATOM      7  H   UNL     1      -5.432   2.541   0.001  0.00  0.00    -0.082 HD
ENDROOT
BRANCH   1  15
ATOM      8  C   UNL     1       4.808   4.236  -0.678  0.00  0.00    +0.011 C 
ATOM      9  C   UNL     1       3.578   3.393  -0.332  0.00  0.00    -0.027 C 
ATOM     10  C   UNL     1       2.309   4.173  -0.672  0.00  0.00    +0.062 C 
ATOM     11  C   UNL     1       1.099   3.287  -0.551  0.00  0.00    +0.051 A 
ATOM     12  C   UNL     1       1.185   1.912  -0.541  0.00  0.00    +0.020 A 
ATOM     13  C   UNL     1       0.011   1.176  -0.439  0.00  0.00    +0.120 A 
ATOM     14  N   UNL     1      -1.145   1.812  -0.356  0.00  0.00    -0.240 NA
ATOM     15  C   UNL     1      -1.190   3.129  -0.358  0.00  0.00    +0.132 A 
ATOM     16  N   UNL     1      -0.097   3.857  -0.456  0.00  0.00    -0.236 NA
ATOM     17  C   UNL     1       2.494   1.177  -0.627  0.00  0.00    +0.148 C 
ATOM     18  C   UNL     1       3.591   2.101  -1.156  0.00  0.00    +0.043 C 
ATOM     19  C   UNL     1       3.587   3.052   1.160  0.00  0.00    +0.011 C 
BRANCH  17  20
ATOM     20  O   UNL     1       2.352   0.060  -1.507  0.00  0.00    -0.387 OA
ATOM     21  H   UNL     1       3.209  -0.602  -1.698  0.00  0.00    +0.210 HD
ENDBRANCH  17  20
ENDBRANCH   1  15
BRANCH   4  22
ATOM     22  C   UNL     1      -6.774   4.139   0.100  0.00  0.00    -0.042 C 
BRANCH  22  23
ATOM     23  C   UNL     1      -6.750   5.633   0.430  0.00  0.00    +0.128 C 
BRANCH  23  24
ATOM     24  C   UNL     1      -8.155   6.113   0.692  0.00  0.00    -0.021 A 
ATOM     25  C   UNL     1      -8.995   6.401  -0.368  0.00  0.00    +0.006 A 
ATOM     26  C   UNL     1     -10.284   6.836  -0.128  0.00  0.00    +0.000 A 
ATOM     27  C   UNL     1     -10.731   6.993   1.171  0.00  0.00    +0.000 A 
ATOM     28  C   UNL     1      -9.889   6.709   2.230  0.00  0.00    +0.000 A 
ATOM     29  C   UNL     1      -8.601   6.270   1.990  0.00  0.00    +0.006 A 
ENDBRANCH  23  24
BRANCH  23  30
ATOM     30  O   UNL     1      -6.197   6.355  -0.672  0.00  0.00    -0.389 OA
ATOM     31  H   UNL     1      -6.099   7.450  -0.618  0.00  0.00    +0.210 HD
ENDBRANCH  23  30
ENDBRANCH  22  23
ENDBRANCH   4  22
TORSDOF 6
