REMARK  Name = ZINC12683775
REMARK  3 active torsions:
REMARK  status: ('A' for Active; 'I' for Inactive)
REMARK    1  A    between atoms: N_11  and  C_12
REMARK    2  A    between atoms: C_18  and  C_20
REMARK    3  A    between atoms: C_21  and  C_22
REMARK                            x       y       z     vdW  Elec       q    Type
REMARK                         _______ _______ _______ _____ _____    ______ ____
ROOT
ATOM      1  C   UNL     1      -1.853   3.153   0.050  0.00  0.00    +0.095 C 
ATOM      2  C   UNL     1      -2.684   3.388   1.313  0.00  0.00    +0.044 C 
ATOM      3  C   UNL     1      -3.171   4.840   1.337  0.00  0.00    +0.110 C 
ATOM      4  N   UNL     1      -3.886   5.119   0.084  0.00  0.00    -0.298 N 
ATOM      5  C   UNL     1      -3.211   4.842  -1.192  0.00  0.00    +0.110 C 
ATOM      6  C   UNL     1      -2.723   3.390  -1.186  0.00  0.00    +0.044 C 
ATOM      7  C   UNL     1      -5.137   5.619   0.104  0.00  0.00    +0.239 C 
ATOM      8  O   UNL     1      -5.723   5.754   1.164  0.00  0.00    -0.271 OA
ENDROOT
BRANCH   1  19
ATOM      9  C   UNL     1       2.395   0.032  -0.008  0.00  0.00    +0.002 A 
ATOM     10  C   UNL     1       2.376   1.416  -0.007  0.00  0.00    +0.002 A 
ATOM     11  C   UNL     1       1.175   2.096   0.007  0.00  0.00    +0.028 A 
ATOM     12  C   UNL     1      -0.018   1.390   0.020  0.00  0.00    +0.070 A 
ATOM     13  C   UNL     1       0.000  -0.006   0.019  0.00  0.00    +0.067 A 
ATOM     14  C   UNL     1       1.212  -0.681   0.005  0.00  0.00    +0.028 A 
ATOM     15  N   UNL     1      -1.328  -0.426   0.034  0.00  0.00    -0.306 N 
ATOM     16  H   UNL     1      -1.632  -1.347   0.037  0.00  0.00    +0.170 HD
ATOM     17  C   UNL     1      -2.118   0.664   0.044  0.00  0.00    +0.328 A 
ATOM     18  O   UNL     1      -3.334   0.648   0.058  0.00  0.00    -0.247 OA
ATOM     19  N   UNL     1      -1.357   1.775   0.041  0.00  0.00    -0.289 N 
ENDBRANCH   1  19
BRANCH   7  20
ATOM     20  C   UNL     1      -5.769   5.987  -1.102  0.00  0.00    +0.069 C 
ATOM     21  C   UNL     1      -6.992   6.585  -1.075  0.00  0.00    +0.034 C 
BRANCH  21  22
ATOM     22  C   UNL     1      -7.623   6.952  -2.280  0.00  0.00    +0.085 A 
ATOM     23  C   UNL     1      -7.064   7.678  -3.327  0.00  0.00    +0.155 A 
ATOM     24  N   UNL     1      -7.981   7.811  -4.272  0.00  0.00    -0.216 NA
ATOM     25  C   UNL     1      -9.109   7.209  -3.896  0.00  0.00    +0.140 A 
ATOM     26  N   UNL     1      -8.921   6.657  -2.660  0.00  0.00    -0.298 N 
ATOM     27  C   UNL     1      -9.927   5.985  -2.039  0.00  0.00    +0.093 A 
ATOM     28  C   UNL     1     -11.131   5.840  -2.639  0.00  0.00    +0.018 A 
ATOM     29  C   UNL     1     -11.355   6.389  -3.909  0.00  0.00    +0.005 A 
ATOM     30  C   UNL     1     -10.354   7.070  -4.535  0.00  0.00    +0.047 A 
ATOM     31 CL   UNL     1      -5.445   8.302  -3.384  0.00  0.00    -0.060 Cl
ENDBRANCH  21  22
ENDBRANCH   7  20
TORSDOF 3
