REMARK  Name = ZINC04014871
REMARK  13 active torsions:
REMARK  status: ('A' for Active; 'I' for Inactive)
REMARK    1  A    between atoms: C_1  and  C_2
REMARK    2  A    between atoms: C_4  and  C_43
REMARK    3  A    between atoms: C_14  and  O_28
REMARK    4  A    between atoms: C_15  and  C_19
REMARK    5  A    between atoms: C_19  and  C_20
REMARK    6  A    between atoms: C_20  and  C_22
REMARK    7  A    between atoms: C_20  and  C_23
REMARK    8  A    between atoms: C_23  and  N_24
REMARK    9  A    between atoms: C_25  and  C_27
REMARK   10  A    between atoms: C_32  and  C_42
REMARK   11  A    between atoms: C_35  and  O_38
REMARK   12  A    between atoms: O_38  and  C_39
REMARK   13  A    between atoms: C_39  and  C_41
REMARK                            x       y       z     vdW  Elec       q    Type
REMARK                         _______ _______ _______ _____ _____    ______ ____
ROOT
ATOM      1  C   UNL     1       6.936   3.826  -3.400  0.00  0.00    +0.047 C 
ATOM      2  C   UNL     1       6.919   3.232  -2.014  0.00  0.00    -0.005 C 
ATOM      3  C   UNL     1       7.676   2.219  -1.622  0.00  0.00    -0.025 C 
ATOM      4  C   UNL     1       8.659   1.149  -1.982  0.00  0.00    -0.005 C 
ATOM      5  C   UNL     1       9.938   1.472  -2.692  0.00  0.00    +0.011 C 
ATOM      6  C   UNL     1      10.625   0.134  -3.039  0.00  0.00    +0.005 C 
ATOM      7  C   UNL     1      10.823  -0.771  -1.843  0.00  0.00    +0.003 C 
ATOM      8  C   UNL     1       9.645  -0.922  -0.889  0.00  0.00    +0.001 C 
ATOM      9  C   UNL     1       8.979   0.403  -0.679  0.00  0.00    +0.006 C 
ATOM     10  C   UNL     1       7.630   0.485   0.073  0.00  0.00    +0.044 C 
ATOM     11  C   UNL     1       7.409   1.998  -0.124  0.00  0.00    +0.098 C 
ATOM     12  C   UNL     1       6.021   2.563   0.098  0.00  0.00    +0.096 C 
ATOM     13  C   UNL     1       5.990   3.664  -0.966  0.00  0.00    +0.165 C 
ATOM     14  O   UNL     1       5.331   4.682  -0.945  0.00  0.00    -0.292 OA
ATOM     15  C   UNL     1       8.686  -2.052  -1.183  0.00  0.00    +0.031 C 
ATOM     16  C   UNL     1       9.240  -3.112  -2.079  0.00  0.00    -0.027 C 
ATOM     17  C   UNL     1      10.482  -3.198  -2.412  0.00  0.00    -0.064 C 
ATOM     18  C   UNL     1      11.478  -2.091  -2.192  0.00  0.00    -0.008 C 
ATOM     19  C   UNL     1      12.440  -2.557  -1.094  0.00  0.00    +0.015 C 
ATOM     20  C   UNL     1      12.224  -4.041  -0.806  0.00  0.00    +0.046 C 
ATOM     21  C   UNL     1      12.213  -4.894  -2.070  0.00  0.00    +0.180 C 
ATOM     22  C   UNL     1      11.035  -4.498  -2.971  0.00  0.00    +0.075 C 
ATOM     23  C   UNL     1      12.302  -1.928  -3.472  0.00  0.00    +0.016 C 
ATOM     24  C   UNL     1       7.868   0.244  -2.913  0.00  0.00    +0.016 C 
ENDROOT
BRANCH  11  25
ATOM     25  O   UNL     1       8.363   2.738   0.653  0.00  0.00    -0.384 OA
ATOM     26  H   UNL     1       8.206   2.702   1.607  0.00  0.00    +0.211 HD
ENDBRANCH  11  25
BRANCH  12  27
ATOM     27  C   UNL     1       4.917   1.537  -0.151  0.00  0.00    +0.019 C 
BRANCH  27  28
ATOM     28  C   UNL     1       3.561   2.149   0.206  0.00  0.00    +0.004 C 
ATOM     29  C   UNL     1       2.444   1.179  -0.184  0.00  0.00    +0.009 C 
BRANCH  28  30
ATOM     30  C   UNL     1       3.503   2.416   1.712  0.00  0.00    +0.107 C 
BRANCH  30  31
ATOM     31  N   UNL     1       2.255   3.111   2.036  0.00  0.00    -0.315 N 
ATOM     32  C   UNL     1       1.985   3.450   3.312  0.00  0.00    +0.210 C 
ATOM     33  O   UNL     1       2.775   3.181   4.192  0.00  0.00    -0.276 OA
ATOM     34  C   UNL     1       0.698   4.160   3.647  0.00  0.00    +0.109 C 
ATOM     35  H   UNL     1       1.623   3.327   1.333  0.00  0.00    +0.149 HD
ENDBRANCH  30  31
ENDBRANCH  28  30
ENDBRANCH  27  28
ENDBRANCH  12  27
BRANCH  21  36
ATOM     36  O   UNL     1      13.462  -4.735  -2.789  0.00  0.00    -0.461 OA
BRANCH  36  37
ATOM     37  C   UNL     1      13.906  -5.796  -3.481  0.00  0.00    +0.304 C 
ATOM     38  O   UNL     1      13.271  -6.824  -3.485  0.00  0.00    -0.251 OA
ATOM     39  C   UNL     1      15.198  -5.705  -4.253  0.00  0.00    +0.136 C 
ENDBRANCH  36  37
ENDBRANCH  21  36
TORSDOF 7
