REMARK  Name = ZINC66854676
REMARK  7 active torsions:
REMARK  status: ('A' for Active; 'I' for Inactive)
REMARK    1  A    between atoms: C_1  and  C_2
REMARK    2  A    between atoms: C_3  and  C_27
REMARK    3  A    between atoms: C_5  and  C_7
REMARK    4  A    between atoms: C_7  and  N_8
REMARK    5  A    between atoms: N_11  and  C_14
REMARK    6  A    between atoms: C_17  and  N_24
REMARK    7  A    between atoms: C_19  and  C_20
REMARK                            x       y       z     vdW  Elec       q    Type
REMARK                         _______ _______ _______ _____ _____    ______ ____
ROOT
ATOM      1  N   UNL     1      -1.325  -3.665   1.882  0.00  0.00    -0.291 NA
ATOM      2  C   UNL     1      -2.009  -4.133   0.669  0.00  0.00    +0.104 C 
ATOM      3  C   UNL     1      -3.489  -4.379   0.984  0.00  0.00    +0.120 C 
ATOM      4  N   UNL     1      -3.576  -5.288   2.137  0.00  0.00    -0.327 N 
ATOM      5  C   UNL     1      -2.806  -4.955   3.345  0.00  0.00    +0.120 C 
ATOM      6  C   UNL     1      -1.353  -4.686   2.938  0.00  0.00    +0.104 C 
ENDROOT
BRANCH   4   7
ATOM      7  C   UNL     1      -4.370  -6.436   2.086  0.00  0.00    +0.042 A 
ATOM      8  C   UNL     1      -3.830  -7.637   1.643  0.00  0.00    +0.026 A 
ATOM      9  C   UNL     1      -4.617  -8.770   1.594  0.00  0.00    +0.034 A 
ATOM     10  C   UNL     1      -5.942  -8.711   1.986  0.00  0.00    +0.127 A 
ATOM     11  C   UNL     1      -6.483  -7.518   2.428  0.00  0.00    +0.047 A 
ATOM     12  C   UNL     1      -5.699  -6.381   2.484  0.00  0.00    +0.078 A 
BRANCH  12  13
ATOM     13  C   UNL     1      -6.288  -5.082   2.971  0.00  0.00    +0.419 C 
ATOM     14  F   UNL     1      -7.631  -5.278   3.312  0.00  0.00    -0.166 F 
ATOM     15  F   UNL     1      -5.581  -4.642   4.095  0.00  0.00    -0.166 F 
ATOM     16  F   UNL     1      -6.199  -4.121   1.958  0.00  0.00    -0.166 F 
ENDBRANCH  12  13
BRANCH  10  17
ATOM     17  N   UNL     1      -6.783  -9.928   1.933  0.00  0.00    +0.056 N 
ATOM     18  O   UNL     1      -6.311 -10.972   1.547  0.00  0.00    -0.126 OA
ATOM     19  O   UNL     1      -7.941  -9.877   2.276  0.00  0.00    -0.126 OA
ENDBRANCH  10  17
ENDBRANCH   4   7
BRANCH   1  20
ATOM     20  C   UNL     1       0.053  -3.253   1.584  0.00  0.00    +0.180 C 
BRANCH  20  25
ATOM     21  C   UNL     1      -0.018   1.503   0.010  0.00  0.00    +0.069 C 
ATOM     22  C   UNL     1       0.002  -0.004   0.002  0.00  0.00    +0.079 A 
ATOM     23  C   UNL     1       0.008  -0.791  -1.087  0.00  0.00    +0.125 A 
ATOM     24  O   UNL     1       0.027  -2.067  -0.654  0.00  0.00    -0.443 OA
ATOM     25  C   UNL     1       0.033  -2.044   0.685  0.00  0.00    +0.210 A 
ATOM     26  N   UNL     1       0.024  -0.803   1.083  0.00  0.00    -0.217 NA
ATOM     27  C   UNL     1      -0.005  -0.333  -2.522  0.00  0.00    +0.088 C 
ENDBRANCH  20  25
ENDBRANCH   1  20
TORSDOF 5
