REMARK  Name = ZINC13500618
REMARK  12 active torsions:
REMARK  status: ('A' for Active; 'I' for Inactive)
REMARK    1  A    between atoms: C_1  and  C_2
REMARK    2  A    between atoms: C_12  and  C_14
REMARK    3  A    between atoms: C_14  and  N_72
REMARK    4  A    between atoms: C_15  and  N_72
REMARK    5  A    between atoms: C_20  and  C_22
REMARK    6  A    between atoms: C_20  and  C_35
REMARK    7  A    between atoms: C_20  and  N_72
REMARK    8  A    between atoms: N_26  and  C_27
REMARK    9  A    between atoms: C_27  and  C_28
REMARK   10  A    between atoms: C_28  and  C_29
REMARK   11  A    between atoms: C_35  and  C_36
REMARK   12  A    between atoms: C_35  and  C_37
REMARK                            x       y       z     vdW  Elec       q    Type
REMARK                         _______ _______ _______ _____ _____    ______ ____
ROOT
ATOM      1  N   UNL     1       0.895  -3.089   5.239  0.00  0.00    +0.391 N 
ATOM      2  H   UNL     1       1.117  -3.627   4.393  0.00  0.00    -0.080 HD
ENDROOT
BRANCH   1   3
ATOM      3  C   UNL     1       1.703  -1.852   5.248  0.00  0.00    -0.067 C 
ATOM      4  C   UNL     1       1.769  -1.279   3.817  0.00  0.00    -0.015 C 
ATOM      5  C   UNL     1       3.215  -0.735   3.694  0.00  0.00    -0.002 C 
ATOM      6  C   UNL     1       4.045  -1.790   4.466  0.00  0.00    -0.002 C 
ATOM      7  C   UNL     1       3.149  -2.176   5.661  0.00  0.00    -0.015 C 
ENDBRANCH   1   3
BRANCH   1   8
ATOM      8  C   UNL     1      -0.545  -2.753   5.230  0.00  0.00    -0.036 C 
BRANCH   8  20
ATOM      9  C   UNL     1      -1.824   1.368   0.272  0.00  0.00    +0.046 C 
ATOM     10  C   UNL     1      -1.803  -0.138   0.334  0.00  0.00    -0.026 A 
ATOM     11  C   UNL     1      -2.093  -0.881  -0.790  0.00  0.00    +0.005 A 
ATOM     12  C   UNL     1      -2.072  -2.268  -0.746  0.00  0.00    +0.001 A 
ATOM     13  C   UNL     1      -1.773  -2.923   0.415  0.00  0.00    +0.010 A 
ATOM     14  C   UNL     1      -1.481  -2.190   1.569  0.00  0.00    -0.001 A 
ATOM     15  C   UNL     1      -1.496  -0.782   1.528  0.00  0.00    +0.052 A 
ATOM     16  N   UNL     1      -1.207  -0.064   2.668  0.00  0.00    -0.322 N 
ATOM     17  H   UNL     1      -1.218   0.905   2.638  0.00  0.00    +0.169 HD
ATOM     18  C   UNL     1      -0.911  -0.688   3.822  0.00  0.00    +0.251 A 
ATOM     19  O   UNL     1      -0.661  -0.021   4.811  0.00  0.00    -0.268 OA
ATOM     20  C   UNL     1      -0.882  -2.096   3.917  0.00  0.00    +0.001 A 
ATOM     21  C   UNL     1      -1.156  -2.859   2.830  0.00  0.00    +0.017 A 
ENDBRANCH   8  20
ENDBRANCH   1   8
BRANCH   1  22
ATOM     22  C   UNL     1       1.214  -3.909   6.427  0.00  0.00    +0.006 C 
BRANCH  22  23
ATOM     23  C   UNL     1       0.950  -3.134   7.692  0.00  0.00    +0.138 A 
ATOM     24  N   UNL     1       0.025  -2.222   7.872  0.00  0.00    -0.115 NA
ATOM     25  N   UNL     1       0.119  -1.795   9.084  0.00  0.00    -0.023 NA
ATOM     26  N   UNL     1       1.085  -2.404   9.679  0.00  0.00    -0.044 NA
ATOM     27  N   UNL     1       1.622  -3.237   8.853  0.00  0.00    -0.231 N 
BRANCH  27  28
ATOM     28  C   UNL     1       2.751  -4.130   9.129  0.00  0.00    +0.152 C 
BRANCH  28  29
ATOM     29  C   UNL     1       4.063  -3.369   8.926  0.00  0.00    +0.058 C 
BRANCH  29  30
ATOM     30  C   UNL     1       5.225  -4.295   9.181  0.00  0.00    -0.046 A 
ATOM     31  C   UNL     1       5.757  -4.401  10.453  0.00  0.00    +0.004 A 
ATOM     32  C   UNL     1       6.819  -5.254  10.688  0.00  0.00    +0.000 A 
ATOM     33  C   UNL     1       7.356  -5.993   9.650  0.00  0.00    +0.000 A 
ATOM     34  C   UNL     1       6.827  -5.882   8.378  0.00  0.00    +0.000 A 
ATOM     35  C   UNL     1       5.761  -5.033   8.143  0.00  0.00    +0.004 A 
ENDBRANCH  29  30
ENDBRANCH  28  29
ENDBRANCH  27  28
ENDBRANCH  22  23
BRANCH  22  36
ATOM     36  C   UNL     1       0.345  -5.168   6.410  0.00  0.00    -0.024 C 
ATOM     37  C   UNL     1       0.616  -5.958   5.128  0.00  0.00    +0.006 C 
ATOM     38  C   UNL     1       0.682  -6.037   7.624  0.00  0.00    +0.006 C 
ENDBRANCH  22  36
ENDBRANCH   1  22
TORSDOF 9
