REMARK  Name = ZINC12567377
REMARK  6 active torsions:
REMARK  status: ('A' for Active; 'I' for Inactive)
REMARK    1  A    between atoms: C_1  and  C_2
REMARK    2  A    between atoms: C_8  and  C_27
REMARK    3  A    between atoms: C_12  and  C_13
REMARK    4  A    between atoms: N_15  and  C_16
REMARK    5  A    between atoms: C_27  and  S_28
REMARK    6  A    between atoms: S_28  and  C_29
REMARK                            x       y       z     vdW  Elec       q    Type
REMARK                         _______ _______ _______ _____ _____    ______ ____
ROOT
ATOM      1  C   UNL     1      -2.485  -0.388   0.024  0.00  0.00    +0.046 C 
ATOM      2  C   UNL     1      -1.068  -0.902   0.008  0.00  0.00    -0.017 A 
ATOM      3  C   UNL     1       0.002  -0.004   0.002  0.00  0.00    +0.076 A 
ATOM      4  C   UNL     1      -0.018   1.476   0.010  0.00  0.00    +0.260 A 
ATOM      5  O   UNL     1      -1.072   2.087   0.018  0.00  0.00    -0.267 OA
ATOM      6  N   UNL     1       1.160   2.131   0.002  0.00  0.00    -0.310 N 
ATOM      7  H   UNL     1       1.164   3.101   0.007  0.00  0.00    +0.170 HD
ATOM      8  C   UNL     1       2.339   1.462  -0.012  0.00  0.00    +0.121 A 
ATOM      9  N   UNL     1       2.392   0.158  -0.020  0.00  0.00    -0.226 NA
ATOM     10  C   UNL     1       1.291  -0.584  -0.013  0.00  0.00    +0.116 A 
ATOM     11  S   UNL     1       0.955  -2.326  -0.019  0.00  0.00    -0.064 S 
ATOM     12  C   UNL     1      -0.828  -2.244  -0.001  0.00  0.00    +0.079 A 
ENDROOT
BRANCH  12  13
ATOM     13  C   UNL     1      -1.795  -3.347   0.003  0.00  0.00    +0.251 C 
ATOM     14  O   UNL     1      -2.989  -3.109   0.015  0.00  0.00    -0.270 OA
ATOM     15  N   UNL     1      -1.362  -4.623  -0.008  0.00  0.00    -0.304 N 
ATOM     16  H   UNL     1      -0.411  -4.812  -0.018  0.00  0.00    +0.150 HD
BRANCH  15  17
ATOM     17  C   UNL     1      -2.328  -5.724  -0.004  0.00  0.00    +0.110 C 
ATOM     18  C   UNL     1      -1.676  -6.972   0.598  0.00  0.00    +0.068 C 
ATOM     19  C   UNL     1      -2.590  -8.173   0.324  0.00  0.00    +0.231 C 
ATOM     20  O   UNL     1      -2.646  -8.383  -1.087  0.00  0.00    -0.492 OA
ATOM     21  C   UNL     1      -2.905  -7.310  -1.879  0.00  0.00    +0.125 A 
ATOM     22  C   UNL     1      -2.765  -6.013  -1.418  0.00  0.00    +0.014 A 
ATOM     23  C   UNL     1      -3.031  -4.949  -2.263  0.00  0.00    +0.009 A 
ATOM     24  C   UNL     1      -3.437  -5.177  -3.564  0.00  0.00    +0.001 A 
ATOM     25  C   UNL     1      -3.580  -6.471  -4.027  0.00  0.00    +0.004 A 
ATOM     26  C   UNL     1      -3.316  -7.536  -3.189  0.00  0.00    +0.046 A 
ENDBRANCH  15  17
ENDBRANCH  12  13
BRANCH   8  27
ATOM     27  C   UNL     1       3.625   2.246  -0.019  0.00  0.00    +0.143 C 
BRANCH  27  28
ATOM     28  S   UNL     1       5.032   1.101  -0.038  0.00  0.00    -0.156 S 
ATOM     29  C   UNL     1       6.484   2.189  -0.045  0.00  0.00    +0.084 C 
ENDBRANCH  27  28
ENDBRANCH   8  27
TORSDOF 4
