REMARK  Name = ZINC39515235
REMARK  9 active torsions:
REMARK  status: ('A' for Active; 'I' for Inactive)
REMARK    1  A    between atoms: C_1  and  C_2
REMARK    2  A    between atoms: C_2  and  C_4
REMARK    3  A    between atoms: C_2  and  N_16
REMARK    4  A    between atoms: C_7  and  C_10
REMARK    5  A    between atoms: N_16  and  C_17
REMARK    6  A    between atoms: N_16  and  C_18
REMARK    7  A    between atoms: C_18  and  C_19
REMARK    8  A    between atoms: N_27  and  C_30
REMARK    9  A    between atoms: C_30  and  C_31
REMARK                            x       y       z     vdW  Elec       q    Type
REMARK                         _______ _______ _______ _____ _____    ______ ____
ROOT
ATOM      1  C   UNL     1       2.991  -0.477  -1.914  0.00  0.00    +0.001 A 
ATOM      2  C   UNL     1       3.333   0.422  -2.870  0.00  0.00    +0.017 A 
ATOM      3  C   UNL     1       4.256   0.003  -3.926  0.00  0.00    -0.001 A 
ATOM      4  C   UNL     1       4.645   0.883  -4.939  0.00  0.00    +0.014 A 
ATOM      5  C   UNL     1       5.509   0.465  -5.915  0.00  0.00    -0.043 A 
ATOM      6  C   UNL     1       6.004  -0.834  -5.906  0.00  0.00    -0.042 A 
ATOM      7  C   UNL     1       5.632  -1.718  -4.912  0.00  0.00    +0.030 A 
ATOM      8  C   UNL     1       4.755  -1.313  -3.913  0.00  0.00    +0.053 A 
ATOM      9  N   UNL     1       4.368  -2.179  -2.913  0.00  0.00    -0.302 N 
ATOM     10  C   UNL     1       3.523  -1.783  -1.944  0.00  0.00    +0.253 A 
ATOM     11  O   UNL     1       3.206  -2.575  -1.073  0.00  0.00    -0.267 OA
ATOM     12  C   UNL     1       6.931  -1.032  -7.088  0.00  0.00    +0.036 C 
ATOM     13  C   UNL     1       6.607   0.126  -8.055  0.00  0.00    +0.009 C 
ATOM     14  C   UNL     1       6.073   1.216  -7.103  0.00  0.00    +0.036 C 
ENDROOT
BRANCH   1  15
ATOM     15  C   UNL     1       2.043  -0.077  -0.812  0.00  0.00    -0.037 C 
BRANCH  15  16
ATOM     16  N   UNL     1       0.676  -0.476  -1.174  0.00  0.00    +0.384 N 
ATOM     17  C   UNL     1       0.596  -1.941  -1.244  0.00  0.00    -0.095 C 
ATOM     18  H   UNL     1       0.438  -0.083  -2.072  0.00  0.00    -0.081 HD
BRANCH  16  20
ATOM     19  C   UNL     1       0.178  -0.468   1.224  0.00  0.00    -0.011 C 
ATOM     20  C   UNL     1      -0.263   0.018  -0.158  0.00  0.00    -0.041 C 
BRANCH  20  21
ATOM     21  C   UNL     1      -0.279   1.548  -0.180  0.00  0.00    +0.139 C 
ATOM     22  C   UNL     1      -1.436   2.083   0.646  0.00  0.00    +0.030 C 
ATOM     23  C   UNL     1      -2.184   2.759  -0.247  0.00  0.00    +0.091 C 
ATOM     24  N   UNL     1      -1.623   2.692  -1.483  0.00  0.00    -0.154 NA
ATOM     25  N   UNL     1      -0.570   2.046  -1.534  0.00  0.00    -0.181 NA
BRANCH  23  26
ATOM     26  C   UNL     1      -3.443   3.475   0.073  0.00  0.00    +0.002 A 
ATOM     27  C   UNL     1      -3.929   3.485   1.379  0.00  0.00    +0.010 A 
ATOM     28  C   UNL     1      -5.101   4.153   1.671  0.00  0.00    +0.001 A 
ATOM     29  C   UNL     1      -5.793   4.812   0.671  0.00  0.00    +0.000 A 
ATOM     30  C   UNL     1      -5.315   4.805  -0.627  0.00  0.00    +0.001 A 
ATOM     31  C   UNL     1      -4.141   4.145  -0.930  0.00  0.00    +0.010 A 
ENDBRANCH  23  26
ENDBRANCH  20  21
ENDBRANCH  16  20
ENDBRANCH  15  16
ENDBRANCH   1  15
BRANCH   9  32
ATOM     32  C   UNL     1       4.889  -3.548  -2.902  0.00  0.00    +0.180 C 
BRANCH  32  33
ATOM     33  C   UNL     1       6.168  -3.593  -2.105  0.00  0.00    +0.061 A 
ATOM     34  C   UNL     1       6.129  -3.952  -0.771  0.00  0.00    +0.025 A 
ATOM     35  C   UNL     1       7.311  -3.990  -0.048  0.00  0.00    +0.003 A 
ATOM     36  C   UNL     1       8.493  -3.664  -0.696  0.00  0.00    +0.020 A 
ATOM     37  C   UNL     1       8.453  -3.315  -2.033  0.00  0.00    +0.111 A 
ATOM     38  N   UNL     1       7.311  -3.295  -2.691  0.00  0.00    -0.258 NA
ENDBRANCH  32  33
ENDBRANCH   9  32
TORSDOF 7
