REMARK  Name = ZINC52122859
REMARK  1 active torsions:
REMARK  status: ('A' for Active; 'I' for Inactive)
REMARK    1  A    between atoms: C_6  and  N_7
REMARK                            x       y       z     vdW  Elec       q    Type
REMARK                         _______ _______ _______ _____ _____    ______ ____
ROOT
ATOM      1  N   UNL     1      -1.202  -0.722   0.010  0.00  0.00    -0.281 N 
ATOM      2  C   UNL     1      -1.660  -1.550   1.024  0.00  0.00    +0.078 A 
ATOM      3  C   UNL     1      -1.154  -1.928   2.258  0.00  0.00    +0.066 A 
ATOM      4  C   UNL     1      -1.873  -2.793   3.060  0.00  0.00    +0.125 A 
ATOM      5  C   UNL     1      -3.100  -3.288   2.636  0.00  0.00    +0.040 A 
ATOM      6  C   UNL     1      -3.615  -2.922   1.413  0.00  0.00    +0.033 A 
ATOM      7  C   UNL     1      -2.901  -2.047   0.591  0.00  0.00    +0.091 A 
ATOM      8  N   UNL     1      -3.140  -1.515  -0.637  0.00  0.00    -0.214 NA
ATOM      9  C   UNL     1      -2.147  -0.733  -0.979  0.00  0.00    +0.199 A 
ATOM     10  N   UNL     1      -2.065  -0.027  -2.162  0.00  0.00    -0.329 N 
ATOM     11  F   UNL     1      -1.379  -3.161   4.262  0.00  0.00    -0.205 F 
ATOM     12  H   UNL     1      -1.292   0.530  -2.341  0.00  0.00    +0.145 HD
ATOM     13  H   UNL     1      -2.781  -0.089  -2.814  0.00  0.00    +0.145 HD
ENDROOT
BRANCH   1  19
ATOM     14  C   UNL     1      -0.017   1.384   0.010  0.00  0.00    +0.029 A 
ATOM     15  C   UNL     1       1.170   2.091   0.002  0.00  0.00    +0.043 A 
ATOM     16  C   UNL     1       2.379   1.417  -0.013  0.00  0.00    +0.159 A 
ATOM     17  C   UNL     1       2.401   0.030  -0.021  0.00  0.00    +0.160 A 
ATOM     18  C   UNL     1       1.214  -0.680  -0.014  0.00  0.00    +0.067 A 
ATOM     19  C   UNL     1       0.002  -0.004   0.002  0.00  0.00    +0.053 A 
ATOM     20  F   UNL     1       3.581  -0.627  -0.038  0.00  0.00    -0.202 F 
ATOM     21  F   UNL     1       3.538   2.110  -0.021  0.00  0.00    -0.202 F 
ENDBRANCH   1  19
TORSDOF 1
