REMARK  Name = ZINC33288593
REMARK  7 active torsions:
REMARK  status: ('A' for Active; 'I' for Inactive)
REMARK    1  A    between atoms: C_1  and  C_2
REMARK    2  A    between atoms: C_2  and  O_3
REMARK    3  A    between atoms: O_3  and  C_4
REMARK    4  A    between atoms: C_6  and  C_13
REMARK    5  A    between atoms: C_9  and  O_10
REMARK    6  A    between atoms: O_10  and  C_11
REMARK    7  A    between atoms: N_18  and  C_21
REMARK                            x       y       z     vdW  Elec       q    Type
REMARK                         _______ _______ _______ _____ _____    ______ ____
ROOT
ATOM      1  C   UNL     1      -0.205  -4.962   0.437  0.00  0.00    +0.026 C 
ATOM      2  C   UNL     1      -0.758  -6.162   0.043  0.00  0.00    +0.102 C 
ATOM      3  C   UNL     1      -0.774  -6.740  -1.315  0.00  0.00    +0.266 C 
ATOM      4  O   UNL     1      -0.297  -6.246  -2.319  0.00  0.00    -0.268 OA
ATOM      5  N   UNL     1      -1.418  -7.920  -1.229  0.00  0.00    -0.223 N 
ATOM      6  N   UNL     1      -1.827  -8.162   0.082  0.00  0.00    -0.184 N 
ATOM      7  C   UNL     1      -1.455  -7.150   0.889  0.00  0.00    +0.272 C 
ATOM      8  O   UNL     1      -1.658  -7.065   2.085  0.00  0.00    -0.268 OA
ATOM      9  H   UNL     1      -1.576  -8.518  -1.976  0.00  0.00    +0.174 HD
ENDROOT
BRANCH   1  12
ATOM     10  C   UNL     1       1.247  -2.052  -1.424  0.00  0.00    +0.163 A 
ATOM     11  C   UNL     1       0.487  -2.782  -0.533  0.00  0.00    +0.057 A 
ATOM     12  C   UNL     1       0.597  -4.181  -0.506  0.00  0.00    -0.019 A 
ATOM     13  C   UNL     1       1.477  -4.827  -1.385  0.00  0.00    +0.026 A 
ATOM     14  C   UNL     1       2.230  -4.090  -2.270  0.00  0.00    +0.059 A 
ATOM     15  C   UNL     1       2.116  -2.704  -2.299  0.00  0.00    +0.175 A 
ATOM     16  I   UNL     1       3.546  -5.057  -3.582  0.00  0.00    -0.040 I 
BRANCH  15  17
ATOM     17  O   UNL     1       2.858  -1.983  -3.178  0.00  0.00    -0.490 OA
ATOM     18  C   UNL     1       4.146  -1.548  -2.737  0.00  0.00    +0.277 C 
ENDBRANCH  15  17
BRANCH  10  19
ATOM     19  O   UNL     1       1.143  -0.696  -1.453  0.00  0.00    -0.489 OA
BRANCH  19  21
ATOM     20  C   UNL     1       0.254   1.424  -0.710  0.00  0.00    +0.048 C 
ATOM     21  C   UNL     1       0.234  -0.095  -0.529  0.00  0.00    +0.226 C 
ENDBRANCH  19  21
ENDBRANCH  10  19
ENDBRANCH   1  12
BRANCH   6  22
ATOM     22  C   UNL     1      -2.521  -9.301   0.502  0.00  0.00    +0.058 A 
ATOM     23  C   UNL     1      -2.888  -9.441   1.835  0.00  0.00    +0.025 A 
ATOM     24  C   UNL     1      -3.573 -10.566   2.247  0.00  0.00    +0.003 A 
ATOM     25  C   UNL     1      -3.894 -11.555   1.335  0.00  0.00    +0.020 A 
ATOM     26  C   UNL     1      -3.531 -11.419   0.006  0.00  0.00    +0.043 A 
ATOM     27  C   UNL     1      -2.850 -10.292  -0.413  0.00  0.00    +0.045 A 
ATOM     28 CL   UNL     1      -3.936 -12.663  -1.135  0.00  0.00    -0.083 Cl
ENDBRANCH   6  22
TORSDOF 5
