REMARK  Name = ZINC32969129
REMARK  11 active torsions:
REMARK  status: ('A' for Active; 'I' for Inactive)
REMARK    1  A    between atoms: C_1  and  O_2
REMARK    2  A    between atoms: O_2  and  C_3
REMARK    3  A    between atoms: C_6  and  C_9
REMARK    4  A    between atoms: C_9  and  C_11
REMARK    5  A    between atoms: C_9  and  N_28
REMARK    6  A    between atoms: C_11  and  N_12
REMARK    7  A    between atoms: C_13  and  C_15
REMARK    8  A    between atoms: C_15  and  C_16
REMARK    9  A    between atoms: C_16  and  N_17
REMARK   10  A    between atoms: N_17  and  S_18
REMARK   11  A    between atoms: S_18  and  C_21
REMARK                            x       y       z     vdW  Elec       q    Type
REMARK                         _______ _______ _______ _____ _____    ______ ____
ROOT
ATOM      1  N   UNL     1      -1.321   7.588  -4.535  0.00  0.00    -0.317 N 
ATOM      2  C   UNL     1      -0.761   7.688  -3.313  0.00  0.00    +0.214 C 
ATOM      3  O   UNL     1      -1.326   7.220  -2.347  0.00  0.00    -0.276 OA
ATOM      4  H   UNL     1      -0.810   8.013  -5.411  0.00  0.00    +0.149 HD
ENDROOT
BRANCH   1   5
ATOM      5  C   UNL     1      -2.612   6.914  -4.697  0.00  0.00    +0.093 C 
BRANCH   5   6
ATOM      6  C   UNL     1      -3.087   7.061  -6.143  0.00  0.00    -0.020 C 
BRANCH   6   7
ATOM      7  N   UNL     1      -4.344   6.323  -6.323  0.00  0.00    +0.385 N 
ATOM      8  C   UNL     1      -4.178   4.907  -5.973  0.00  0.00    -0.078 C 
ATOM      9  C   UNL     1      -5.536   4.203  -6.032  0.00  0.00    -0.019 C 
ATOM     10  C   UNL     1      -6.112   4.334  -7.444  0.00  0.00    -0.004 C 
ATOM     11  C   UNL     1      -6.230   5.818  -7.803  0.00  0.00    -0.019 C 
ATOM     12  C   UNL     1      -4.852   6.475  -7.693  0.00  0.00    -0.078 C 
ATOM     13  H   UNL     1      -5.091   6.752  -5.639  0.00  0.00    -0.081 HD
ENDBRANCH   6   7
BRANCH   6  17
ATOM     14  C   UNL     1      -3.723  11.195  -7.020  0.00  0.00    +0.120 A 
ATOM     15  C   UNL     1      -2.555  10.569  -7.431  0.00  0.00    +0.046 A 
ATOM     16  C   UNL     1      -2.351   9.233  -7.146  0.00  0.00    +0.005 A 
ATOM     17  C   UNL     1      -3.311   8.519  -6.452  0.00  0.00    -0.059 A 
ATOM     18  C   UNL     1      -4.479   9.138  -6.047  0.00  0.00    +0.005 A 
ATOM     19  C   UNL     1      -4.684  10.476  -6.324  0.00  0.00    +0.046 A 
BRANCH  14  21
ATOM     20  C   UNL     1      -5.152  13.087  -6.846  0.00  0.00    +0.277 C 
ATOM     21  O   UNL     1      -3.926  12.509  -7.300  0.00  0.00    -0.495 OA
ENDBRANCH  14  21
ENDBRANCH   6  17
ENDBRANCH   5   6
ENDBRANCH   1   5
BRANCH   2  22
ATOM     22  C   UNL     1       0.566   8.382  -3.147  0.00  0.00    +0.112 C 
BRANCH  22  23
ATOM     23  C   UNL     1       0.974   8.357  -1.673  0.00  0.00    +0.115 C 
BRANCH  23  24
ATOM     24  N   UNL     1       2.264   9.032  -1.512  0.00  0.00    -0.189 NA
ATOM     25  H   UNL     1       2.964   9.091  -2.358  0.00  0.00    +0.148 HD
BRANCH  24  26
ATOM     26  S   UNL     1       2.778   9.486  -0.004  0.00  0.00    +0.058 S 
ATOM     27  O   UNL     1       4.057  10.082  -0.174  0.00  0.00    -0.153 OA
ATOM     28  O   UNL     1       1.693  10.172   0.605  0.00  0.00    -0.153 OA
BRANCH  26  29
ATOM     29  C   UNL     1       3.029   8.012   0.927  0.00  0.00    +0.105 A 
ATOM     30  C   UNL     1       1.992   7.480   1.671  0.00  0.00    +0.029 A 
ATOM     31  C   UNL     1       2.187   6.321   2.398  0.00  0.00    +0.017 A 
ATOM     32  C   UNL     1       3.423   5.699   2.389  0.00  0.00    +0.018 A 
ATOM     33  C   UNL     1       4.461   6.234   1.649  0.00  0.00    +0.017 A 
ATOM     34  C   UNL     1       4.264   7.390   0.918  0.00  0.00    +0.029 A 
ATOM     35 BR   UNL     1       3.692   4.116   3.389  0.00  0.00    -0.050 Br
ENDBRANCH  26  29
ENDBRANCH  24  26
ENDBRANCH  23  24
ENDBRANCH  22  23
ENDBRANCH   2  22
TORSDOF 10
