REMARK  Name = ZINC13639884
REMARK  3 active torsions:
REMARK  status: ('A' for Active; 'I' for Inactive)
REMARK    1  A    between atoms: C_3  and  C_9
REMARK    2  A    between atoms: C_4  and  O_8
REMARK    3  A    between atoms: C_6  and  O_7
REMARK                            x       y       z     vdW  Elec       q    Type
REMARK                         _______ _______ _______ _____ _____    ______ ____
ROOT
ATOM      1  C   UNL     1       1.235  -2.187  -0.021  0.00  0.00    +0.108 C 
ATOM      2  C   UNL     1       1.037  -2.714   1.385  0.00  0.00    +0.029 C 
ATOM      3  C   UNL     1      -0.289  -2.405   2.090  0.00  0.00    +0.033 C 
ATOM      4  C   UNL     1      -0.426  -3.642   3.004  0.00  0.00    -0.030 C 
ATOM      5  C   UNL     1       0.250  -4.668   2.500  0.00  0.00    -0.023 C 
ATOM      6  C   UNL     1       0.843  -4.252   1.205  0.00  0.00    +0.050 C 
ATOM      7  C   UNL     1       2.131  -4.786   0.712  0.00  0.00    +0.002 A 
ATOM      8  C   UNL     1       2.903  -3.966  -0.115  0.00  0.00    +0.051 A 
ATOM      9  C   UNL     1       4.113  -4.466  -0.603  0.00  0.00    +0.064 A 
ATOM     10  C   UNL     1       4.541  -5.732  -0.268  0.00  0.00    +0.043 A 
ATOM     11  C   UNL     1       3.772  -6.531   0.561  0.00  0.00    +0.061 A 
ATOM     12  C   UNL     1       2.568  -6.051   1.047  0.00  0.00    +0.065 A 
ATOM     13 CL   UNL     1       1.601  -7.049   2.086  0.00  0.00    -0.082 Cl
ATOM     14 CL   UNL     1       4.315  -8.124   0.988  0.00  0.00    -0.082 Cl
ATOM     15 CL   UNL     1       5.089  -3.480  -1.646  0.00  0.00    -0.082 Cl
ATOM     16  N   UNL     1       2.547  -2.668  -0.483  0.00  0.00    -0.335 N 
ATOM     17  H   UNL     1       2.653  -2.531  -1.477  0.00  0.00    +0.147 HD
ENDROOT
BRANCH   1  20
ATOM     18  C   UNL     1       2.385   1.408  -0.013  0.00  0.00    +0.046 A 
ATOM     19  C   UNL     1       2.401   0.026  -0.021  0.00  0.00    +0.012 A 
ATOM     20  C   UNL     1       1.214  -0.680  -0.013  0.00  0.00    +0.015 A 
ATOM     21  C   UNL     1       0.002  -0.004   0.002  0.00  0.00    +0.125 A 
ATOM     22  C   UNL     1      -0.017   1.382   0.010  0.00  0.00    +0.091 A 
ATOM     23  C   UNL     1       1.176   2.089   0.002  0.00  0.00    +0.120 A 
BRANCH  23  24
ATOM     24  O   UNL     1       1.161   3.448   0.009  0.00  0.00    -0.507 OA
ATOM     25  H   UNL     1       1.165   3.837   0.894  0.00  0.00    +0.292 HD
ENDBRANCH  23  24
BRANCH  21  26
ATOM     26  O   UNL     1      -1.165  -0.700   0.009  0.00  0.00    -0.506 OA
ATOM     27  H   UNL     1      -1.511  -0.897  -0.872  0.00  0.00    +0.292 HD
ENDBRANCH  21  26
ENDBRANCH   1  20
TORSDOF 3
