REMARK  Name = ZINC39503270
REMARK  5 active torsions:
REMARK  status: ('A' for Active; 'I' for Inactive)
REMARK    1  A    between atoms: C_4  and  C_7
REMARK    2  A    between atoms: C_7  and  N_8
REMARK    3  A    between atoms: C_10  and  S_20
REMARK    4  A    between atoms: S_20  and  O_23
REMARK    5  A    between atoms: O_23  and  C_24
REMARK                            x       y       z     vdW  Elec       q    Type
REMARK                         _______ _______ _______ _____ _____    ______ ____
ROOT
ATOM      1  N   UNL     1       4.153  -0.953   1.342  0.00  0.00    +0.388 N 
ATOM      2  C   UNL     1       4.581   0.321   1.964  0.00  0.00    -0.048 C 
ATOM      3  C   UNL     1       5.784  -0.061   2.863  0.00  0.00    +0.154 C 
ATOM      4  C   UNL     1       6.481  -1.156   2.009  0.00  0.00    +0.016 C 
ATOM      5  C   UNL     1       5.298  -1.868   1.339  0.00  0.00    -0.062 C 
ATOM      6  C   UNL     1       4.963  -3.173   2.086  0.00  0.00    -0.011 C 
ATOM      7  C   UNL     1       5.987  -4.176   1.495  0.00  0.00    +0.013 C 
ATOM      8  C   UNL     1       6.093  -3.780   0.007  0.00  0.00    +0.055 C 
ATOM      9  C   UNL     1       5.662  -2.304  -0.087  0.00  0.00    +0.003 C 
ATOM     10 BR   UNL     1       7.947  -3.982  -0.613  0.00  0.00    -0.088 Br
ATOM     11  H   UNL     1       3.397  -1.355   1.876  0.00  0.00    -0.080 HD
ENDROOT
BRANCH   3  12
ATOM     12  S   UNL     1       6.881   1.361   3.118  0.00  0.00    +0.122 S 
ATOM     13  O   UNL     1       7.896   1.034   4.057  0.00  0.00    -0.137 OA
ATOM     14  O   UNL     1       7.213   1.953   1.870  0.00  0.00    -0.137 OA
BRANCH  12  15
ATOM     15  O   UNL     1       6.019   2.398   3.823  0.00  0.00    -0.346 OA
BRANCH  15  16
ATOM     16  C   UNL     1       5.789   2.126   5.135  0.00  0.00    +0.156 A 
ATOM     17  C   UNL     1       4.687   1.367   5.503  0.00  0.00    +0.048 A 
ATOM     18  C   UNL     1       4.455   1.091   6.837  0.00  0.00    +0.004 A 
ATOM     19  C   UNL     1       5.319   1.571   7.804  0.00  0.00    +0.000 A 
ATOM     20  C   UNL     1       6.417   2.328   7.439  0.00  0.00    +0.004 A 
ATOM     21  C   UNL     1       6.657   2.601   6.106  0.00  0.00    +0.048 A 
ENDBRANCH  15  16
ENDBRANCH  12  15
ENDBRANCH   3  12
BRANCH   1  22
ATOM     22  C   UNL     1       3.711  -0.707  -0.038  0.00  0.00    -0.042 C 
BRANCH  22  26
ATOM     23  C   UNL     1       0.361   1.943  -0.011  0.00  0.00    +0.000 A 
ATOM     24  C   UNL     1       1.645   2.452  -0.084  0.00  0.00    +0.000 A 
ATOM     25  C   UNL     1       2.729   1.594  -0.093  0.00  0.00    +0.002 A 
ATOM     26  C   UNL     1       2.529   0.228  -0.027  0.00  0.00    -0.064 A 
ATOM     27  C   UNL     1       1.246  -0.281   0.047  0.00  0.00    +0.002 A 
ATOM     28  C   UNL     1       0.162   0.577   0.054  0.00  0.00    +0.000 A 
ENDBRANCH  22  26
ENDBRANCH   1  22
TORSDOF 5
