REMARK  Name = ZINC63362750
REMARK  8 active torsions:
REMARK  status: ('A' for Active; 'I' for Inactive)
REMARK    1  A    between atoms: C_1  and  C_2
REMARK    2  A    between atoms: C_2  and  C_4
REMARK    3  A    between atoms: C_2  and  N_16
REMARK    4  A    between atoms: N_6  and  C_7
REMARK    5  A    between atoms: C_7  and  C_8
REMARK    6  A    between atoms: C_19  and  C_37
REMARK    7  A    between atoms: C_25  and  O_30
REMARK    8  A    between atoms: O_30  and  C_31
REMARK                            x       y       z     vdW  Elec       q    Type
REMARK                         _______ _______ _______ _____ _____    ______ ____
ROOT
ATOM      1  N   UNL     1      -1.372  -0.511   0.012  0.00  0.00    -0.212 N 
ATOM      2  C   UNL     1      -1.898  -1.296  -0.951  0.00  0.00    +0.249 C 
ATOM      3  O   UNL     1      -1.354  -1.673  -1.967  0.00  0.00    -0.273 OA
ATOM      4  C   UNL     1      -3.307  -1.609  -0.498  0.00  0.00    +0.136 C 
ATOM      5  C   UNL     1      -4.324  -1.122  -1.529  0.00  0.00    +0.139 C 
ATOM      6  C   UNL     1      -5.073   0.048  -0.907  0.00  0.00    -0.034 C 
ATOM      7  C   UNL     1      -4.927   1.071  -1.746  0.00  0.00    +0.003 A 
ATOM      8  C   UNL     1      -5.467   2.438  -1.727  0.00  0.00    +0.055 A 
ATOM      9  C   UNL     1      -5.104   3.252  -2.756  0.00  0.00    +0.121 A 
ATOM     10  C   UNL     1      -4.261   2.860  -3.806  0.00  0.00    +0.047 A 
ATOM     11  C   UNL     1      -3.711   1.624  -3.923  0.00  0.00    +0.029 A 
ATOM     12  C   UNL     1      -4.035   0.651  -2.870  0.00  0.00    +0.043 A 
ATOM     13  N   UNL     1      -3.673  -0.604  -2.734  0.00  0.00    -0.375 N 
ATOM     14  C   UNL     1      -5.755  -0.015   0.438  0.00  0.00    +0.052 C 
ATOM     15  C   UNL     1      -4.722  -0.569   1.439  0.00  0.00    +0.115 C 
ATOM     16  N   UNL     1      -3.465  -0.784   0.717  0.00  0.00    -0.269 N 
ATOM     17  C   UNL     1      -2.261  -0.257   0.983  0.00  0.00    +0.313 C 
ATOM     18  O   UNL     1      -2.006   0.380   1.986  0.00  0.00    -0.252 OA
ATOM     19  C   UNL     1      -3.475  -3.098  -0.188  0.00  0.00    +0.044 C 
ATOM     20  H   UNL     1      -3.080  -1.103  -3.318  0.00  0.00    +0.160 HD
ENDROOT
BRANCH   1  22
ATOM     21  C   UNL     1      -0.019   1.526   0.010  0.00  0.00    +0.038 C 
ATOM     22  C   UNL     1       0.002  -0.004   0.002  0.00  0.00    +0.168 C 
BRANCH  22  23
ATOM     23  C   UNL     1       0.731  -0.503   1.223  0.00  0.00    +0.234 C 
ATOM     24  O   UNL     1       0.159  -1.213   2.023  0.00  0.00    -0.274 OA
ATOM     25  N   UNL     1       2.019  -0.161   1.426  0.00  0.00    -0.310 N 
ATOM     26  H   UNL     1       2.476   0.406   0.786  0.00  0.00    +0.149 HD
BRANCH  25  27
ATOM     27  C   UNL     1       2.727  -0.647   2.613  0.00  0.00    +0.139 C 
BRANCH  27  28
ATOM     28  C   UNL     1       4.141  -0.125   2.602  0.00  0.00    -0.029 A 
ATOM     29  C   UNL     1       5.141  -0.853   1.985  0.00  0.00    +0.007 A 
ATOM     30  C   UNL     1       6.439  -0.376   1.974  0.00  0.00    +0.022 A 
ATOM     31  C   UNL     1       6.737   0.831   2.582  0.00  0.00    +0.059 A 
ATOM     32  C   UNL     1       5.735   1.560   3.200  0.00  0.00    +0.060 A 
ATOM     33  C   UNL     1       4.436   1.083   3.204  0.00  0.00    +0.026 A 
ATOM     34 CL   UNL     1       6.107   3.074   3.962  0.00  0.00    -0.082 Cl
ATOM     35 CL   UNL     1       8.366   1.430   2.570  0.00  0.00    -0.082 Cl
ENDBRANCH  27  28
ENDBRANCH  25  27
ENDBRANCH  22  23
ENDBRANCH   1  22
BRANCH   9  36
ATOM     36  O   UNL     1      -5.588   4.522  -2.767  0.00  0.00    -0.495 OA
ATOM     37  C   UNL     1      -5.193   5.358  -3.857  0.00  0.00    +0.277 C 
ENDBRANCH   9  36
TORSDOF 5
