REMARK  Name = ZINC39634935
REMARK  11 active torsions:
REMARK  status: ('A' for Active; 'I' for Inactive)
REMARK    1  A    between atoms: C_1  and  C_2
REMARK    2  A    between atoms: C_2  and  C_3
REMARK    3  A    between atoms: C_3  and  C_4
REMARK    4  A    between atoms: C_4  and  C_6
REMARK    5  A    between atoms: C_4  and  C_7
REMARK    6  A    between atoms: C_11  and  C_20
REMARK    7  A    between atoms: N_22  and  C_23
REMARK    8  A    between atoms: C_23  and  C_24
REMARK    9  A    between atoms: C_24  and  C_25
REMARK   10  A    between atoms: C_28  and  O_31
REMARK   11  A    between atoms: O_31  and  C_32
REMARK                            x       y       z     vdW  Elec       q    Type
REMARK                         _______ _______ _______ _____ _____    ______ ____
ROOT
ATOM      1  C   UNL     1      -2.739  -2.510  -0.421  0.00  0.00    +0.218 C 
ATOM      2  O   UNL     1      -3.692  -1.803  -0.669  0.00  0.00    -0.275 OA
ATOM      3  N   UNL     1      -2.911  -3.835  -0.241  0.00  0.00    -0.300 N 
ATOM      4  C   UNL     1      -1.900  -4.834   0.177  0.00  0.00    +0.121 C 
ATOM      5  C   UNL     1      -2.657  -5.778   1.137  0.00  0.00    +0.100 C 
ATOM      6  C   UNL     1      -4.137  -5.636   0.741  0.00  0.00    -0.004 C 
ATOM      7  C   UNL     1      -4.157  -4.620  -0.410  0.00  0.00    +0.115 C 
ATOM      8  C   UNL     1      -4.950  -5.106   1.918  0.00  0.00    -0.010 C 
ATOM      9  C   UNL     1      -6.426  -5.026   1.519  0.00  0.00    -0.082 C 
ATOM     10  N   UNL     1      -6.902  -6.360   1.130  0.00  0.00    +0.379 N 
ATOM     11  C   UNL     1      -6.177  -6.823  -0.060  0.00  0.00    -0.082 C 
ATOM     12  C   UNL     1      -4.691  -6.978   0.274  0.00  0.00    -0.010 C 
ATOM     13  H   UNL     1      -6.746  -7.005   1.890  0.00  0.00    -0.086 HD
ATOM     14  H   UNL     1      -7.889  -6.317   0.926  0.00  0.00    -0.086 HD
ENDROOT
BRANCH   5  15
ATOM     15  C   UNL     1      -2.451  -5.349   2.567  0.00  0.00    +0.218 C 
ATOM     16  O   UNL     1      -2.191  -4.192   2.821  0.00  0.00    -0.275 OA
ATOM     17  N   UNL     1      -2.554  -6.252   3.563  0.00  0.00    -0.315 N 
ATOM     18  H   UNL     1      -2.762  -7.177   3.359  0.00  0.00    +0.149 HD
BRANCH  17  19
ATOM     19  C   UNL     1      -2.353  -5.835   4.953  0.00  0.00    +0.109 C 
BRANCH  19  20
ATOM     20  C   UNL     1      -2.526  -7.041   5.877  0.00  0.00    +0.054 C 
BRANCH  20  21
ATOM     21  C   UNL     1      -2.319  -6.612   7.307  0.00  0.00    -0.046 A 
ATOM     22  C   UNL     1      -1.054  -6.652   7.863  0.00  0.00    +0.007 A 
ATOM     23  C   UNL     1      -0.862  -6.260   9.174  0.00  0.00    +0.046 A 
ATOM     24  C   UNL     1      -1.939  -5.825   9.932  0.00  0.00    +0.120 A 
ATOM     25  C   UNL     1      -3.208  -5.786   9.371  0.00  0.00    +0.046 A 
ATOM     26  C   UNL     1      -3.394  -6.175   8.059  0.00  0.00    +0.007 A 
BRANCH  24  27
ATOM     27  O   UNL     1      -1.753  -5.439  11.222  0.00  0.00    -0.495 OA
ATOM     28  C   UNL     1      -2.908  -5.004  11.942  0.00  0.00    +0.277 C 
ENDBRANCH  24  27
ENDBRANCH  20  21
ENDBRANCH  19  20
ENDBRANCH  17  19
ENDBRANCH   5  15
BRANCH   1  29
ATOM     29  C   UNL     1      -1.361  -1.909  -0.315  0.00  0.00    +0.072 C 
ATOM     30  C   UNL     1      -1.462  -0.506   0.289  0.00  0.00    +0.017 C 
BRANCH  29  31
ATOM     31  C   UNL     1      -0.734  -1.820  -1.708  0.00  0.00    +0.012 C 
BRANCH  31  33
ATOM     32  C   UNL     1       1.335  -1.238  -2.980  0.00  0.00    +0.004 C 
ATOM     33  C   UNL     1       0.709  -1.326  -1.587  0.00  0.00    -0.003 C 
ENDBRANCH  31  33
ENDBRANCH  29  31
ENDBRANCH   1  29
TORSDOF 8
