REMARK  Name = ZINC60082636
REMARK  12 active torsions:
REMARK  status: ('A' for Active; 'I' for Inactive)
REMARK    1  A    between atoms: C_1  and  C_2
REMARK    2  A    between atoms: C_2  and  C_3
REMARK    3  A    between atoms: C_2  and  C_4
REMARK    4  A    between atoms: C_4  and  C_5
REMARK    5  A    between atoms: C_5  and  C_7
REMARK    6  A    between atoms: C_5  and  N_25
REMARK    7  A    between atoms: N_9  and  C_10
REMARK    8  A    between atoms: C_10  and  C_11
REMARK    9  A    between atoms: C_11  and  C_13
REMARK   10  A    between atoms: C_11  and  N_20
REMARK   11  A    between atoms: C_26  and  O_28
REMARK   12  A    between atoms: O_28  and  C_29
REMARK                            x       y       z     vdW  Elec       q    Type
REMARK                         _______ _______ _______ _____ _____    ______ ____
ROOT
ATOM      1  C   UNL     1      -2.739  -2.771   0.097  0.00  0.00    +0.233 C 
ATOM      2  O   UNL     1      -3.143  -3.589  -0.703  0.00  0.00    -0.274 OA
ATOM      3  N   UNL     1      -3.498  -2.437   1.160  0.00  0.00    -0.315 N 
ATOM      4  H   UNL     1      -3.175  -1.783   1.799  0.00  0.00    +0.149 HD
ENDROOT
BRANCH   1   5
ATOM      5  C   UNL     1      -1.390  -2.129  -0.097  0.00  0.00    +0.162 C 
BRANCH   5   6
ATOM      6  N   UNL     1      -0.769  -2.657  -1.315  0.00  0.00    -0.270 N 
ATOM      7  C   UNL     1       0.573  -2.648  -1.445  0.00  0.00    +0.401 C 
ATOM      8  O   UNL     1       1.267  -2.202  -0.553  0.00  0.00    -0.226 OA
ATOM      9  H   UNL     1      -1.323  -3.013  -2.027  0.00  0.00    +0.153 HD
BRANCH   7  10
ATOM     10  O   UNL     1       1.143  -3.132  -2.564  0.00  0.00    -0.454 OA
ATOM     11  C   UNL     1       2.570  -3.091  -2.635  0.00  0.00    +0.282 C 
ENDBRANCH   7  10
ENDBRANCH   5   6
BRANCH   5  12
ATOM     12  C   UNL     1      -1.560  -0.614  -0.226  0.00  0.00    +0.035 C 
BRANCH  12  14
ATOM     13  C   UNL     1      -0.351   1.548  -0.553  0.00  0.00    +0.007 C 
ATOM     14  C   UNL     1      -0.182   0.049  -0.298  0.00  0.00    -0.015 C 
ATOM     15  C   UNL     1       0.556  -0.164   1.024  0.00  0.00    +0.007 C 
ENDBRANCH  12  14
ENDBRANCH   5  12
ENDBRANCH   1   5
BRANCH   3  16
ATOM     16  C   UNL     1      -4.810  -3.061   1.349  0.00  0.00    +0.093 C 
BRANCH  16  17
ATOM     17  C   UNL     1      -5.400  -2.612   2.687  0.00  0.00    -0.020 C 
BRANCH  17  18
ATOM     18  C   UNL     1      -4.552  -3.144   3.813  0.00  0.00    -0.058 A 
ATOM     19  C   UNL     1      -4.692  -4.457   4.224  0.00  0.00    +0.002 A 
ATOM     20  C   UNL     1      -3.914  -4.945   5.257  0.00  0.00    +0.002 A 
ATOM     21  C   UNL     1      -2.996  -4.121   5.880  0.00  0.00    +0.020 A 
ATOM     22  C   UNL     1      -2.855  -2.808   5.470  0.00  0.00    +0.041 A 
ATOM     23  C   UNL     1      -3.630  -2.321   4.431  0.00  0.00    +0.022 A 
ATOM     24 CL   UNL     1      -1.702  -1.772   6.252  0.00  0.00    -0.084 Cl
ENDBRANCH  17  18
BRANCH  17  25
ATOM     25  N   UNL     1      -6.768  -3.131   2.817  0.00  0.00    +0.385 N 
ATOM     26  C   UNL     1      -7.362  -2.692   4.106  0.00  0.00    -0.078 C 
ATOM     27  C   UNL     1      -8.886  -2.807   3.852  0.00  0.00    -0.020 C 
ATOM     28  C   UNL     1      -9.026  -2.353   2.381  0.00  0.00    -0.020 C 
ATOM     29  C   UNL     1      -7.632  -2.562   1.761  0.00  0.00    -0.078 C 
ATOM     30  H   UNL     1      -6.766  -4.138   2.760  0.00  0.00    -0.081 HD
ENDBRANCH  17  25
ENDBRANCH  16  17
ENDBRANCH   3  16
TORSDOF 9
