REMARK  Name = ZINC40732008
REMARK  3 active torsions:
REMARK  status: ('A' for Active; 'I' for Inactive)
REMARK    1  A    between atoms: C_1  and  C_2
REMARK    2  A    between atoms: C_10  and  N_21
REMARK    3  A    between atoms: C_11  and  N_15
REMARK                            x       y       z     vdW  Elec       q    Type
REMARK                         _______ _______ _______ _____ _____    ______ ____
ROOT
ATOM      1  C   UNL     1      -1.339  -0.646   2.569  0.00  0.00    +0.028 C 
ATOM      2  C   UNL     1      -0.595  -1.193   1.349  0.00  0.00    +0.072 C 
ATOM      3  C   UNL     1      -1.482  -1.063   0.106  0.00  0.00    +0.022 C 
ATOM      4  C   UNL     1      -0.684  -1.481  -1.131  0.00  0.00    +0.003 C 
ATOM      5  C   UNL     1       0.522  -0.554  -1.299  0.00  0.00    +0.019 C 
ATOM      6  C   UNL     1       1.431  -0.678  -0.073  0.00  0.00    +0.107 C 
ATOM      7  N   UNL     1       0.637  -0.421   1.137  0.00  0.00    -0.311 N 
ATOM      8  C   UNL     1       1.041   0.536   2.060  0.00  0.00    +0.147 A 
ATOM      9  C   UNL     1       1.895   0.192   3.110  0.00  0.00    +0.106 A 
ATOM     10  C   UNL     1       2.270   1.192   4.009  0.00  0.00    +0.150 A 
ATOM     11  N   UNL     1       1.803   2.426   3.832  0.00  0.00    -0.219 NA
ATOM     12  C   UNL     1       0.999   2.708   2.828  0.00  0.00    +0.225 A 
ATOM     13  N   UNL     1       0.625   1.795   1.954  0.00  0.00    -0.219 NA
ENDROOT
BRANCH  10  14
ATOM     14  N   UNL     1       3.118   0.903   5.073  0.00  0.00    -0.277 N 
ATOM     15  C   UNL     1       3.484   1.905   5.960  0.00  0.00    +0.163 A 
ATOM     16  N   UNL     1       3.126   3.171   5.956  0.00  0.00    -0.233 NA
ATOM     17  C   UNL     1       3.565   4.007   6.880  0.00  0.00    +0.120 A 
ATOM     18  C   UNL     1       4.395   3.501   7.824  0.00  0.00    +0.068 A 
ATOM     19  S   UNL     1       4.487   1.794   7.306  0.00  0.00    -0.061 S 
ATOM     20  H   UNL     1       3.453   0.001   5.195  0.00  0.00    +0.156 HD
ENDBRANCH  10  14
BRANCH   9  21
ATOM     21  N   UNL     1       2.362  -1.124   3.258  0.00  0.00    -0.353 N 
ATOM     22  H   UNL     1       2.165  -1.788   2.579  0.00  0.00    +0.143 HD
ATOM     23  H   UNL     1       2.884  -1.368   4.039  0.00  0.00    +0.143 HD
ENDBRANCH   9  21
TORSDOF 2
