REMARK  Name = ZINC17729548
REMARK  11 active torsions:
REMARK  status: ('A' for Active; 'I' for Inactive)
REMARK    1  A    between atoms: C_1  and  C_2
REMARK    2  A    between atoms: C_2  and  C_3
REMARK    3  A    between atoms: C_3  and  C_4
REMARK    4  A    between atoms: C_4  and  C_5
REMARK    5  A    between atoms: C_5  and  C_6
REMARK    6  A    between atoms: C_6  and  C_7
REMARK    7  A    between atoms: C_12  and  O_13
REMARK    8  A    between atoms: O_13  and  C_14
REMARK    9  A    between atoms: C_14  and  C_16
REMARK   10  A    between atoms: C_23  and  C_26
REMARK   11  A    between atoms: C_28  and  C_31
REMARK                            x       y       z     vdW  Elec       q    Type
REMARK                         _______ _______ _______ _____ _____    ______ ____
ROOT
ATOM      1  C   UNL     1       0.064  -2.800  -0.148  0.00  0.00    -0.004 A 
ATOM      2  C   UNL     1       1.246  -2.115  -0.159  0.00  0.00    +0.022 A 
ATOM      3  C   UNL     1       1.242  -0.727  -0.022  0.00  0.00    +0.065 A 
ATOM      4  C   UNL     1       0.030  -0.030   0.127  0.00  0.00    +0.142 A 
ATOM      5  C   UNL     1      -1.162  -0.742   0.136  0.00  0.00    +0.093 A 
ATOM      6  C   UNL     1      -1.142  -2.120  -0.001  0.00  0.00    +0.138 A 
ATOM      7  O   UNL     1       0.028   1.311   0.260  0.00  0.00    -0.462 OA
ATOM      8  C   UNL     1       1.139   2.051   0.259  0.00  0.00    +0.210 A 
ATOM      9  C   UNL     1       2.379   1.507   0.123  0.00  0.00    +0.089 A 
ATOM     10  C   UNL     1       2.498   0.046  -0.029  0.00  0.00    +0.202 A 
ATOM     11  O   UNL     1       3.582  -0.498  -0.155  0.00  0.00    -0.286 OA
ENDROOT
BRANCH   9  12
ATOM     12  C   UNL     1       3.582   2.365   0.128  0.00  0.00    +0.115 A 
ATOM     13  N   UNL     1       3.677   3.682   0.252  0.00  0.00    -0.244 NA
ATOM     14  C   UNL     1       4.843   4.285   0.234  0.00  0.00    +0.046 A 
ATOM     15  C   UNL     1       5.980   3.557   0.086  0.00  0.00    +0.070 A 
ATOM     16  S   UNL     1       5.303   1.905  -0.024  0.00  0.00    -0.075 S 
ATOM     17  C   UNL     1       4.920   5.783   0.376  0.00  0.00    +0.066 C 
ENDBRANCH   9  12
BRANCH   1  18
ATOM     18  C   UNL     1       0.066  -4.300  -0.296  0.00  0.00    +0.039 C 
BRANCH  18  19
ATOM     19  C   UNL     1      -0.153  -4.668  -1.765  0.00  0.00    +0.005 C 
BRANCH  19  20
ATOM     20  C   UNL     1      -0.152  -6.191  -1.915  0.00  0.00    +0.000 C 
BRANCH  20  21
ATOM     21  C   UNL     1      -0.371  -6.559  -3.384  0.00  0.00    -0.000 C 
BRANCH  21  23
ATOM     22  C   UNL     1      -0.588  -8.450  -5.002  0.00  0.00    +0.004 C 
ATOM     23  C   UNL     1      -0.369  -8.082  -3.534  0.00  0.00    -0.003 C 
ENDBRANCH  21  23
ENDBRANCH  20  21
ENDBRANCH  19  20
ENDBRANCH  18  19
ENDBRANCH   1  18
BRANCH   6  24
ATOM     24  O   UNL     1      -2.309  -2.814   0.007  0.00  0.00    -0.427 OA
BRANCH  24  25
ATOM     25  C   UNL     1      -2.712  -3.314   1.187  0.00  0.00    +0.298 C 
ATOM     26  O   UNL     1      -2.099  -3.054   2.195  0.00  0.00    -0.252 OA
BRANCH  25  27
ATOM     27  C   UNL     1      -3.930  -4.200   1.253  0.00  0.00    +0.040 C 
ATOM     28  C   UNL     1      -3.562  -5.652   0.859  0.00  0.00    -0.007 C 
ATOM     29  C   UNL     1      -4.680  -6.461   1.572  0.00  0.00    -0.020 C 
ATOM     30  C   UNL     1      -4.906  -5.668   2.877  0.00  0.00    -0.082 C 
ATOM     31  N   UNL     1      -4.421  -4.301   2.640  0.00  0.00    +0.388 N 
ATOM     32  H   UNL     1      -5.188  -3.633   2.783  0.00  0.00    -0.085 HD
ATOM     33  H   UNL     1      -3.657  -4.088   3.292  0.00  0.00    -0.085 HD
ENDBRANCH  25  27
ENDBRANCH  24  25
ENDBRANCH   6  24
TORSDOF 9
