REMARK  Name = ZINC54624348
REMARK  11 active torsions:
REMARK  status: ('A' for Active; 'I' for Inactive)
REMARK    1  A    between atoms: C_1  and  C_2
REMARK    2  A    between atoms: C_2  and  C_3
REMARK    3  A    between atoms: C_3  and  O_4
REMARK    4  A    between atoms: O_4  and  C_5
REMARK    5  A    between atoms: C_8  and  C_14
REMARK    6  A    between atoms: C_10  and  O_11
REMARK    7  A    between atoms: O_11  and  C_12
REMARK    8  A    between atoms: C_12  and  C_13
REMARK    9  A    between atoms: C_27  and  S_29
REMARK   10  A    between atoms: S_29  and  C_30
REMARK   11  A    between atoms: C_30  and  C_31
REMARK                            x       y       z     vdW  Elec       q    Type
REMARK                         _______ _______ _______ _____ _____    ______ ____
ROOT
ATOM      1  C   UNL     1       3.243  -4.423  -5.653  0.00  0.00    +0.176 C 
ATOM      2  C   UNL     1       4.695  -4.003  -5.706  0.00  0.00    +0.041 C 
ATOM      3  C   UNL     1       5.158  -3.135  -6.631  0.00  0.00    +0.020 C 
ATOM      4  C   UNL     1       6.614  -2.734  -6.661  0.00  0.00    +0.052 C 
ATOM      5  C   UNL     1       7.187  -2.770  -5.243  0.00  0.00    +0.014 C 
ATOM      6  C   UNL     1       7.013  -4.188  -4.688  0.00  0.00    +0.080 C 
ATOM      7  C   UNL     1       5.557  -4.557  -4.743  0.00  0.00    +0.163 C 
ATOM      8  O   UNL     1       5.115  -5.352  -3.937  0.00  0.00    -0.292 OA
ATOM      9  N   UNL     1       4.334  -2.585  -7.584  0.00  0.00    -0.287 N 
ATOM     10  C   UNL     1       3.090  -3.161  -7.779  0.00  0.00    +0.219 A 
ATOM     11  N   UNL     1       2.567  -4.030  -6.883  0.00  0.00    -0.220 N 
ATOM     12  N   UNL     1       1.325  -4.418  -7.386  0.00  0.00    -0.141 NA
ATOM     13  C   UNL     1       1.162  -3.778  -8.524  0.00  0.00    +0.211 A 
ATOM     14  N   UNL     1       2.235  -3.018  -8.755  0.00  0.00    -0.187 NA
ATOM     15  H   UNL     1       4.616  -1.816  -8.104  0.00  0.00    +0.155 HD
ENDROOT
BRANCH   1  19
ATOM     16  C   UNL     1       1.342  -2.530  -2.323  0.00  0.00    +0.162 A 
ATOM     17  C   UNL     1       1.908  -1.763  -3.329  0.00  0.00    +0.050 A 
ATOM     18  C   UNL     1       2.522  -2.378  -4.404  0.00  0.00    +0.010 A 
ATOM     19  C   UNL     1       2.573  -3.758  -4.479  0.00  0.00    -0.015 A 
ATOM     20  C   UNL     1       2.009  -4.529  -3.479  0.00  0.00    +0.055 A 
ATOM     21  C   UNL     1       1.397  -3.918  -2.396  0.00  0.00    +0.162 A 
BRANCH  16  22
ATOM     22  O   UNL     1       0.738  -1.926  -1.265  0.00  0.00    -0.488 OA
BRANCH  22  23
ATOM     23  C   UNL     1       0.718  -0.497  -1.257  0.00  0.00    +0.229 C 
BRANCH  23  25
ATOM     24  C   UNL     1      -0.019   1.526   0.010  0.00  0.00    +0.007 C 
ATOM     25  C   UNL     1       0.002  -0.004   0.002  0.00  0.00    +0.038 C 
ENDBRANCH  23  25
ENDBRANCH  22  23
ENDBRANCH  16  22
BRANCH  21  26
ATOM     26  O   UNL     1       0.847  -4.675  -1.408  0.00  0.00    -0.489 OA
BRANCH  26  27
ATOM     27  C   UNL     1       0.942  -6.094  -1.549  0.00  0.00    +0.226 C 
ATOM     28  C   UNL     1       0.273  -6.771  -0.352  0.00  0.00    +0.048 C 
ENDBRANCH  26  27
ENDBRANCH  21  26
ENDBRANCH   1  19
BRANCH  13  29
ATOM     29  S   UNL     1      -0.246  -3.905  -9.576  0.00  0.00    -0.080 S 
BRANCH  29  30
ATOM     30  C   UNL     1       0.138  -2.796 -10.959  0.00  0.00    +0.114 C 
BRANCH  30  31
ATOM     31  C   UNL     1      -1.001  -2.811 -11.946  0.00  0.00    -0.019 A 
ATOM     32  C   UNL     1      -1.008  -3.729 -12.979  0.00  0.00    +0.006 A 
ATOM     33  C   UNL     1      -2.053  -3.743 -13.884  0.00  0.00    +0.000 A 
ATOM     34  C   UNL     1      -3.091  -2.839 -13.757  0.00  0.00    +0.001 A 
ATOM     35  C   UNL     1      -3.085  -1.921 -12.724  0.00  0.00    +0.020 A 
ATOM     36  C   UNL     1      -2.043  -1.910 -11.814  0.00  0.00    +0.045 A 
ATOM     37 CL   UNL     1      -2.038  -0.761 -10.513  0.00  0.00    -0.083 Cl
ENDBRANCH  30  31
ENDBRANCH  29  30
ENDBRANCH  13  29
TORSDOF 9
