REMARK  Name = ZINC24172775
REMARK  13 active torsions:
REMARK  status: ('A' for Active; 'I' for Inactive)
REMARK    1  A    between atoms: C_1  and  C_2
REMARK    2  A    between atoms: C_2  and  C_3
REMARK    3  A    between atoms: C_3  and  C_5
REMARK    4  A    between atoms: C_3  and  C_6
REMARK    5  A    between atoms: C_6  and  C_7
REMARK    6  A    between atoms: C_8  and  C_32
REMARK    7  A    between atoms: C_16  and  S_18
REMARK    8  A    between atoms: S_18  and  C_19
REMARK    9  A    between atoms: C_19  and  C_20
REMARK   10  A    between atoms: C_20  and  O_21
REMARK   11  A    between atoms: O_21  and  C_22
REMARK   12  A    between atoms: C_25  and  S_28
REMARK   13  A    between atoms: S_28  and  N_31
REMARK                            x       y       z     vdW  Elec       q    Type
REMARK                         _______ _______ _______ _____ _____    ______ ____
ROOT
ATOM      1  C   UNL     1      -3.392   3.416   6.856  0.00  0.00    -0.023 A 
ATOM      2  C   UNL     1      -4.407   4.114   6.325  0.00  0.00    -0.007 A 
ATOM      3  S   UNL     1      -4.156   3.938   4.569  0.00  0.00    -0.073 S 
ATOM      4  C   UNL     1      -2.694   2.933   4.599  0.00  0.00    +0.117 A 
ATOM      5  C   UNL     1      -2.442   2.762   5.973  0.00  0.00    +0.075 A 
ATOM      6  C   UNL     1      -1.294   1.973   6.301  0.00  0.00    +0.261 A 
ATOM      7  O   UNL     1      -0.998   1.771   7.466  0.00  0.00    -0.267 OA
ATOM      8  N   UNL     1      -0.550   1.454   5.308  0.00  0.00    -0.301 N 
ATOM      9  H   UNL     1       0.331   0.839   5.545  0.00  0.00    +0.171 HD
ATOM     10  C   UNL     1      -0.864   1.675   3.998  0.00  0.00    +0.170 A 
ATOM     11  N   UNL     1      -1.915   2.397   3.667  0.00  0.00    -0.216 NA
ATOM     12  C   UNL     1      -5.499   4.865   7.042  0.00  0.00    +0.052 C 
ENDROOT
BRANCH   1  13
ATOM     13  C   UNL     1      -3.238   3.313   8.352  0.00  0.00    +0.040 C 
BRANCH  13  14
ATOM     14  C   UNL     1      -4.003   2.089   8.860  0.00  0.00    -0.010 C 
ATOM     15  C   UNL     1      -5.501   2.288   8.620  0.00  0.00    +0.008 C 
BRANCH  14  17
ATOM     16  C   UNL     1      -4.407   0.620  10.840  0.00  0.00    +0.004 C 
ATOM     17  C   UNL     1      -3.745   1.912  10.358  0.00  0.00    +0.000 C 
ENDBRANCH  14  17
ENDBRANCH  13  14
ENDBRANCH   1  13
BRANCH  10  18
ATOM     18  S   UNL     1       0.147   0.980   2.733  0.00  0.00    -0.084 S 
BRANCH  18  19
ATOM     19  C   UNL     1      -0.729   1.579   1.267  0.00  0.00    +0.118 C 
BRANCH  19  20
ATOM     20  C   UNL     1      -0.013   1.086   0.008  0.00  0.00    +0.240 C 
BRANCH  20  21
ATOM     21  O   UNL     1      -0.704   1.559  -1.150  0.00  0.00    -0.491 OA
BRANCH  21  22
ATOM     22  C   UNL     1      -0.194   1.208  -2.359  0.00  0.00    +0.121 A 
ATOM     23  C   UNL     1       0.951   0.428  -2.431  0.00  0.00    +0.047 A 
ATOM     24  C   UNL     1       1.464   0.067  -3.662  0.00  0.00    +0.032 A 
ATOM     25  C   UNL     1       0.844   0.492  -4.822  0.00  0.00    +0.105 A 
ATOM     26  C   UNL     1      -0.294   1.274  -4.753  0.00  0.00    +0.032 A 
ATOM     27  C   UNL     1      -0.815   1.633  -3.525  0.00  0.00    +0.047 A 
BRANCH  25  28
ATOM     28  S   UNL     1       1.505   0.036  -6.390  0.00  0.00    +0.056 S 
ATOM     29  O   UNL     1       2.259  -1.151  -6.184  0.00  0.00    -0.153 OA
ATOM     30  O   UNL     1       0.431   0.104  -7.319  0.00  0.00    -0.153 OA
BRANCH  28  31
ATOM     31  N   UNL     1       2.584   1.213  -6.828  0.00  0.00    -0.204 NA
ATOM     32  H   UNL     1       3.021   0.965  -7.806  0.00  0.00    +0.144 HD
ATOM     33  H   UNL     1       3.383   1.276  -6.074  0.00  0.00    +0.144 HD
ENDBRANCH  28  31
ENDBRANCH  25  28
ENDBRANCH  21  22
ENDBRANCH  20  21
ENDBRANCH  19  20
ENDBRANCH  18  19
ENDBRANCH  10  18
TORSDOF 10
