REMARK  Name = ZINC14530711
REMARK  8 active torsions:
REMARK  status: ('A' for Active; 'I' for Inactive)
REMARK    1  A    between atoms: C_1  and  N_2
REMARK    2  A    between atoms: C_4  and  C_7
REMARK    3  A    between atoms: C_7  and  N_8
REMARK    4  A    between atoms: C_10  and  O_27
REMARK    5  A    between atoms: C_16  and  C_17
REMARK    6  A    between atoms: C_16  and  N_63
REMARK    7  A    between atoms: O_27  and  C_28
REMARK    8  A    between atoms: C_28  and  C_29
REMARK                            x       y       z     vdW  Elec       q    Type
REMARK                         _______ _______ _______ _____ _____    ______ ____
ROOT
ATOM      1  N   UNL     1       2.545   1.796  -1.340  0.00  0.00    -0.296 N 
ATOM      2  C   UNL     1       3.501   0.762  -1.770  0.00  0.00    +0.137 C 
ATOM      3  C   UNL     1       2.901   0.016  -2.966  0.00  0.00    +0.120 C 
ATOM      4  C   UNL     1       1.997  -1.109  -2.500  0.00  0.00    -0.044 C 
ATOM      5  C   UNL     1       1.083  -0.024  -0.523  0.00  0.00    +0.019 C 
ATOM      6  C   UNL     1       1.398   1.438  -0.756  0.00  0.00    +0.199 C 
ATOM      7  O   UNL     1       0.603   2.289  -0.415  0.00  0.00    -0.278 OA
ATOM      8  N   UNL     1       0.766  -0.633  -1.839  0.00  0.00    +0.390 N 
ATOM      9  H   UNL     1       0.325   0.079  -2.433  0.00  0.00    -0.081 HD
ENDROOT
BRANCH   1  10
ATOM     10  C   UNL     1       2.850   3.212  -1.553  0.00  0.00    +0.146 C 
BRANCH  10  14
ATOM     11  C   UNL     1       3.852   5.310   2.887  0.00  0.00    +0.172 C 
ATOM     12  N   UNL     1       4.016   4.668   1.580  0.00  0.00    -0.274 N 
ATOM     13  C   UNL     1       3.021   4.319   0.737  0.00  0.00    +0.113 A 
ATOM     14  C   UNL     1       3.586   3.753  -0.355  0.00  0.00    +0.007 A 
ATOM     15  C   UNL     1       4.973   3.765  -0.177  0.00  0.00    +0.139 A 
ATOM     16  N   UNL     1       5.232   4.313   0.983  0.00  0.00    -0.180 NA
ENDBRANCH  10  14
ENDBRANCH   1  10
BRANCH   8  17
ATOM     17  C   UNL     1      -0.172  -1.753  -1.663  0.00  0.00    -0.042 C 
BRANCH  17  18
ATOM     18  C   UNL     1       0.435  -2.837  -0.810  0.00  0.00    -0.056 A 
ATOM     19  C   UNL     1       0.250  -2.830   0.538  0.00  0.00    +0.002 A 
ATOM     20  C   UNL     1       0.797  -3.828   1.342  0.00  0.00    +0.001 A 
ATOM     21  C   UNL     1       1.544  -4.831   0.804  0.00  0.00    +0.008 A 
ATOM     22  C   UNL     1       1.763  -4.867  -0.583  0.00  0.00    -0.018 A 
ATOM     23  C   UNL     1       1.200  -3.856  -1.402  0.00  0.00    -0.017 A 
ATOM     24  C   UNL     1       1.419  -3.892  -2.790  0.00  0.00    +0.009 A 
ATOM     25  C   UNL     1       2.166  -4.895  -3.328  0.00  0.00    +0.001 A 
ATOM     26  C   UNL     1       2.719  -5.889  -2.523  0.00  0.00    +0.001 A 
ATOM     27  C   UNL     1       2.528  -5.887  -1.175  0.00  0.00    +0.008 A 
ENDBRANCH  17  18
ENDBRANCH   8  17
BRANCH   3  28
ATOM     28  O   UNL     1       3.958  -0.528  -3.759  0.00  0.00    -0.372 OA
BRANCH  28  29
ATOM     29  C   UNL     1       4.445   0.360  -4.767  0.00  0.00    +0.197 C 
BRANCH  29  30
ATOM     30  C   UNL     1       5.551  -0.313  -5.538  0.00  0.00    -0.004 A 
ATOM     31  C   UNL     1       6.870  -0.186  -5.130  0.00  0.00    +0.009 A 
ATOM     32  C   UNL     1       7.854  -0.827  -5.867  0.00  0.00    +0.020 A 
ATOM     33  C   UNL     1       7.491  -1.557  -6.983  0.00  0.00    +0.111 A 
ATOM     34  N   UNL     1       6.226  -1.651  -7.346  0.00  0.00    -0.263 NA
ATOM     35  C   UNL     1       5.264  -1.059  -6.665  0.00  0.00    +0.116 A 
ENDBRANCH  29  30
ENDBRANCH  28  29
ENDBRANCH   3  28
TORSDOF 7
