REMARK  Name = ZINC39675181
REMARK  13 active torsions:
REMARK  status: ('A' for Active; 'I' for Inactive)
REMARK    1  A    between atoms: C_1  and  C_2
REMARK    2  A    between atoms: C_2  and  C_4
REMARK    3  A    between atoms: C_2  and  N_14
REMARK    4  A    between atoms: C_4  and  C_5
REMARK    5  A    between atoms: C_5  and  C_6
REMARK    6  A    between atoms: C_9  and  O_12
REMARK    7  A    between atoms: O_12  and  C_13
REMARK    8  A    between atoms: C_15  and  C_17
REMARK    9  A    between atoms: C_28  and  C_30
REMARK   10  A    between atoms: C_32  and  O_38
REMARK   11  A    between atoms: C_34  and  O_36
REMARK   12  A    between atoms: O_36  and  C_37
REMARK   13  A    between atoms: O_38  and  C_39
REMARK                            x       y       z     vdW  Elec       q    Type
REMARK                         _______ _______ _______ _____ _____    ______ ____
ROOT
ATOM      1  C   UNL     1       1.676  -1.972   0.753  0.00  0.00    +0.100 C 
ATOM      2  C   UNL     1       0.500  -2.967   0.875  0.00  0.00    +0.121 C 
ATOM      3  N   UNL     1       0.501  -3.708  -0.409  0.00  0.00    -0.296 N 
ATOM      4  C   UNL     1       1.937  -3.916  -0.713  0.00  0.00    +0.115 C 
ATOM      5  C   UNL     1       2.619  -2.600  -0.287  0.00  0.00    -0.004 C 
ATOM      6  C   UNL     1       3.980  -2.889   0.339  0.00  0.00    -0.010 C 
ATOM      7  C   UNL     1       4.918  -3.459  -0.729  0.00  0.00    -0.082 C 
ATOM      8  N   UNL     1       5.056  -2.494  -1.827  0.00  0.00    +0.379 N 
ATOM      9  C   UNL     1       3.759  -2.293  -2.483  0.00  0.00    -0.082 C 
ATOM     10  C   UNL     1       2.772  -1.674  -1.490  0.00  0.00    -0.010 C 
ATOM     11  C   UNL     1      -0.563  -4.102  -1.135  0.00  0.00    +0.247 C 
ATOM     12  O   UNL     1      -0.397  -4.685  -2.189  0.00  0.00    -0.270 OA
ATOM     13  H   UNL     1       5.386  -1.614  -1.459  0.00  0.00    -0.086 HD
ATOM     14  H   UNL     1       5.721  -2.845  -2.499  0.00  0.00    -0.086 HD
ENDROOT
BRANCH  11  15
ATOM     15  C   UNL     1      -1.932  -3.827  -0.651  0.00  0.00    +0.044 A 
ATOM     16  C   UNL     1      -2.391  -2.513  -0.559  0.00  0.00    +0.059 A 
ATOM     17  C   UNL     1      -3.675  -2.260  -0.105  0.00  0.00    +0.124 A 
ATOM     18  C   UNL     1      -4.504  -3.311   0.259  0.00  0.00    +0.091 A 
ATOM     19  C   UNL     1      -4.052  -4.619   0.169  0.00  0.00    +0.124 A 
ATOM     20  C   UNL     1      -2.771  -4.882  -0.289  0.00  0.00    +0.059 A 
BRANCH  19  21
ATOM     21  O   UNL     1      -4.868  -5.646   0.527  0.00  0.00    -0.495 OA
ATOM     22  C   UNL     1      -6.177  -5.303   0.986  0.00  0.00    +0.277 C 
ENDBRANCH  19  21
BRANCH  17  23
ATOM     23  O   UNL     1      -4.123  -0.980  -0.015  0.00  0.00    -0.495 OA
ATOM     24  C   UNL     1      -5.417  -0.784   0.558  0.00  0.00    +0.277 C 
ENDBRANCH  17  23
ENDBRANCH  11  15
BRANCH   1  26
ATOM     25  N   UNL     1       1.880   0.485   0.554  0.00  0.00    -0.312 N 
ATOM     26  C   UNL     1       1.182  -0.632   0.271  0.00  0.00    +0.218 C 
ATOM     27  O   UNL     1       0.155  -0.560  -0.371  0.00  0.00    -0.275 OA
ATOM     28  H   UNL     1       2.736   0.420   1.005  0.00  0.00    +0.149 HD
BRANCH  25  30
ATOM     29  C   UNL     1       1.734   2.114  -1.264  0.00  0.00    +0.028 C 
ATOM     30  C   UNL     1       1.345   1.797   0.181  0.00  0.00    +0.070 C 
BRANCH  30  31
ATOM     31  C   UNL     1       1.923   2.866   1.111  0.00  0.00    +0.026 C 
BRANCH  31  32
ATOM     32  C   UNL     1       2.571   2.192   2.322  0.00  0.00    +0.037 C 
BRANCH  32  33
ATOM     33  C   UNL     1       3.013   3.245   3.306  0.00  0.00    -0.047 A 
ATOM     34  C   UNL     1       4.312   3.718   3.273  0.00  0.00    +0.007 A 
ATOM     35  C   UNL     1       4.720   4.683   4.174  0.00  0.00    +0.046 A 
ATOM     36  C   UNL     1       3.825   5.177   5.112  0.00  0.00    +0.120 A 
ATOM     37  C   UNL     1       2.522   4.701   5.142  0.00  0.00    +0.046 A 
ATOM     38  C   UNL     1       2.118   3.740   4.236  0.00  0.00    +0.007 A 
BRANCH  36  39
ATOM     39  O   UNL     1       4.224   6.126   5.999  0.00  0.00    -0.495 OA
ATOM     40  C   UNL     1       3.249   6.589   6.936  0.00  0.00    +0.277 C 
ENDBRANCH  36  39
ENDBRANCH  32  33
ENDBRANCH  31  32
ENDBRANCH  30  31
ENDBRANCH  25  30
ENDBRANCH   1  26
TORSDOF 9
