REMARK  Name = ZINC39685266
REMARK  7 active torsions:
REMARK  status: ('A' for Active; 'I' for Inactive)
REMARK    1  A    between atoms: C_1  and  C_2
REMARK    2  A    between atoms: C_8  and  C_14
REMARK    3  A    between atoms: C_11  and  C_13
REMARK    4  A    between atoms: N_16  and  C_17
REMARK    5  A    between atoms: C_17  and  C_19
REMARK    6  A    between atoms: C_17  and  C_23
REMARK    7  A    between atoms: C_19  and  C_20
REMARK                            x       y       z     vdW  Elec       q    Type
REMARK                         _______ _______ _______ _____ _____    ______ ____
ROOT
ATOM      1  C   UNL     1      -3.011  -2.173   3.085  0.00  0.00    +0.248 C 
ATOM      2  O   UNL     1      -2.124  -1.942   3.884  0.00  0.00    -0.270 OA
ATOM      3  N   UNL     1      -4.162  -2.737   3.501  0.00  0.00    -0.303 N 
ATOM      4  H   UNL     1      -4.897  -2.855   2.879  0.00  0.00    +0.150 HD
ENDROOT
BRANCH   1  11
ATOM      5  C   UNL     1      -0.181   1.177  -0.440  0.00  0.00    +0.016 C 
ATOM      6  C   UNL     1      -0.098  -0.344  -0.294  0.00  0.00    +0.060 C 
ATOM      7  C   UNL     1      -1.479  -0.947  -0.122  0.00  0.00    +0.001 A 
ATOM      8  C   UNL     1      -2.491  -1.209  -1.018  0.00  0.00    +0.007 A 
ATOM      9  C   UNL     1      -3.675  -1.786  -0.588  0.00  0.00    +0.001 A 
ATOM     10  C   UNL     1      -3.844  -2.100   0.744  0.00  0.00    +0.017 A 
ATOM     11  C   UNL     1      -2.827  -1.836   1.661  0.00  0.00    +0.079 A 
ATOM     12  C   UNL     1      -1.626  -1.248   1.226  0.00  0.00    +0.137 A 
ATOM     13  O   UNL     1      -0.523  -0.890   1.934  0.00  0.00    -0.487 OA
ATOM     14  C   UNL     1       0.590  -0.735   1.035  0.00  0.00    +0.178 C 
ATOM     15  C   UNL     1       1.352  -2.053   0.884  0.00  0.00    +0.052 C 
ENDBRANCH   1  11
BRANCH   3  16
ATOM     16  C   UNL     1      -4.304  -3.172   4.893  0.00  0.00    +0.121 C 
BRANCH  16  17
ATOM     17  C   UNL     1      -3.653  -4.520   5.067  0.00  0.00    +0.011 A 
ATOM     18  C   UNL     1      -2.910  -4.982   6.102  0.00  0.00    +0.013 A 
ATOM     19  C   UNL     1      -2.408  -6.269   6.045  0.00  0.00    +0.008 A 
ATOM     20  C   UNL     1      -2.675  -7.031   4.957  0.00  0.00    +0.045 A 
ATOM     21  S   UNL     1      -3.668  -5.926   3.967  0.00  0.00    -0.100 S 
ENDBRANCH  16  17
BRANCH  16  22
ATOM     22  C   UNL     1      -5.789  -3.273   5.247  0.00  0.00    +0.152 C 
BRANCH  22  23
ATOM     23  C   UNL     1      -6.410  -1.901   5.207  0.00  0.00    +0.358 C 
ATOM     24  O   UNL     1      -5.710  -0.920   5.021  0.00  0.00    -0.246 OA
ATOM     25  O   UNL     1      -7.613  -1.771   5.359  0.00  0.00    -0.246 OA
ENDBRANCH  22  23
ENDBRANCH  16  22
ENDBRANCH   3  16
TORSDOF 5
