REMARK  Name = ZINC39534006
REMARK  12 active torsions:
REMARK  status: ('A' for Active; 'I' for Inactive)
REMARK    1  A    between atoms: C_1  and  C_2
REMARK    2  A    between atoms: C_2  and  C_3
REMARK    3  A    between atoms: C_2  and  S_4
REMARK    4  A    between atoms: S_4  and  N_7
REMARK    5  A    between atoms: N_7  and  C_8
REMARK    6  A    between atoms: C_8  and  C_9
REMARK    7  A    between atoms: C_9  and  C_11
REMARK    8  A    between atoms: C_9  and  N_24
REMARK    9  A    between atoms: C_14  and  C_17
REMARK   10  A    between atoms: C_22  and  O_23
REMARK   11  A    between atoms: C_28  and  O_31
REMARK   12  A    between atoms: O_31  and  C_32
REMARK                            x       y       z     vdW  Elec       q    Type
REMARK                         _______ _______ _______ _____ _____    ______ ____
ROOT
ATOM      1  C   UNL     1      -0.020  -4.505   2.547  0.00  0.00    +0.102 C 
ENDROOT
BRANCH   1   2
ATOM      2  N   UNL     1       0.810  -5.273   1.609  0.00  0.00    -0.289 NA
ATOM      3  C   UNL     1       0.370  -5.063   0.223  0.00  0.00    +0.100 C 
ATOM      4  C   UNL     1       1.306  -5.814  -0.727  0.00  0.00    +0.098 C 
ATOM      5  N   UNL     1       1.301  -7.244  -0.386  0.00  0.00    -0.289 NA
ATOM      6  C   UNL     1       1.742  -7.454   1.000  0.00  0.00    +0.200 C 
ATOM      7  C   UNL     1       0.805  -6.702   1.949  0.00  0.00    +0.132 C 
ATOM      8  H   UNL     1       0.391  -7.649  -0.541  0.00  0.00    +0.124 HD
BRANCH   6   9
ATOM      9  O   UNL     1       1.710  -8.850   1.304  0.00  0.00    -0.364 OA
ATOM     10  C   UNL     1       2.779  -9.596   0.719  0.00  0.00    +0.196 C 
ENDBRANCH   6   9
ENDBRANCH   1   2
BRANCH   1  11
ATOM     11  C   UNL     1       0.516  -4.673   3.946  0.00  0.00    -0.029 A 
ATOM     12  C   UNL     1       1.882  -4.675   4.164  0.00  0.00    +0.006 A 
ATOM     13  C   UNL     1       2.378  -4.829   5.443  0.00  0.00    +0.009 A 
ATOM     14  C   UNL     1       1.501  -4.982   6.514  0.00  0.00    -0.014 A 
ATOM     15  C   UNL     1       0.126  -4.979   6.288  0.00  0.00    +0.009 A 
ATOM     16  C   UNL     1      -0.360  -4.819   5.006  0.00  0.00    +0.006 A 
BRANCH  14  17
ATOM     17  C   UNL     1       2.029  -5.149   7.891  0.00  0.00    +0.024 A 
ATOM     18  C   UNL     1       3.022  -6.090   8.150  0.00  0.00    +0.012 A 
ATOM     19  C   UNL     1       3.510  -6.241   9.432  0.00  0.00    +0.001 A 
ATOM     20  C   UNL     1       3.015  -5.460  10.462  0.00  0.00    +0.004 A 
ATOM     21  C   UNL     1       2.030  -4.524  10.216  0.00  0.00    +0.046 A 
ATOM     22  C   UNL     1       1.535  -4.357   8.932  0.00  0.00    +0.125 A 
BRANCH  22  23
ATOM     23  O   UNL     1       0.571  -3.432   8.688  0.00  0.00    -0.506 OA
ATOM     24  H   UNL     1      -0.331  -3.770   8.782  0.00  0.00    +0.292 HD
ENDBRANCH  22  23
ENDBRANCH  14  17
ENDBRANCH   1  11
BRANCH   1  25
ATOM     25  C   UNL     1       0.012  -3.025   2.163  0.00  0.00    +0.129 C 
BRANCH  25  26
ATOM     26  N   UNL     1      -0.868  -2.269   3.058  0.00  0.00    -0.192 NA
ATOM     27  H   UNL     1      -1.579  -2.723   3.536  0.00  0.00    +0.148 HD
BRANCH  26  28
ATOM     28  S   UNL     1      -0.647  -0.639   3.253  0.00  0.00    +0.032 S 
ATOM     29  O   UNL     1       0.745  -0.488   3.496  0.00  0.00    -0.158 OA
ATOM     30  O   UNL     1      -1.600  -0.260   4.237  0.00  0.00    -0.158 OA
BRANCH  28  32
ATOM     31  C   UNL     1      -0.899   1.604   1.708  0.00  0.00    +0.033 C 
ATOM     32  C   UNL     1      -1.084   0.086   1.649  0.00  0.00    +0.142 C 
ATOM     33  C   UNL     1      -0.178  -0.496   0.562  0.00  0.00    +0.033 C 
ENDBRANCH  28  32
ENDBRANCH  26  28
ENDBRANCH  25  26
ENDBRANCH   1  25
TORSDOF 9
