REMARK  Name = ZINC19329518
REMARK  7 active torsions:
REMARK  status: ('A' for Active; 'I' for Inactive)
REMARK    1  A    between atoms: C_1  and  C_2
REMARK    2  A    between atoms: C_2  and  C_30
REMARK    3  A    between atoms: C_6  and  C_16
REMARK    4  A    between atoms: C_13  and  O_15
REMARK    5  A    between atoms: C_23  and  S_25
REMARK    6  A    between atoms: S_25  and  C_26
REMARK    7  A    between atoms: C_26  and  C_27
REMARK                            x       y       z     vdW  Elec       q    Type
REMARK                         _______ _______ _______ _____ _____    ______ ____
ROOT
ATOM      1  C   UNL     1       4.237  -3.022  -2.881  0.00  0.00    +0.027 C 
ATOM      2  C   UNL     1       4.968  -2.183  -1.754  0.00  0.00    +0.013 C 
ATOM      3  C   UNL     1       3.947  -1.127  -1.187  0.00  0.00    +0.014 C 
ATOM      4  C   UNL     1       4.291   0.289  -1.425  0.00  0.00    -0.029 C 
ATOM      5  C   UNL     1       2.981   1.101  -1.408  0.00  0.00    +0.042 C 
ATOM      6  C   UNL     1       2.456   1.067  -0.015  0.00  0.00    +0.203 C 
ATOM      7  O   UNL     1       3.348   1.822   0.786  0.00  0.00    -0.484 OA
ATOM      8  C   UNL     1       4.734   1.554   0.733  0.00  0.00    +0.127 A 
ATOM      9  C   UNL     1       5.226   0.825  -0.356  0.00  0.00    -0.016 A 
ATOM     10  C   UNL     1       6.519   0.508  -0.335  0.00  0.00    +0.009 A 
ATOM     11  C   UNL     1       7.426   1.017   0.644  0.00  0.00    +0.046 A 
ATOM     12  C   UNL     1       6.899   1.769   1.642  0.00  0.00    +0.120 A 
ATOM     13  C   UNL     1       5.575   2.032   1.672  0.00  0.00    +0.091 A 
ATOM     14  N   UNL     1       4.961   0.449  -2.721  0.00  0.00    +0.410 N 
ATOM     15  C   UNL     1       6.038  -0.378  -3.168  0.00  0.00    +0.090 C 
ATOM     16  N   UNL     1       6.208  -1.536  -2.242  0.00  0.00    -0.303 NA
ATOM     17 BR   UNL     1       7.705   0.596  -3.328  0.00  0.00    -0.078 Br
ATOM     18  C   UNL     1       5.388  -3.122  -0.631  0.00  0.00    +0.027 C 
ATOM     19  H   UNL     1       4.227   0.323  -3.531  0.00  0.00    -0.079 HD
ATOM     20  H   UNL     1       6.782  -1.153  -1.386  0.00  0.00    +0.123 HD
ATOM     21  H   UNL     1       5.406   1.453  -2.783  0.00  0.00    -0.079 HD
ENDROOT
BRANCH   6  22
ATOM     22  C   UNL     1       1.175   1.783   0.000  0.00  0.00    -0.007 A 
ATOM     23  C   UNL     1      -0.013   1.076   0.008  0.00  0.00    +0.007 A 
ATOM     24  C   UNL     1      -1.219   1.751   0.017  0.00  0.00    +0.000 A 
ATOM     25  C   UNL     1      -1.238   3.133   0.029  0.00  0.00    +0.000 A 
ATOM     26  C   UNL     1      -0.050   3.840   0.022  0.00  0.00    +0.000 A 
ATOM     27  C   UNL     1       1.156   3.165   0.008  0.00  0.00    +0.007 A 
ENDBRANCH   6  22
BRANCH  12  28
ATOM     28  O   UNL     1       7.721   2.190   2.639  0.00  0.00    -0.507 OA
ATOM     29  H   UNL     1       7.321   2.801   3.461  0.00  0.00    +0.292 HD
ENDBRANCH  12  28
BRANCH  15  30
ATOM     30  S   UNL     1       5.577  -1.056  -4.842  0.00  0.00    -0.143 S 
BRANCH  30  31
ATOM     31  C   UNL     1       7.000  -2.080  -5.309  0.00  0.00    +0.096 C 
BRANCH  31  32
ATOM     32  C   UNL     1       6.753  -2.697  -6.662  0.00  0.00    -0.024 C 
ATOM     33  C   UNL     1       7.510  -2.368  -7.679  0.00  0.00    +0.005 C 
ENDBRANCH  31  32
ENDBRANCH  30  31
ENDBRANCH  15  30
TORSDOF 5
