REMARK  Name = ZINC46253735
REMARK  9 active torsions:
REMARK  status: ('A' for Active; 'I' for Inactive)
REMARK    1  A    between atoms: C_1  and  C_2
REMARK    2  A    between atoms: N_5  and  C_8
REMARK    3  A    between atoms: C_8  and  C_10
REMARK    4  A    between atoms: C_8  and  C_24
REMARK    5  A    between atoms: C_10  and  N_11
REMARK    6  A    between atoms: N_17  and  S_20
REMARK    7  A    between atoms: S_20  and  C_23
REMARK    8  A    between atoms: C_24  and  C_25
REMARK    9  A    between atoms: C_24  and  C_26
REMARK                            x       y       z     vdW  Elec       q    Type
REMARK                         _______ _______ _______ _____ _____    ______ ____
ROOT
ATOM      1  N   UNL     1       1.242  -3.413   2.204  0.00  0.00    -0.301 N 
ATOM      2  C   UNL     1       2.135  -3.484   3.211  0.00  0.00    +0.302 C 
ATOM      3  O   UNL     1       1.909  -4.189   4.175  0.00  0.00    -0.253 OA
ATOM      4  N   UNL     1       3.278  -2.772   3.150  0.00  0.00    -0.283 N 
ATOM      5  C   UNL     1       4.309  -2.923   4.187  0.00  0.00    +0.126 C 
ATOM      6  C   UNL     1       5.635  -3.289   3.509  0.00  0.00    +0.128 C 
ATOM      7  N   UNL     1       5.874  -2.349   2.405  0.00  0.00    -0.178 NA
ATOM      8  C   UNL     1       4.843  -2.199   1.368  0.00  0.00    +0.128 C 
ATOM      9  C   UNL     1       3.519  -1.837   2.042  0.00  0.00    +0.126 C 
ATOM     10  H   UNL     1       1.453  -2.906   1.404  0.00  0.00    +0.150 HD
ENDROOT
BRANCH   7  11
ATOM     11  S   UNL     1       7.278  -1.476   2.329  0.00  0.00    +0.029 S 
ATOM     12  O   UNL     1       6.942  -0.311   1.588  0.00  0.00    -0.158 OA
ATOM     13  O   UNL     1       7.715  -1.375   3.678  0.00  0.00    -0.158 OA
ATOM     14  C   UNL     1       8.422  -2.513   1.378  0.00  0.00    +0.215 C 
ENDBRANCH   7  11
BRANCH   1  15
ATOM     15  C   UNL     1      -0.046  -4.100   2.317  0.00  0.00    +0.091 C 
BRANCH  15  16
ATOM     16  C   UNL     1      -0.933  -3.720   1.129  0.00  0.00    -0.048 C 
BRANCH  16  21
ATOM     17  C   UNL     1      -2.044   1.650   2.694  0.00  0.00    +0.007 C 
ATOM     18  C   UNL     1      -1.507   0.218   2.652  0.00  0.00    -0.018 C 
ATOM     19  C   UNL     1      -0.686   0.017   1.375  0.00  0.00    -0.016 C 
ATOM     20  C   UNL     1      -0.218  -1.439   1.300  0.00  0.00    -0.078 C 
ATOM     21  N   UNL     1      -1.384  -2.330   1.280  0.00  0.00    +0.383 N 
ATOM     22  C   UNL     1      -2.137  -2.195   2.532  0.00  0.00    -0.078 C 
ATOM     23  C   UNL     1      -2.678  -0.768   2.655  0.00  0.00    -0.016 C 
ATOM     24  H   UNL     1      -1.979  -2.086   0.502  0.00  0.00    -0.081 HD
ENDBRANCH  16  21
BRANCH  16  25
ATOM     25  C   UNL     1      -2.148  -4.649   1.083  0.00  0.00    -0.029 C 
ATOM     26  C   UNL     1      -3.007  -4.304  -0.136  0.00  0.00    +0.005 C 
ATOM     27  C   UNL     1      -1.677  -6.101   0.981  0.00  0.00    +0.005 C 
ENDBRANCH  16  25
ENDBRANCH  15  16
ENDBRANCH   1  15
TORSDOF 5
