REMARK  Name = ZINC36609466
REMARK  13 active torsions:
REMARK  status: ('A' for Active; 'I' for Inactive)
REMARK    1  A    between atoms: C_1  and  C_2
REMARK    2  A    between atoms: C_2  and  C_3
REMARK    3  A    between atoms: C_3  and  C_4
REMARK    4  A    between atoms: C_4  and  N_5
REMARK    5  A    between atoms: C_6  and  C_8
REMARK    6  A    between atoms: C_8  and  C_10
REMARK    7  A    between atoms: C_8  and  N_18
REMARK    8  A    between atoms: C_13  and  O_16
REMARK    9  A    between atoms: O_16  and  C_17
REMARK   10  A    between atoms: N_18  and  C_19
REMARK   11  A    between atoms: C_25  and  C_27
REMARK   12  A    between atoms: C_29  and  N_34
REMARK   13  A    between atoms: C_32  and  O_33
REMARK                            x       y       z     vdW  Elec       q    Type
REMARK                         _______ _______ _______ _____ _____    ______ ____
ROOT
ATOM      1  N   UNL     1       2.042  -5.751  -4.409  0.00  0.00    -0.251 N 
ATOM      2  C   UNL     1       0.912  -5.688  -5.141  0.00  0.00    +0.255 C 
ATOM      3  O   UNL     1       0.869  -6.209  -6.238  0.00  0.00    -0.269 OA
ENDROOT
BRANCH   1   4
ATOM      4  C   UNL     1       3.099  -6.567  -4.823  0.00  0.00    +0.038 A 
ATOM      5  C   UNL     1       3.007  -7.947  -4.690  0.00  0.00    +0.023 A 
ATOM      6  C   UNL     1       4.053  -8.750  -5.101  0.00  0.00    +0.002 A 
ATOM      7  C   UNL     1       5.191  -8.182  -5.645  0.00  0.00    +0.000 A 
ATOM      8  C   UNL     1       5.286  -6.809  -5.779  0.00  0.00    +0.002 A 
ATOM      9  C   UNL     1       4.241  -6.001  -5.375  0.00  0.00    +0.023 A 
ENDBRANCH   1   4
BRANCH   2  10
ATOM     10  C   UNL     1      -0.272  -4.986  -4.610  0.00  0.00    +0.081 A 
ATOM     11  C   UNL     1      -0.122  -3.983  -3.649  0.00  0.00    +0.049 A 
ATOM     12  C   UNL     1      -1.232  -3.331  -3.158  0.00  0.00    +0.127 A 
ATOM     13  C   UNL     1      -2.497  -3.666  -3.612  0.00  0.00    +0.036 A 
ATOM     14  C   UNL     1      -2.660  -4.655  -4.561  0.00  0.00    +0.048 A 
ATOM     15  C   UNL     1      -1.553  -5.317  -5.072  0.00  0.00    +0.129 A 
BRANCH  12  16
ATOM     16  N   UNL     1      -1.072  -2.269  -2.139  0.00  0.00    +0.056 N 
ATOM     17  O   UNL     1       0.034  -1.906  -1.813  0.00  0.00    -0.126 OA
ATOM     18  O   UNL     1      -2.047  -1.765  -1.633  0.00  0.00    -0.126 OA
ENDBRANCH  12  16
BRANCH  15  19
ATOM     19  O   UNL     1      -1.710  -6.286  -6.009  0.00  0.00    -0.506 OA
ATOM     20  H   UNL     1      -1.829  -7.172  -5.642  0.00  0.00    +0.292 HD
ENDBRANCH  15  19
ENDBRANCH   2  10
BRANCH   1  21
ATOM     21  C   UNL     1       2.163  -4.965  -3.178  0.00  0.00    +0.197 C 
BRANCH  21  22
ATOM     22  C   UNL     1       3.443  -5.331  -2.472  0.00  0.00    -0.018 A 
ATOM     23  C   UNL     1       3.569  -6.570  -1.871  0.00  0.00    +0.009 A 
ATOM     24  C   UNL     1       4.741  -6.908  -1.222  0.00  0.00    +0.046 A 
ATOM     25  C   UNL     1       5.792  -6.003  -1.174  0.00  0.00    +0.120 A 
ATOM     26  C   UNL     1       5.663  -4.761  -1.778  0.00  0.00    +0.046 A 
ATOM     27  C   UNL     1       4.491  -4.430  -2.430  0.00  0.00    +0.009 A 
BRANCH  25  28
ATOM     28  O   UNL     1       6.945  -6.333  -0.536  0.00  0.00    -0.495 OA
ATOM     29  C   UNL     1       7.985  -5.353  -0.526  0.00  0.00    +0.277 C 
ENDBRANCH  25  28
ENDBRANCH  21  22
BRANCH  21  31
ATOM     30  N   UNL     1       0.889  -4.643  -1.083  0.00  0.00    -0.313 N 
ATOM     31  C   UNL     1       0.991  -5.257  -2.278  0.00  0.00    +0.238 C 
ATOM     32  O   UNL     1       0.138  -6.045  -2.629  0.00  0.00    -0.273 OA
ATOM     33  H   UNL     1       1.571  -4.013  -0.801  0.00  0.00    +0.149 HD
BRANCH  30  34
ATOM     34  C   UNL     1      -0.250  -4.927  -0.207  0.00  0.00    +0.104 C 
BRANCH  34  35
ATOM     35  C   UNL     1      -0.124  -4.106   1.077  0.00  0.00    +0.018 C 
BRANCH  35  37
ATOM     36  C   UNL     1      -1.188  -3.582   3.276  0.00  0.00    +0.004 C 
ATOM     37  C   UNL     1      -1.315  -4.403   1.992  0.00  0.00    -0.002 C 
ENDBRANCH  35  37
ENDBRANCH  34  35
ENDBRANCH  30  34
ENDBRANCH  21  31
ENDBRANCH   1  21
TORSDOF 11
