REMARK  Name = ZINC24602388
REMARK  13 active torsions:
REMARK  status: ('A' for Active; 'I' for Inactive)
REMARK    1  A    between atoms: C_1  and  C_2
REMARK    2  A    between atoms: C_2  and  C_32
REMARK    3  A    between atoms: C_4  and  N_10
REMARK    4  A    between atoms: C_6  and  C_8
REMARK    5  A    between atoms: C_6  and  C_9
REMARK    6  A    between atoms: N_10  and  C_11
REMARK    7  A    between atoms: C_11  and  C_12
REMARK    8  A    between atoms: C_12  and  C_14
REMARK    9  A    between atoms: C_12  and  O_31
REMARK   10  A    between atoms: C_14  and  O_15
REMARK   11  A    between atoms: O_15  and  C_16
REMARK   12  A    between atoms: C_16  and  C_17
REMARK   13  A    between atoms: C_16  and  C_24
REMARK                            x       y       z     vdW  Elec       q    Type
REMARK                         _______ _______ _______ _____ _____    ______ ____
ROOT
ATOM      1  C   UNL     1       0.002  -0.004   0.002  0.00  0.00    +0.154 C 
ENDROOT
BRANCH   1   2
ATOM      2  O   UNL     1      -0.017   1.425   0.010  0.00  0.00    -0.388 OA
ATOM      3  H   UNL     1      -0.493   1.964   0.842  0.00  0.00    +0.210 HD
ENDBRANCH   1   2
BRANCH   1   4
ATOM      4  C   UNL     1       0.718  -0.497  -1.257  0.00  0.00    +0.114 C 
BRANCH   4   5
ATOM      5  N   UNL     1       0.008  -0.011  -2.447  0.00  0.00    -0.311 NA
ATOM      6  H   UNL     1      -0.007   1.089  -2.424  0.00  0.00    +0.122 HD
BRANCH   5  10
ATOM      7  C   UNL     1       0.566  -2.468  -6.062  0.00  0.00    -0.010 C 
ATOM      8  C   UNL     1       0.313  -0.957  -6.114  0.00  0.00    -0.072 C 
ATOM      9  C   UNL     1      -0.352  -0.506  -4.816  0.00  0.00    +0.006 C 
ATOM     10  C   UNL     1       0.670  -0.467  -3.680  0.00  0.00    +0.051 C 
ATOM     11  C   UNL     1       1.774   0.521  -4.054  0.00  0.00    +0.006 C 
ATOM     12  C   UNL     1       2.464   0.085  -5.344  0.00  0.00    -0.072 C 
ATOM     13  N   UNL     1       1.531  -0.232  -6.406  0.00  0.00    +0.386 N 
ATOM     14  C   UNL     1       3.394  -1.099  -5.053  0.00  0.00    -0.010 C 
ATOM     15  C   UNL     1       3.352   1.258  -5.816  0.00  0.00    -0.010 C 
ATOM     16  C   UNL     1      -0.688  -0.700  -7.263  0.00  0.00    -0.010 C 
ATOM     17  H   UNL     1       2.136  -0.804  -7.125  0.00  0.00    -0.084 HD
ATOM     18  H   UNL     1       1.280   0.749  -6.836  0.00  0.00    -0.084 HD
ENDBRANCH   5  10
ENDBRANCH   4   5
ENDBRANCH   1   4
BRANCH   1  19
ATOM     19  C   UNL     1       0.742  -0.511   1.242  0.00  0.00    +0.193 C 
BRANCH  19  20
ATOM     20  O   UNL     1       0.010  -0.149   2.414  0.00  0.00    -0.365 OA
BRANCH  20  21
ATOM     21  C   UNL     1       0.619  -0.578   3.634  0.00  0.00    +0.178 C 
BRANCH  21  22
ATOM     22  C   UNL     1       1.551   0.495   4.134  0.00  0.00    -0.014 A 
ATOM     23  C   UNL     1       1.190   1.826   4.034  0.00  0.00    +0.009 A 
ATOM     24  C   UNL     1       2.042   2.811   4.497  0.00  0.00    +0.039 A 
ATOM     25  C   UNL     1       3.263   2.464   5.051  0.00  0.00    +0.123 A 
ATOM     26  C   UNL     1       3.626   1.131   5.146  0.00  0.00    +0.039 A 
ATOM     27  C   UNL     1       2.770   0.148   4.688  0.00  0.00    +0.009 A 
ATOM     28  F   UNL     1       4.099   3.426   5.500  0.00  0.00    -0.205 F 
ENDBRANCH  21  22
BRANCH  21  29
ATOM     29  C   UNL     1      -0.450  -0.835   4.665  0.00  0.00    -0.014 A 
ATOM     30  C   UNL     1      -1.583  -0.043   4.698  0.00  0.00    +0.009 A 
ATOM     31  C   UNL     1      -2.566  -0.281   5.640  0.00  0.00    +0.039 A 
ATOM     32  C   UNL     1      -2.411  -1.306   6.558  0.00  0.00    +0.123 A 
ATOM     33  C   UNL     1      -1.273  -2.095   6.527  0.00  0.00    +0.039 A 
ATOM     34  C   UNL     1      -0.294  -1.859   5.581  0.00  0.00    +0.009 A 
ATOM     35  F   UNL     1      -3.369  -1.537   7.482  0.00  0.00    -0.205 F 
ENDBRANCH  21  29
ENDBRANCH  20  21
ENDBRANCH  19  20
ENDBRANCH   1  19
TORSDOF 9
