REMARK  Name = ZINC13266147
REMARK  7 active torsions:
REMARK  status: ('A' for Active; 'I' for Inactive)
REMARK    1  A    between atoms: C_1  and  C_2
REMARK    2  A    between atoms: C_8  and  N_10
REMARK    3  A    between atoms: C_14  and  C_16
REMARK    4  A    between atoms: C_16  and  S_17
REMARK    5  A    between atoms: S_17  and  C_18
REMARK    6  A    between atoms: C_22  and  C_35
REMARK    7  A    between atoms: N_28  and  C_29
REMARK                            x       y       z     vdW  Elec       q    Type
REMARK                         _______ _______ _______ _____ _____    ______ ____
ROOT
ATOM      1  C   UNL     1      -1.805  -0.411   0.516  0.00  0.00    +0.177 A 
ATOM      2  N   UNL     1      -2.641   0.597   0.566  0.00  0.00    -0.223 NA
ATOM      3  C   UNL     1      -3.909   0.489   0.106  0.00  0.00    +0.080 A 
ATOM      4  C   UNL     1      -4.797   1.568   0.155  0.00  0.00    +0.043 A 
ATOM      5  C   UNL     1      -6.091   1.409  -0.324  0.00  0.00    +0.065 A 
ATOM      6  C   UNL     1      -6.508   0.180  -0.852  0.00  0.00    +0.016 A 
ATOM      7  C   UNL     1      -5.650  -0.880  -0.906  0.00  0.00    +0.016 A 
ATOM      8  C   UNL     1      -4.346  -0.743  -0.431  0.00  0.00    +0.065 A 
ATOM      9  C   UNL     1      -3.389  -1.860  -0.469  0.00  0.00    +0.267 A 
ATOM     10  O   UNL     1      -3.705  -2.946  -0.919  0.00  0.00    -0.267 OA
ATOM     11  N   UNL     1      -2.145  -1.636   0.014  0.00  0.00    -0.255 N 
ENDROOT
BRANCH  11  12
ATOM     12  C   UNL     1      -1.198  -2.668  -0.001  0.00  0.00    +0.052 A 
ATOM     13  C   UNL     1      -0.367  -2.835  -1.101  0.00  0.00    +0.026 A 
ATOM     14  C   UNL     1       0.569  -3.851  -1.111  0.00  0.00    +0.002 A 
ATOM     15  C   UNL     1       0.672  -4.707  -0.030  0.00  0.00    +0.000 A 
ATOM     16  C   UNL     1      -0.157  -4.547   1.065  0.00  0.00    +0.002 A 
ATOM     17  C   UNL     1      -1.091  -3.530   1.083  0.00  0.00    +0.026 A 
ENDBRANCH  11  12
BRANCH   5  18
ATOM     18  C   UNL     1      -7.037   2.546  -0.275  0.00  0.00    +0.387 C 
ATOM     19  O   UNL     1      -6.681   3.613   0.182  0.00  0.00    -0.241 OA
ATOM     20  O   UNL     1      -8.293   2.397  -0.738  0.00  0.00    -0.241 OA
ENDBRANCH   5  18
BRANCH   1  21
ATOM     21  S   UNL     1      -0.171  -0.179   1.132  0.00  0.00    -0.078 S 
BRANCH  21  22
ATOM     22  C   UNL     1      -0.273   1.553   1.649  0.00  0.00    +0.173 C 
BRANCH  22  27
ATOM     23  N   UNL     1       2.555   4.887   3.648  0.00  0.00    -0.296 N 
ATOM     24  C   UNL     1       2.396   3.628   3.195  0.00  0.00    +0.306 C 
ATOM     25  O   UNL     1       3.319   2.841   3.250  0.00  0.00    -0.252 OA
ATOM     26  N   UNL     1       1.211   3.243   2.679  0.00  0.00    -0.239 N 
ATOM     27  C   UNL     1       1.052   1.984   2.226  0.00  0.00    +0.231 C 
ATOM     28  O   UNL     1       1.973   1.198   2.281  0.00  0.00    -0.274 OA
ATOM     29  H   UNL     1       1.818   5.516   3.604  0.00  0.00    +0.151 HD
ATOM     30  H   UNL     1       0.474   3.872   2.635  0.00  0.00    +0.159 HD
BRANCH  23  37
ATOM     31  C   UNL     1       3.928   7.208   2.590  0.00  0.00    +0.009 C 
ATOM     32  C   UNL     1       3.990   6.823   4.069  0.00  0.00    +0.006 C 
ATOM     33  C   UNL     1       5.334   7.261   4.654  0.00  0.00    +0.005 C 
ATOM     34  C   UNL     1       5.396   6.876   6.133  0.00  0.00    +0.000 C 
ATOM     35  C   UNL     1       5.249   5.359   6.273  0.00  0.00    +0.002 C 
ATOM     36  C   UNL     1       3.904   4.922   5.688  0.00  0.00    +0.022 C 
ATOM     37  C   UNL     1       3.842   5.306   4.208  0.00  0.00    +0.077 C 
ENDBRANCH  23  37
ENDBRANCH  22  27
ENDBRANCH  21  22
ENDBRANCH   1  21
TORSDOF 6
