REMARK  Name = ZINC64246179
REMARK  3 active torsions:
REMARK  status: ('A' for Active; 'I' for Inactive)
REMARK    1  A    between atoms: C_3  and  N_12
REMARK    2  A    between atoms: C_13  and  C_15
REMARK    3  A    between atoms: C_18  and  C_20
REMARK                            x       y       z     vdW  Elec       q    Type
REMARK                         _______ _______ _______ _____ _____    ______ ____
ROOT
ATOM      1  N   UNL     1       3.579   1.986  -0.022  0.00  0.00    -0.204 NA
ATOM      2  C   UNL     1       3.627   3.296  -0.115  0.00  0.00    +0.294 C 
ATOM      3  O   UNL     1       2.481   4.019  -0.100  0.00  0.00    -0.264 OA
ENDROOT
BRANCH   1   6
ATOM      4  C   UNL     1       0.208   0.950  -0.952  0.00  0.00    +0.022 A 
ATOM      5  C   UNL     1       1.415   1.627  -0.999  0.00  0.00    +0.033 A 
ATOM      6  C   UNL     1       2.374   1.346  -0.019  0.00  0.00    +0.112 A 
ATOM      7  C   UNL     1       2.073   0.391   0.968  0.00  0.00    +0.180 A 
ATOM      8  N   UNL     1       0.906  -0.227   0.966  0.00  0.00    -0.234 NA
ATOM      9  C   UNL     1      -0.013   0.024   0.052  0.00  0.00    +0.113 A 
ATOM     10  N   UNL     1       3.014   0.093   1.955  0.00  0.00    -0.220 N 
ATOM     11  C   UNL     1       2.748  -0.406   3.190  0.00  0.00    +0.116 A 
ATOM     12  C   UNL     1       3.928  -0.551   3.836  0.00  0.00    +0.041 A 
ATOM     13  C   UNL     1       4.947  -0.130   2.975  0.00  0.00    +0.135 A 
ATOM     14  N   UNL     1       4.402   0.251   1.847  0.00  0.00    -0.173 NA
ENDBRANCH   1   6
BRANCH   2  15
ATOM     15  C   UNL     1       4.876   3.953  -0.231  0.00  0.00    +0.135 C 
ATOM     16  N   UNL     1       5.094   5.243  -0.326  0.00  0.00    -0.148 NA
ATOM     17  N   UNL     1       6.325   5.562  -0.419  0.00  0.00    -0.150 NA
ATOM     18  C   UNL     1       7.152   4.537  -0.402  0.00  0.00    +0.112 C 
ATOM     19  C   UNL     1       6.256   3.317  -0.264  0.00  0.00    +0.124 C 
BRANCH  18  20
ATOM     20  C   UNL     1       8.559   4.566  -0.486  0.00  0.00    +0.151 A 
ATOM     21  C   UNL     1       9.347   5.697  -0.599  0.00  0.00    +0.051 A 
ATOM     22  C   UNL     1      10.676   5.254  -0.651  0.00  0.00    +0.042 A 
ATOM     23  C   UNL     1      10.651   3.904  -0.570  0.00  0.00    +0.196 A 
ATOM     24  O   UNL     1       9.380   3.494  -0.466  0.00  0.00    -0.462 OA
ENDBRANCH  18  20
ENDBRANCH   2  15
TORSDOF 3
