REMARK  Name = ZINC32691172
REMARK  9 active torsions:
REMARK  status: ('A' for Active; 'I' for Inactive)
REMARK    1  A    between atoms: C_1  and  C_2
REMARK    2  A    between atoms: C_2  and  O_3
REMARK    3  A    between atoms: O_3  and  C_4
REMARK    4  A    between atoms: C_7  and  C_10
REMARK    5  A    between atoms: C_16  and  C_18
REMARK    6  A    between atoms: C_18  and  S_19
REMARK    7  A    between atoms: S_19  and  C_20
REMARK    8  A    between atoms: C_23  and  C_31
REMARK    9  A    between atoms: N_24  and  C_25
REMARK                            x       y       z     vdW  Elec       q    Type
REMARK                         _______ _______ _______ _____ _____    ______ ____
ROOT
ATOM      1  C   UNL     1      -6.751   6.143   0.019  0.00  0.00    +0.173 C 
ENDROOT
BRANCH   1   8
ATOM      2  C   UNL     1     -12.156   8.880  -0.047  0.00  0.00    +0.080 A 
ATOM      3  C   UNL     1     -12.776   7.754  -0.512  0.00  0.00    +0.076 A 
ATOM      4  S   UNL     1     -11.385   6.637  -0.635  0.00  0.00    -0.060 S 
ATOM      5  C   UNL     1     -10.135   7.772  -0.050  0.00  0.00    +0.165 A 
ATOM      6  N   UNL     1     -10.850   8.859   0.172  0.00  0.00    -0.225 NA
ATOM      7  N   UNL     1      -8.771   7.566   0.121  0.00  0.00    -0.264 N 
ATOM      8  C   UNL     1      -8.229   6.366  -0.167  0.00  0.00    +0.229 C 
ATOM      9  O   UNL     1      -8.932   5.465  -0.574  0.00  0.00    -0.275 OA
ATOM     10  H   UNL     1      -8.134   8.383   0.491  0.00  0.00    +0.157 HD
BRANCH   2  14
ATOM     11  C   UNL     1     -14.399  12.419   0.686  0.00  0.00    +0.121 A 
ATOM     12  C   UNL     1     -13.031  12.405   0.920  0.00  0.00    +0.046 A 
ATOM     13  C   UNL     1     -12.301  11.259   0.683  0.00  0.00    +0.013 A 
ATOM     14  C   UNL     1     -12.938  10.114   0.209  0.00  0.00    +0.001 A 
ATOM     15  C   UNL     1     -14.311  10.132  -0.030  0.00  0.00    +0.013 A 
ATOM     16  C   UNL     1     -15.037  11.280   0.214  0.00  0.00    +0.046 A 
BRANCH  11  17
ATOM     17  O   UNL     1     -15.116  13.550   0.920  0.00  0.00    -0.492 OA
BRANCH  17  19
ATOM     18  C   UNL     1     -17.152  14.850   0.978  0.00  0.00    +0.048 C 
ATOM     19  C   UNL     1     -16.520  13.494   0.658  0.00  0.00    +0.225 C 
ENDBRANCH  17  19
ENDBRANCH  11  17
ENDBRANCH   2  14
ENDBRANCH   1   8
BRANCH   1  20
ATOM     20  S   UNL     1      -6.333   4.444  -0.449  0.00  0.00    -0.077 S 
BRANCH  20  21
ATOM     21  C   UNL     1      -4.598   4.460  -0.143  0.00  0.00    +0.193 A 
ATOM     22  N   UNL     1      -3.894   5.478   0.303  0.00  0.00    -0.122 NA
ATOM     23  N   UNL     1      -2.659   5.143   0.417  0.00  0.00    -0.128 NA
ATOM     24  C   UNL     1      -2.497   3.895   0.042  0.00  0.00    +0.165 A 
ATOM     25  N   UNL     1      -3.735   3.419  -0.325  0.00  0.00    -0.299 N 
BRANCH  25  26
ATOM     26  C   UNL     1      -4.059   2.075  -0.808  0.00  0.00    +0.091 C 
ATOM     27  C   UNL     1      -4.540   2.157  -2.258  0.00  0.00    +0.025 C 
ATOM     28  C   UNL     1      -4.878   0.753  -2.763  0.00  0.00    +0.002 C 
ATOM     29  C   UNL     1      -5.983   0.150  -1.893  0.00  0.00    +0.000 C 
ATOM     30  C   UNL     1      -5.501   0.068  -0.443  0.00  0.00    +0.002 C 
ATOM     31  C   UNL     1      -5.163   1.472   0.062  0.00  0.00    +0.025 C 
ENDBRANCH  25  26
BRANCH  24  32
ATOM     32  C   UNL     1      -1.225   3.142   0.023  0.00  0.00    +0.022 A 
ATOM     33  C   UNL     1      -0.998   2.138  -0.926  0.00  0.00    +0.031 A 
ATOM     34  C   UNL     1       0.201   1.457  -0.905  0.00  0.00    +0.111 A 
ATOM     35  N   UNL     1       1.129   1.747  -0.013  0.00  0.00    -0.263 NA
ATOM     36  C   UNL     1       0.958   2.689   0.896  0.00  0.00    +0.111 A 
ATOM     37  C   UNL     1      -0.212   3.416   0.950  0.00  0.00    +0.031 A 
ENDBRANCH  24  32
ENDBRANCH  20  21
ENDBRANCH   1  20
TORSDOF 8
