REMARK  Name = ZINC38670980
REMARK  8 active torsions:
REMARK  status: ('A' for Active; 'I' for Inactive)
REMARK    1  A    between atoms: C_1  and  N_2
REMARK    2  A    between atoms: C_10  and  C_12
REMARK    3  A    between atoms: C_12  and  C_14
REMARK    4  A    between atoms: C_12  and  N_31
REMARK    5  A    between atoms: C_14  and  N_15
REMARK    6  A    between atoms: C_16  and  C_18
REMARK    7  A    between atoms: C_21  and  O_24
REMARK    8  A    between atoms: O_24  and  C_25
REMARK                            x       y       z     vdW  Elec       q    Type
REMARK                         _______ _______ _______ _____ _____    ______ ____
ROOT
ATOM      1  C   UNL     1       4.659  -3.091   0.309  0.00  0.00    -0.020 C 
ENDROOT
BRANCH   1  11
ATOM      2  C   UNL     1       0.192   1.646   0.742  0.00  0.00    +0.129 C 
ATOM      3  N   UNL     1       0.047   0.204   0.524  0.00  0.00    -0.333 N 
ATOM      4  C   UNL     1      -1.283  -0.395   0.354  0.00  0.00    +0.105 C 
ATOM      5  C   UNL     1      -1.335  -1.671   1.205  0.00  0.00    +0.024 C 
ATOM      6  C   UNL     1      -0.302  -2.663   0.673  0.00  0.00    +0.038 C 
ATOM      7  C   UNL     1       1.046  -2.003   0.547  0.00  0.00    -0.026 A 
ATOM      8  C   UNL     1       1.174  -0.623   0.470  0.00  0.00    +0.033 A 
ATOM      9  C   UNL     1       2.433  -0.045   0.344  0.00  0.00    +0.023 A 
ATOM     10  C   UNL     1       3.557  -0.844   0.291  0.00  0.00    +0.004 A 
ATOM     11  C   UNL     1       3.431  -2.219   0.365  0.00  0.00    -0.059 A 
ATOM     12  C   UNL     1       2.179  -2.797   0.500  0.00  0.00    +0.007 A 
ENDBRANCH   1  11
BRANCH   1  13
ATOM     13  N   UNL     1       5.736  -2.469   1.090  0.00  0.00    +0.385 N 
ATOM     14  C   UNL     1       6.957  -3.275   0.964  0.00  0.00    -0.078 C 
ATOM     15  C   UNL     1       8.104  -2.589   1.710  0.00  0.00    -0.019 C 
ATOM     16  C   UNL     1       7.733  -2.449   3.189  0.00  0.00    -0.004 C 
ATOM     17  C   UNL     1       6.419  -1.671   3.304  0.00  0.00    -0.019 C 
ATOM     18  C   UNL     1       5.335  -2.391   2.500  0.00  0.00    -0.078 C 
ATOM     19  H   UNL     1       5.912  -1.540   0.739  0.00  0.00    -0.081 HD
ENDBRANCH   1  13
BRANCH   1  20
ATOM     20  C   UNL     1       5.108  -3.248  -1.145  0.00  0.00    +0.094 C 
BRANCH  20  21
ATOM     21  N   UNL     1       5.562  -1.953  -1.658  0.00  0.00    -0.313 N 
ATOM     22  C   UNL     1       6.089  -1.866  -2.895  0.00  0.00    +0.244 C 
ATOM     23  O   UNL     1       6.188  -2.862  -3.586  0.00  0.00    -0.270 OA
ATOM     24  H   UNL     1       5.483  -1.158  -1.107  0.00  0.00    +0.149 HD
BRANCH  22  25
ATOM     25  C   UNL     1       6.547  -0.561  -3.412  0.00  0.00    +0.037 A 
ATOM     26  C   UNL     1       6.440   0.584  -2.618  0.00  0.00    +0.016 A 
ATOM     27  C   UNL     1       6.868   1.799  -3.103  0.00  0.00    +0.047 A 
ATOM     28  C   UNL     1       7.407   1.888  -4.382  0.00  0.00    +0.128 A 
ATOM     29  C   UNL     1       7.515   0.751  -5.175  0.00  0.00    +0.047 A 
ATOM     30  C   UNL     1       7.094  -0.469  -4.695  0.00  0.00    +0.016 A 
BRANCH  28  31
ATOM     31  O   UNL     1       7.827   3.087  -4.857  0.00  0.00    -0.456 OA
BRANCH  31  32
ATOM     32  C   UNL     1       9.011   3.574  -4.402  0.00  0.00    +0.128 A 
ATOM     33  C   UNL     1       9.812   2.796  -3.579  0.00  0.00    +0.046 A 
ATOM     34  C   UNL     1      11.015   3.294  -3.117  0.00  0.00    +0.004 A 
ATOM     35  C   UNL     1      11.421   4.566  -3.474  0.00  0.00    +0.000 A 
ATOM     36  C   UNL     1      10.625   5.344  -4.295  0.00  0.00    +0.004 A 
ATOM     37  C   UNL     1       9.424   4.849  -4.764  0.00  0.00    +0.046 A 
ENDBRANCH  31  32
ENDBRANCH  28  31
ENDBRANCH  22  25
ENDBRANCH  20  21
ENDBRANCH   1  20
TORSDOF 7
