REMARK  Name = ZINC21973793
REMARK  5 active torsions:
REMARK  status: ('A' for Active; 'I' for Inactive)
REMARK    1  A    between atoms: C_1  and  C_2
REMARK    2  A    between atoms: C_4  and  O_5
REMARK    3  A    between atoms: C_14  and  C_16
REMARK    4  A    between atoms: C_16  and  C_17
REMARK    5  A    between atoms: C_23  and  C_25
REMARK                            x       y       z     vdW  Elec       q    Type
REMARK                         _______ _______ _______ _____ _____    ______ ____
ROOT
ATOM      1  C   UNL     1      -2.723  11.458   7.224  0.00  0.00    +0.045 C 
ATOM      2  C   UNL     1      -2.515   9.989   6.957  0.00  0.00    -0.033 A 
ATOM      3  C   UNL     1      -2.331   9.113   7.978  0.00  0.00    +0.091 A 
ATOM      4  C   UNL     1      -2.138   7.744   7.702  0.00  0.00    +0.285 A 
ATOM      5  O   UNL     1      -2.131   7.272   6.446  0.00  0.00    -0.425 OA
ATOM      6  C   UNL     1      -2.308   8.089   5.385  0.00  0.00    +0.141 A 
ATOM      7  C   UNL     1      -2.505   9.468   5.588  0.00  0.00    +0.021 A 
ATOM      8  C   UNL     1      -2.690  10.319   4.492  0.00  0.00    +0.013 A 
ATOM      9  C   UNL     1      -2.672   9.809   3.227  0.00  0.00    +0.024 A 
ATOM     10  C   UNL     1      -2.482   8.443   3.019  0.00  0.00    +0.037 A 
ATOM     11  C   UNL     1      -2.297   7.586   4.094  0.00  0.00    +0.070 A 
ATOM     12  N   UNL     1      -2.471   7.936   1.719  0.00  0.00    -0.285 N 
ATOM     13  C   UNL     1      -2.980   6.713   1.469  0.00  0.00    +0.223 C 
ATOM     14  O   UNL     1      -3.371   6.020   2.384  0.00  0.00    -0.275 OA
ATOM     15  H   UNL     1      -2.047   8.534   0.899  0.00  0.00    +0.155 HD
ENDROOT
BRANCH   4  16
ATOM     16  O   UNL     1      -1.975   6.969   8.628  0.00  0.00    -0.480 OA
ATOM     17  H   UNL     1      -1.823   5.898   8.428  0.00  0.00    +0.295 HD
ENDBRANCH   4  16
BRANCH  13  18
ATOM     18  C   UNL     1      -3.062   6.207   0.051  0.00  0.00    +0.150 C 
BRANCH  18  19
ATOM     19  C   UNL     1      -3.664   4.826   0.046  0.00  0.00    +0.041 A 
ATOM     20  C   UNL     1      -4.989   4.686   0.041  0.00  0.00    +0.070 A 
ATOM     21  S   UNL     1      -5.172   2.909   0.036  0.00  0.00    -0.057 S 
ATOM     22  C   UNL     1      -3.443   2.494   0.040  0.00  0.00    +0.178 A 
ATOM     23  N   UNL     1      -2.837   3.723   0.045  0.00  0.00    -0.296 N 
ATOM     24  C   UNL     1      -1.473   3.452   0.054  0.00  0.00    +0.121 A 
ATOM     25  C   UNL     1      -1.323   2.106   0.046  0.00  0.00    +0.090 A 
ATOM     26  N   UNL     1      -2.551   1.547   0.041  0.00  0.00    -0.221 NA
BRANCH  25  27
ATOM     27  C   UNL     1      -0.033   1.373   0.049  0.00  0.00    +0.002 A 
ATOM     28  C   UNL     1       1.171   2.077   0.049  0.00  0.00    +0.013 A 
ATOM     29  C   UNL     1       2.368   1.392   0.045  0.00  0.00    +0.039 A 
ATOM     30  C   UNL     1       2.376   0.007   0.042  0.00  0.00    +0.123 A 
ATOM     31  C   UNL     1       1.183  -0.697   0.042  0.00  0.00    +0.039 A 
ATOM     32  C   UNL     1      -0.020  -0.020   0.045  0.00  0.00    +0.013 A 
ATOM     33  F   UNL     1       3.551  -0.660   0.038  0.00  0.00    -0.205 F 
ENDBRANCH  25  27
ENDBRANCH  18  19
ENDBRANCH  13  18
TORSDOF 4
