REMARK  Name = ZINC04082409
REMARK  6 active torsions:
REMARK  status: ('A' for Active; 'I' for Inactive)
REMARK    1  A    between atoms: C_1  and  C_2
REMARK    2  A    between atoms: C_2  and  O_3
REMARK    3  A    between atoms: O_3  and  C_4
REMARK    4  A    between atoms: C_26  and  C_30
REMARK    5  A    between atoms: C_26  and  C_31
REMARK    6  A    between atoms: C_28  and  C_29
REMARK                            x       y       z     vdW  Elec       q    Type
REMARK                         _______ _______ _______ _____ _____    ______ ____
ROOT
ATOM      1  C   UNL     1      -4.704  -1.845   2.779  0.00  0.00    +0.121 A 
ATOM      2  C   UNL     1      -5.442  -2.686   1.955  0.00  0.00    +0.055 A 
ATOM      3  C   UNL     1      -5.555  -2.415   0.602  0.00  0.00    +0.003 A 
ATOM      4  C   UNL     1      -4.895  -1.266   0.126  0.00  0.00    +0.047 A 
ATOM      5  C   UNL     1      -4.161  -0.430   0.952  0.00  0.00    -0.018 A 
ATOM      6  C   UNL     1      -4.052  -0.704   2.299  0.00  0.00    +0.050 A 
ATOM      7  C   UNL     1      -3.643   0.640   0.050  0.00  0.00    +0.079 C 
ATOM      8  C   UNL     1      -2.137   0.650   0.028  0.00  0.00    +0.022 A 
ATOM      9  C   UNL     1      -1.412   1.793   0.031  0.00  0.00    -0.021 A 
ATOM     10  C   UNL     1      -0.017   1.415   0.010  0.00  0.00    +0.003 A 
ATOM     11  C   UNL     1       1.169   2.156   0.003  0.00  0.00    +0.010 A 
ATOM     12  C   UNL     1       2.344   1.446  -0.010  0.00  0.00    +0.001 A 
ATOM     13  C   UNL     1       2.368   0.061  -0.016  0.00  0.00    +0.002 A 
ATOM     14  C   UNL     1       1.211  -0.697  -0.010  0.00  0.00    +0.026 A 
ATOM     15  C   UNL     1       0.002  -0.004   0.002  0.00  0.00    +0.047 A 
ATOM     16  N   UNL     1      -1.296  -0.429   0.010  0.00  0.00    -0.358 N 
ATOM     17  H   UNL     1      -1.579  -1.357   0.004  0.00  0.00    +0.166 HD
ATOM     18  C   UNL     1      -2.033   3.167   0.041  0.00  0.00    +0.018 C 
ATOM     19  C   UNL     1      -3.511   3.030  -0.349  0.00  0.00    -0.075 C 
ATOM     20  C   UNL     1      -4.177   0.283  -1.325  0.00  0.00    +0.220 C 
ATOM     21  O   UNL     1      -3.985   0.900  -2.352  0.00  0.00    -0.276 OA
ATOM     22  N   UNL     1      -4.902  -0.845  -1.198  0.00  0.00    -0.262 N 
ATOM     23  C   UNL     1      -5.625  -1.592  -2.235  0.00  0.00    +0.055 C 
ATOM     24  C   UNL     1      -6.306  -2.801  -1.668  0.00  0.00    +0.002 C 
ATOM     25  C   UNL     1      -6.291  -3.193  -0.404  0.00  0.00    -0.043 C 
ATOM     26  C   UNL     1      -7.031  -4.441   0.004  0.00  0.00    +0.044 C 
ATOM     27  C   UNL     1      -6.676  -0.678  -2.868  0.00  0.00    +0.036 C 
ATOM     28  C   UNL     1      -4.635  -2.036  -3.313  0.00  0.00    +0.036 C 
ATOM     29  N   UNL     1      -4.144   1.965   0.458  0.00  0.00    +0.395 N 
ATOM     30  H   UNL     1      -3.925   2.118   1.450  0.00  0.00    -0.083 HD
ATOM     31  H   UNL     1      -5.161   1.998   0.323  0.00  0.00    -0.083 HD
ENDROOT
BRANCH   1  32
ATOM     32  O   UNL     1      -4.614  -2.140   4.103  0.00  0.00    -0.492 OA
BRANCH  32  34
ATOM     33  C   UNL     1      -5.081  -3.481   6.059  0.00  0.00    +0.048 C 
ATOM     34  C   UNL     1      -5.295  -3.313   4.553  0.00  0.00    +0.225 C 
ENDBRANCH  32  34
ENDBRANCH   1  32
TORSDOF 2
