REMARK  Name = ZINC67404994
REMARK  7 active torsions:
REMARK  status: ('A' for Active; 'I' for Inactive)
REMARK    1  A    between atoms: C_4  and  O_7
REMARK    2  A    between atoms: O_7  and  C_8
REMARK    3  A    between atoms: N_10  and  C_11
REMARK    4  A    between atoms: N_19  and  C_20
REMARK    5  A    between atoms: C_20  and  C_21
REMARK    6  A    between atoms: C_21  and  C_22
REMARK    7  A    between atoms: C_22  and  N_23
REMARK                            x       y       z     vdW  Elec       q    Type
REMARK                         _______ _______ _______ _____ _____    ______ ____
ROOT
ATOM      1  C   UNL     1       4.711  -4.106   0.274  0.00  0.00    +0.079 C 
ATOM      2  C   UNL     1       4.522  -4.516   1.736  0.00  0.00    +0.041 C 
ATOM      3  C   UNL     1       4.451  -6.043   1.829  0.00  0.00    +0.111 C 
ATOM      4  N   UNL     1       5.647  -6.612   1.193  0.00  0.00    -0.286 N 
ATOM      5  C   UNL     1       5.972  -6.214  -0.183  0.00  0.00    +0.111 C 
ATOM      6  C   UNL     1       6.026  -4.684  -0.254  0.00  0.00    +0.041 C 
ATOM      7  C   UNL     1       6.431  -7.483   1.859  0.00  0.00    +0.302 C 
ATOM      8  O   UNL     1       6.101  -7.878   2.961  0.00  0.00    -0.253 OA
ATOM      9  N   UNL     1       7.580  -7.915   1.304  0.00  0.00    -0.299 N 
ATOM     10  H   UNL     1       7.804  -7.664   0.395  0.00  0.00    +0.150 HD
ENDROOT
BRANCH   1  13
ATOM     11  C   UNL     1       3.597  -1.947   0.090  0.00  0.00    +0.406 C 
ATOM     12  O   UNL     1       2.530  -2.530   0.093  0.00  0.00    -0.226 OA
ATOM     13  N   UNL     1       4.747  -2.645   0.177  0.00  0.00    -0.278 N 
ATOM     14  H   UNL     1       5.598  -2.179   0.175  0.00  0.00    +0.152 HD
BRANCH  11  15
ATOM     15  O   UNL     1       3.629  -0.604   0.001  0.00  0.00    -0.412 OA
BRANCH  15  19
ATOM     16  C   UNL     1       0.042   1.433   0.096  0.00  0.00    +0.000 A 
ATOM     17  C   UNL     1       0.494   0.777   1.227  0.00  0.00    +0.004 A 
ATOM     18  C   UNL     1       1.695   0.095   1.198  0.00  0.00    +0.046 A 
ATOM     19  C   UNL     1       2.447   0.067   0.033  0.00  0.00    +0.133 A 
ATOM     20  C   UNL     1       1.992   0.725  -1.101  0.00  0.00    +0.046 A 
ATOM     21  C   UNL     1       0.790   1.406  -1.066  0.00  0.00    +0.004 A 
ENDBRANCH  15  19
ENDBRANCH  11  15
ENDBRANCH   1  13
BRANCH   9  22
ATOM     22  C   UNL     1       8.492  -8.765   2.075  0.00  0.00    +0.107 C 
BRANCH  22  23
ATOM     23  C   UNL     1       9.711  -9.112   1.220  0.00  0.00    +0.040 C 
BRANCH  23  24
ATOM     24  C   UNL     1      10.663  -9.999   2.025  0.00  0.00    +0.126 C 
BRANCH  24  25
ATOM     25  N   UNL     1      11.832 -10.331   1.206  0.00  0.00    -0.315 N 
ATOM     26  C   UNL     1      11.809 -11.441   0.425  0.00  0.00    +0.089 A 
ATOM     27  C   UNL     1      12.877 -11.769  -0.340  0.00  0.00    +0.018 A 
ATOM     28  C   UNL     1      14.020 -10.959  -0.331  0.00  0.00    +0.007 A 
ATOM     29  C   UNL     1      14.040  -9.843   0.454  0.00  0.00    +0.070 A 
ATOM     30  C   UNL     1      12.913  -9.530   1.232  0.00  0.00    +0.251 A 
ATOM     31  O   UNL     1      12.916  -8.532   1.936  0.00  0.00    -0.268 OA
ENDBRANCH  24  25
ENDBRANCH  23  24
ENDBRANCH  22  23
ENDBRANCH   9  22
TORSDOF 7
