REMARK  Name = ZINC34791341
REMARK  15 active torsions:
REMARK  status: ('A' for Active; 'I' for Inactive)
REMARK    1  A    between atoms: C_1  and  C_2
REMARK    2  A    between atoms: C_2  and  N_3
REMARK    3  A    between atoms: C_6  and  C_11
REMARK    4  A    between atoms: C_14  and  C_18
REMARK    5  A    between atoms: C_16  and  C_17
REMARK    6  A    between atoms: N_21  and  C_23
REMARK    7  A    between atoms: C_23  and  C_25
REMARK    8  A    between atoms: C_23  and  C_29
REMARK    9  A    between atoms: C_25  and  C_26
REMARK   10  A    between atoms: C_26  and  C_27
REMARK   11  A    between atoms: C_26  and  C_28
REMARK   12  A    between atoms: C_35  and  C_38
REMARK   13  A    between atoms: C_38  and  O_40
REMARK   14  A    between atoms: O_40  and  C_41
REMARK   15  A    between atoms: C_41  and  C_42
REMARK                            x       y       z     vdW  Elec       q    Type
REMARK                         _______ _______ _______ _____ _____    ______ ____
ROOT
ATOM      1  N   UNL     1      -0.040   1.234  -1.590  0.00  0.00    -0.257 N 
ATOM      2  C   UNL     1      -0.436   0.560  -2.709  0.00  0.00    +0.042 C 
ATOM      3  C   UNL     1       0.456  -0.078  -3.494  0.00  0.00    +0.058 C 
ATOM      4  C   UNL     1       1.915  -0.021  -3.090  0.00  0.00    +0.142 C 
ATOM      5  N   UNL     1       2.240   0.731  -1.867  0.00  0.00    -0.288 N 
ATOM      6  C   UNL     1       1.235   1.321  -1.190  0.00  0.00    +0.307 C 
ATOM      7  O   UNL     1       1.494   1.948  -0.181  0.00  0.00    -0.252 OA
ATOM      8  C   UNL     1      -0.198  -0.694  -4.580  0.00  0.00    +0.247 C 
ATOM      9  O   UNL     1       0.364  -1.339  -5.446  0.00  0.00    -0.270 OA
ATOM     10  N   UNL     1      -1.525  -0.477  -4.535  0.00  0.00    -0.281 N 
ATOM     11  C   UNL     1      -1.792   0.339  -3.341  0.00  0.00    +0.160 C 
ATOM     12  H   UNL     1       3.157   0.803  -1.557  0.00  0.00    +0.151 HD
ENDROOT
BRANCH   4  13
ATOM     13  C   UNL     1       2.689   0.590  -4.230  0.00  0.00    -0.020 A 
ATOM     14  C   UNL     1       2.038   1.369  -5.169  0.00  0.00    +0.006 A 
ATOM     15  C   UNL     1       2.747   1.929  -6.214  0.00  0.00    +0.004 A 
ATOM     16  C   UNL     1       4.109   1.712  -6.320  0.00  0.00    -0.050 A 
ATOM     17  C   UNL     1       4.760   0.935  -5.381  0.00  0.00    +0.007 A 
ATOM     18  C   UNL     1       4.051   0.378  -4.333  0.00  0.00    -0.045 A 
ATOM     19  C   UNL     1       4.762  -0.466  -3.306  0.00  0.00    +0.044 C 
ATOM     20  C   UNL     1       4.882   2.323  -7.460  0.00  0.00    +0.044 C 
ENDBRANCH   4  13
BRANCH   1  22
ATOM     21  C   UNL     1      -1.257   3.335  -1.293  0.00  0.00    +0.025 C 
ATOM     22  C   UNL     1      -1.065   1.905  -0.786  0.00  0.00    +0.111 C 
ENDBRANCH   1  22
BRANCH  10  23
ATOM     23  C   UNL     1      -2.519  -0.964  -5.495  0.00  0.00    +0.163 C 
BRANCH  23  24
ATOM     24  C   UNL     1      -2.310  -0.281  -6.822  0.00  0.00    +0.236 C 
ATOM     25  O   UNL     1      -1.323   0.399  -7.006  0.00  0.00    -0.274 OA
ATOM     26  N   UNL     1      -3.222  -0.425  -7.805  0.00  0.00    -0.299 N 
ATOM     27  C   UNL     1      -4.479  -1.144  -7.559  0.00  0.00    +0.108 C 
ATOM     28  C   UNL     1      -5.649  -0.243  -7.967  0.00  0.00    +0.020 C 
ATOM     29  C   UNL     1      -5.457   0.212  -9.416  0.00  0.00    +0.018 C 
ATOM     30  C   UNL     1      -4.163   1.020  -9.531  0.00  0.00    +0.115 C 
ATOM     31  C   UNL     1      -2.978   0.138  -9.140  0.00  0.00    +0.122 C 
BRANCH  30  32
ATOM     32  C   UNL     1      -3.991   1.495 -10.951  0.00  0.00    +0.312 C 
ATOM     33  O   UNL     1      -3.019   1.162 -11.587  0.00  0.00    -0.250 OA
BRANCH  32  34
ATOM     34  O   UNL     1      -4.919   2.288 -11.510  0.00  0.00    -0.465 OA
BRANCH  34  35
ATOM     35  C   UNL     1      -4.692   2.700 -12.860  0.00  0.00    +0.229 C 
ATOM     36  C   UNL     1      -5.847   3.591 -13.321  0.00  0.00    +0.048 C 
ENDBRANCH  34  35
ENDBRANCH  32  34
ENDBRANCH  30  32
ENDBRANCH  23  24
BRANCH  23  37
ATOM     37  C   UNL     1      -2.362  -2.476  -5.670  0.00  0.00    +0.035 C 
BRANCH  37  38
ATOM     38  C   UNL     1      -2.748  -3.182  -4.369  0.00  0.00    -0.015 C 
ATOM     39  C   UNL     1      -2.808  -4.692  -4.607  0.00  0.00    +0.007 C 
ATOM     40  C   UNL     1      -1.704  -2.877  -3.293  0.00  0.00    +0.007 C 
ENDBRANCH  37  38
ENDBRANCH  23  37
ENDBRANCH  10  23
TORSDOF 9
