REMARK  Name = ZINC14980414
REMARK  9 active torsions:
REMARK  status: ('A' for Active; 'I' for Inactive)
REMARK    1  A    between atoms: C_1  and  C_2
REMARK    2  A    between atoms: C_2  and  N_70
REMARK    3  A    between atoms: C_6  and  C_8
REMARK    4  A    between atoms: C_8  and  N_9
REMARK    5  A    between atoms: C_10  and  C_12
REMARK    6  A    between atoms: C_12  and  C_13
REMARK    7  A    between atoms: C_13  and  C_14
REMARK    8  A    between atoms: C_20  and  C_22
REMARK    9  A    between atoms: C_22  and  N_72
REMARK                            x       y       z     vdW  Elec       q    Type
REMARK                         _______ _______ _______ _____ _____    ______ ____
ROOT
ATOM      1  C   UNL     1       4.138   6.166   0.993  0.00  0.00    -0.008 C 
ATOM      2  C   UNL     1       4.705   5.633   2.311  0.00  0.00    +0.022 C 
ATOM      3  C   UNL     1       6.103   6.217   2.534  0.00  0.00    +0.108 C 
ATOM      4  N   UNL     1       6.021   7.682   2.461  0.00  0.00    -0.303 N 
ATOM      5  C   UNL     1       5.410   8.297   1.275  0.00  0.00    +0.108 C 
ATOM      6  C   UNL     1       4.019   7.690   1.066  0.00  0.00    +0.022 C 
ATOM      7  C   UNL     1       6.497   8.447   3.463  0.00  0.00    +0.199 C 
ATOM      8  O   UNL     1       6.424   9.656   3.390  0.00  0.00    -0.278 OA
ENDROOT
BRANCH   1   9
ATOM      9  C   UNL     1       2.755   5.557   0.750  0.00  0.00    +0.013 C 
BRANCH   9  10
ATOM     10  C   UNL     1       2.891   4.046   0.552  0.00  0.00    +0.096 C 
BRANCH  10  12
ATOM     11  N   UNL     1       1.402   2.121   0.110  0.00  0.00    -0.317 N 
ATOM     12  C   UNL     1       1.529   3.447   0.312  0.00  0.00    +0.213 C 
ATOM     13  O   UNL     1       0.547   4.159   0.301  0.00  0.00    -0.276 OA
ATOM     14  H   UNL     1       2.188   1.552   0.119  0.00  0.00    +0.149 HD
BRANCH  11  15
ATOM     15  C   UNL     1       0.078   1.538  -0.122  0.00  0.00    +0.089 C 
BRANCH  15  19
ATOM     16  C   UNL     1       0.409  -1.208  -2.513  0.00  0.00    -0.078 C 
ATOM     17  C   UNL     1      -0.774  -1.762  -1.691  0.00  0.00    -0.020 C 
ATOM     18  C   UNL     1      -1.157  -0.567  -0.780  0.00  0.00    -0.016 C 
ATOM     19  C   UNL     1       0.228   0.059  -0.486  0.00  0.00    -0.051 C 
ATOM     20  N   UNL     1       0.969  -0.077  -1.755  0.00  0.00    +0.382 N 
ATOM     21  H   UNL     1       0.865   0.784  -2.304  0.00  0.00    -0.081 HD
BRANCH  20  23
ATOM     22  C   UNL     1       3.141  -0.568  -2.804  0.00  0.00    -0.017 C 
ATOM     23  C   UNL     1       2.412  -0.307  -1.484  0.00  0.00    -0.082 C 
ENDBRANCH  20  23
ENDBRANCH  15  19
ENDBRANCH  11  15
ENDBRANCH  10  12
ENDBRANCH   9  10
ENDBRANCH   1   9
BRANCH   7  24
ATOM     24  C   UNL     1       7.122   7.801   4.673  0.00  0.00    +0.019 C 
BRANCH  24  31
ATOM     25  C   UNL     1       8.579   9.720   4.996  0.00  0.00    -0.078 C 
ATOM     26  C   UNL     1       9.252  10.623   5.993  0.00  0.00    -0.019 C 
ATOM     27  C   UNL     1      10.543   9.936   6.483  0.00  0.00    -0.002 C 
ATOM     28  C   UNL     1      10.274   8.904   7.478  0.00  0.00    -0.002 C 
ATOM     29  C   UNL     1       9.384   7.774   6.921  0.00  0.00    -0.019 C 
ATOM     30  C   UNL     1       7.957   8.252   6.910  0.00  0.00    -0.078 C 
ATOM     31  N   UNL     1       7.508   8.865   5.614  0.00  0.00    +0.385 N 
ATOM     32  H   UNL     1       6.690   9.456   5.801  0.00  0.00    -0.081 HD
ENDBRANCH  24  31
ENDBRANCH   7  24
TORSDOF 8
