REMARK  Name = ZINC49469371
REMARK  11 active torsions:
REMARK  status: ('A' for Active; 'I' for Inactive)
REMARK    1  A    between atoms: C_1  and  C_2
REMARK    2  A    between atoms: C_4  and  C_29
REMARK    3  A    between atoms: C_5  and  S_9
REMARK    4  A    between atoms: C_7  and  C_8
REMARK    5  A    between atoms: S_9  and  N_12
REMARK    6  A    between atoms: N_12  and  C_13
REMARK    7  A    between atoms: C_13  and  C_14
REMARK    8  A    between atoms: C_14  and  N_15
REMARK    9  A    between atoms: C_20  and  C_22
REMARK   10  A    between atoms: C_23  and  C_28
REMARK   11  A    between atoms: C_25  and  C_27
REMARK                            x       y       z     vdW  Elec       q    Type
REMARK                         _______ _______ _______ _____ _____    ______ ____
ROOT
ATOM      1  C   UNL     1      -1.353  -3.796  -2.601  0.00  0.00    +0.129 C 
ENDROOT
BRANCH   1   2
ATOM      2  N   UNL     1      -1.407  -4.363  -1.252  0.00  0.00    -0.188 NA
ATOM      3  H   UNL     1      -2.176  -4.886  -0.976  0.00  0.00    +0.148 HD
BRANCH   2   4
ATOM      4  S   UNL     1      -0.156  -4.112  -0.197  0.00  0.00    +0.059 S 
ATOM      5  O   UNL     1       1.040  -4.394  -0.911  0.00  0.00    -0.153 OA
ATOM      6  O   UNL     1      -0.499  -4.783   1.008  0.00  0.00    -0.153 OA
BRANCH   4  11
ATOM      7  C   UNL     1      -0.053   1.783   1.084  0.00  0.00    +0.044 C 
ATOM      8  C   UNL     1      -0.079   0.311   0.764  0.00  0.00    -0.047 A 
ATOM      9  C   UNL     1      -1.177  -0.453   1.112  0.00  0.00    +0.009 A 
ATOM     10  C   UNL     1      -1.201  -1.804   0.819  0.00  0.00    -0.024 A 
ATOM     11  C   UNL     1      -0.126  -2.390   0.176  0.00  0.00    +0.108 A 
ATOM     12  C   UNL     1       0.971  -1.627  -0.172  0.00  0.00    +0.032 A 
ATOM     13  C   UNL     1       0.993  -0.275   0.117  0.00  0.00    -0.046 A 
ATOM     14  C   UNL     1       2.188   0.559  -0.268  0.00  0.00    +0.044 C 
ATOM     15  C   UNL     1      -2.398  -2.637   1.199  0.00  0.00    +0.046 C 
ENDBRANCH   4  11
ENDBRANCH   2   4
ENDBRANCH   1   2
BRANCH   1  16
ATOM     16  C   UNL     1      -2.430  -4.445  -3.472  0.00  0.00    +0.164 C 
BRANCH  16  17
ATOM     17  N   UNL     1      -2.376  -3.878  -4.821  0.00  0.00    -0.228 N 
ATOM     18  C   UNL     1      -1.592  -4.463  -5.746  0.00  0.00    +0.267 A 
ATOM     19  O   UNL     1      -0.939  -5.453  -5.460  0.00  0.00    -0.266 OA
ATOM     20  C   UNL     1      -1.533  -3.923  -7.051  0.00  0.00    +0.074 A 
ATOM     21  C   UNL     1      -2.282  -2.817  -7.319  0.00  0.00    +0.036 A 
ATOM     22  C   UNL     1      -3.075  -2.275  -6.277  0.00  0.00    +0.100 A 
ATOM     23  N   UNL     1      -3.080  -2.839  -5.090  0.00  0.00    -0.168 NA
BRANCH  22  24
ATOM     24  C   UNL     1      -3.901  -1.076  -6.528  0.00  0.00    +0.062 A 
ATOM     25  C   UNL     1      -4.729  -0.389  -5.677  0.00  0.00    +0.055 A 
ATOM     26  N   UNL     1      -5.350   0.657  -6.176  0.00  0.00    -0.249 NA
ATOM     27  C   UNL     1      -5.184   1.021  -7.424  0.00  0.00    +0.076 A 
ATOM     28  S   UNL     1      -4.095  -0.115  -8.020  0.00  0.00    -0.070 S 
ATOM     29  C   UNL     1      -5.814   2.183  -8.150  0.00  0.00    +0.073 C 
ATOM     30  C   UNL     1      -4.917  -0.811  -4.242  0.00  0.00    +0.067 C 
ENDBRANCH  22  24
ENDBRANCH  16  17
ENDBRANCH   1  16
TORSDOF 6
