REMARK  Name = ZINC03923061
REMARK  14 active torsions:
REMARK  status: ('A' for Active; 'I' for Inactive)
REMARK    1  A    between atoms: C_1  and  C_2
REMARK    2  A    between atoms: C_7  and  N_8
REMARK    3  A    between atoms: N_11  and  S_14
REMARK    4  A    between atoms: S_14  and  C_17
REMARK    5  A    between atoms: C_17  and  C_18
REMARK    6  A    between atoms: C_23  and  C_24
REMARK    7  A    between atoms: C_23  and  C_25
REMARK    8  A    between atoms: C_27  and  N_29
REMARK    9  A    between atoms: C_30  and  C_32
REMARK   10  A    between atoms: C_32  and  C_34
REMARK   11  A    between atoms: C_32  and  N_79
REMARK   12  A    between atoms: C_34  and  C_35
REMARK   13  A    between atoms: C_35  and  S_36
REMARK   14  A    between atoms: S_36  and  C_39
REMARK                            x       y       z     vdW  Elec       q    Type
REMARK                         _______ _______ _______ _____ _____    ______ ____
ROOT
ATOM      1  C   UNL     1       2.420   0.805  -0.477  0.00  0.00    +0.015 C 
ATOM      2  C   UNL     1       2.268  -0.498   0.370  0.00  0.00    +0.011 C 
ATOM      3  C   UNL     1       2.655  -0.079   1.807  0.00  0.00    +0.005 C 
ATOM      4  C   UNL     1       3.004   1.437   1.695  0.00  0.00    -0.003 C 
ATOM      5  C   UNL     1       3.631   1.485   0.257  0.00  0.00    -0.023 C 
ATOM      6  C   UNL     1       3.857   2.920  -0.223  0.00  0.00    +0.012 C 
ATOM      7  C   UNL     1       4.906   0.645   0.158  0.00  0.00    +0.012 C 
ATOM      8  C   UNL     1       1.634   2.135   1.436  0.00  0.00    +0.027 C 
ATOM      9  C   UNL     1       1.248   1.716  -0.001  0.00  0.00    +0.081 C 
ENDROOT
BRANCH   9  10
ATOM     10  N   UNL     1      -0.011   0.966   0.007  0.00  0.00    -0.313 N 
ATOM     11  C   UNL     1      -1.179   1.612   0.192  0.00  0.00    +0.199 C 
ATOM     12  O   UNL     1      -1.188   2.814   0.355  0.00  0.00    -0.278 OA
ATOM     13  H   UNL     1      -0.004   0.005  -0.124  0.00  0.00    +0.149 HD
BRANCH  11  14
ATOM     14  C   UNL     1      -2.474   0.842   0.194  0.00  0.00    +0.014 C 
BRANCH  14  17
ATOM     15  H   UNL     1      -3.661   2.512   0.394  0.00  0.00    -0.089 HD
ATOM     16  H   UNL     1      -4.375   1.112   0.938  0.00  0.00    -0.089 HD
ATOM     17  N   UNL     1      -3.503   1.636   0.889  0.00  0.00    +0.386 N 
ATOM     18  H   UNL     1      -3.182   1.843   1.842  0.00  0.00    -0.089 HD
ENDBRANCH  14  17
BRANCH  14  19
ATOM     19  C   UNL     1      -2.902   0.559  -1.248  0.00  0.00    +0.015 C 
BRANCH  19  20
ATOM     20  C   UNL     1      -4.148  -0.328  -1.246  0.00  0.00    +0.164 C 
BRANCH  20  21
ATOM     21  S   UNL     1      -4.655  -0.663  -2.955  0.00  0.00    -0.034 S 
ATOM     22  O   UNL     1      -5.061   0.561  -3.552  0.00  0.00    -0.175 OA
ATOM     23  O   UNL     1      -3.640  -1.435  -3.582  0.00  0.00    -0.175 OA
ATOM     24  C   UNL     1      -6.121  -1.710  -2.740  0.00  0.00    +0.194 C 
ENDBRANCH  20  21
ENDBRANCH  19  20
ENDBRANCH  14  19
ENDBRANCH  11  14
ENDBRANCH   9  10
BRANCH   1  25
ATOM     25  C   UNL     1       2.545   0.613  -1.990  0.00  0.00    +0.194 C 
BRANCH  25  26
ATOM     26  S   UNL     1       1.038  -0.171  -2.627  0.00  0.00    +0.033 S 
ATOM     27  O   UNL     1       0.940  -1.505  -2.149  0.00  0.00    -0.158 OA
ATOM     28  O   UNL     1      -0.063   0.722  -2.514  0.00  0.00    -0.158 OA
BRANCH  26  32
ATOM     29  N   UNL     1       2.588  -0.144  -6.716  0.00  0.00    -0.327 N 
ATOM     30  C   UNL     1       3.080  -1.103  -5.719  0.00  0.00    +0.122 C 
ATOM     31  C   UNL     1       1.922  -1.531  -4.812  0.00  0.00    +0.128 C 
ATOM     32  N   UNL     1       1.293  -0.323  -4.256  0.00  0.00    -0.178 NA
ATOM     33  C   UNL     1       0.891   0.743  -5.186  0.00  0.00    +0.128 C 
ATOM     34  C   UNL     1       2.096   1.084  -6.078  0.00  0.00    +0.122 C 
BRANCH  29  41
ATOM     35  C   UNL     1       2.045  -0.733  -9.446  0.00  0.00    +0.045 C 
ATOM     36  C   UNL     1       3.352  -0.126  -9.006  0.00  0.00    -0.029 A 
ATOM     37  C   UNL     1       4.330   0.161  -9.938  0.00  0.00    +0.005 A 
ATOM     38  C   UNL     1       5.529   0.718  -9.535  0.00  0.00    +0.000 A 
ATOM     39  C   UNL     1       5.755   0.989  -8.198  0.00  0.00    +0.002 A 
ATOM     40  C   UNL     1       4.780   0.709  -7.261  0.00  0.00    +0.023 A 
ATOM     41  C   UNL     1       3.575   0.145  -7.662  0.00  0.00    +0.033 A 
ENDBRANCH  29  41
ENDBRANCH  26  32
ENDBRANCH  25  26
ENDBRANCH   1  25
TORSDOF 10
