REMARK  Name = ZINC03532409
REMARK  9 active torsions:
REMARK  status: ('A' for Active; 'I' for Inactive)
REMARK    1  A    between atoms: C_1  and  C_2
REMARK    2  A    between atoms: C_2  and  C_3
REMARK    3  A    between atoms: C_3  and  C_5
REMARK    4  A    between atoms: C_3  and  C_6
REMARK    5  A    between atoms: C_9  and  N_12
REMARK    6  A    between atoms: C_22  and  S_23
REMARK    7  A    between atoms: S_23  and  C_24
REMARK    8  A    between atoms: C_24  and  C_26
REMARK    9  A    between atoms: C_24  and  C_27
REMARK                            x       y       z     vdW  Elec       q    Type
REMARK                         _______ _______ _______ _____ _____    ______ ____
ROOT
ATOM      1  N   UNL     1       3.512  -5.306  -1.097  0.00  0.00    -0.255 N 
ATOM      2  C   UNL     1       3.475  -6.504  -0.470  0.00  0.00    +0.267 A 
ATOM      3  O   UNL     1       4.496  -7.121  -0.227  0.00  0.00    -0.267 OA
ATOM      4  C   UNL     1       2.158  -7.037  -0.097  0.00  0.00    +0.065 A 
ATOM      5  C   UNL     1       2.018  -8.265   0.548  0.00  0.00    +0.017 A 
ATOM      6  C   UNL     1       0.770  -8.718   0.876  0.00  0.00    +0.021 A 
ATOM      7  C   UNL     1      -0.361  -7.968   0.572  0.00  0.00    +0.043 A 
ATOM      8  C   UNL     1      -0.250  -6.752  -0.065  0.00  0.00    +0.048 A 
ATOM      9  C   UNL     1       1.014  -6.267  -0.410  0.00  0.00    +0.080 A 
ATOM     10  N   UNL     1       1.170  -5.077  -1.036  0.00  0.00    -0.223 NA
ATOM     11  C   UNL     1       2.356  -4.623  -1.359  0.00  0.00    +0.177 A 
ATOM     12 CL   UNL     1      -1.931  -8.572   1.002  0.00  0.00    -0.083 Cl
ENDROOT
BRANCH   1  16
ATOM     13  C   UNL     1       7.177  -3.677  -2.230  0.00  0.00    -0.044 A 
ATOM     14  C   UNL     1       6.486  -4.495  -3.104  0.00  0.00    +0.006 A 
ATOM     15  C   UNL     1       5.271  -5.036  -2.732  0.00  0.00    +0.026 A 
ATOM     16  C   UNL     1       4.744  -4.759  -1.478  0.00  0.00    +0.052 A 
ATOM     17  C   UNL     1       5.438  -3.933  -0.604  0.00  0.00    +0.026 A 
ATOM     18  C   UNL     1       6.655  -3.399  -0.980  0.00  0.00    +0.006 A 
BRANCH  13  19
ATOM     19  C   UNL     1       8.502  -3.088  -2.639  0.00  0.00    +0.016 C 
ATOM     20  C   UNL     1       8.413  -1.561  -2.606  0.00  0.00    +0.012 C 
BRANCH  19  22
ATOM     21  C   UNL     1      10.954  -3.061  -2.156  0.00  0.00    +0.004 C 
ATOM     22  C   UNL     1       9.590  -3.556  -1.671  0.00  0.00    +0.004 C 
ENDBRANCH  19  22
ENDBRANCH  13  19
ENDBRANCH   1  16
BRANCH  11  23
ATOM     23  S   UNL     1       2.467  -3.065  -2.173  0.00  0.00    -0.075 S 
BRANCH  23  24
ATOM     24  C   UNL     1       0.712  -2.633  -2.266  0.00  0.00    +0.137 C 
ATOM     25  C   UNL     1       0.160  -2.434  -0.853  0.00  0.00    +0.029 C 
BRANCH  24  26
ATOM     26  C   UNL     1       0.549  -1.358  -3.053  0.00  0.00    +0.233 C 
ATOM     27  O   UNL     1       1.491  -0.609  -3.195  0.00  0.00    -0.274 OA
ATOM     28  N   UNL     1      -0.645  -1.051  -3.599  0.00  0.00    -0.239 N 
ATOM     29  C   UNL     1      -0.791   0.089  -4.302  0.00  0.00    +0.303 C 
ATOM     30  O   UNL     1       0.154   0.840  -4.445  0.00  0.00    -0.253 OA
ATOM     31  N   UNL     1      -1.983   0.393  -4.853  0.00  0.00    -0.313 N 
ATOM     32  H   UNL     1      -1.500  -1.731  -3.470  0.00  0.00    +0.159 HD
ATOM     33  H   UNL     1      -2.102   1.324  -5.427  0.00  0.00    +0.146 HD
ATOM     34  H   UNL     1      -2.837  -0.289  -4.728  0.00  0.00    +0.146 HD
ENDBRANCH  24  26
ENDBRANCH  23  24
ENDBRANCH  11  23
TORSDOF 6
