REMARK  Name = ZINC29992256
REMARK  8 active torsions:
REMARK  status: ('A' for Active; 'I' for Inactive)
REMARK    1  A    between atoms: C_1  and  O_2
REMARK    2  A    between atoms: O_2  and  C_3
REMARK    3  A    between atoms: C_3  and  C_5
REMARK    4  A    between atoms: C_5  and  C_7
REMARK    5  A    between atoms: C_5  and  N_14
REMARK    6  A    between atoms: C_20  and  C_22
REMARK    7  A    between atoms: N_24  and  C_31
REMARK    8  A    between atoms: C_25  and  C_28
REMARK                            x       y       z     vdW  Elec       q    Type
REMARK                         _______ _______ _______ _____ _____    ______ ____
ROOT
ATOM      1  N   UNL     1       3.903   2.810   0.207  0.00  0.00    -0.283 NA
ATOM      2  C   UNL     1       4.014   2.071   1.472  0.00  0.00    +0.104 C 
ATOM      3  C   UNL     1       5.186   1.087   1.383  0.00  0.00    +0.123 C 
ATOM      4  N   UNL     1       6.392   1.832   0.990  0.00  0.00    -0.294 N 
ATOM      5  C   UNL     1       6.317   2.704  -0.192  0.00  0.00    +0.123 C 
ATOM      6  C   UNL     1       5.100   3.624  -0.041  0.00  0.00    +0.104 C 
ATOM      7  C   UNL     1       7.535   1.717   1.694  0.00  0.00    +0.262 C 
ATOM      8  O   UNL     1       8.545   2.280   1.311  0.00  0.00    -0.269 OA
ENDROOT
BRANCH   7   9
ATOM      9  C   UNL     1       7.564   0.917   2.918  0.00  0.00    +0.123 C 
ATOM     10  N   UNL     1       6.590   0.185   3.356  0.00  0.00    -0.178 NA
ATOM     11  N   UNL     1       6.873  -0.482   4.546  0.00  0.00    -0.212 N 
ATOM     12  C   UNL     1       8.238  -0.138   4.972  0.00  0.00    +0.189 C 
ATOM     13  C   UNL     1       8.733   0.820   3.871  0.00  0.00    +0.096 C 
BRANCH  11  14
ATOM     14  C   UNL     1       6.000  -1.333   5.226  0.00  0.00    +0.052 A 
ATOM     15  C   UNL     1       6.402  -1.941   6.410  0.00  0.00    +0.025 A 
ATOM     16  C   UNL     1       5.534  -2.778   7.083  0.00  0.00    +0.002 A 
ATOM     17  C   UNL     1       4.271  -3.021   6.574  0.00  0.00    +0.000 A 
ATOM     18  C   UNL     1       3.870  -2.422   5.394  0.00  0.00    +0.002 A 
ATOM     19  C   UNL     1       4.730  -1.579   4.719  0.00  0.00    +0.025 A 
ENDBRANCH  11  14
BRANCH  12  20
ATOM     20  C   UNL     1       9.102  -1.371   5.029  0.00  0.00    +0.233 C 
ATOM     21  O   UNL     1       8.727  -2.399   4.504  0.00  0.00    -0.274 OA
ATOM     22  N   UNL     1      10.291  -1.333   5.662  0.00  0.00    -0.328 N 
ATOM     23  H   UNL     1      10.921  -2.234   5.704  0.00  0.00    +0.145 HD
ATOM     24  H   UNL     1      10.631  -0.402   6.139  0.00  0.00    +0.145 HD
ENDBRANCH  12  20
ENDBRANCH   7   9
BRANCH   1  25
ATOM     25  C   UNL     1       2.690   3.639   0.186  0.00  0.00    +0.198 C 
BRANCH  25  26
ATOM     26  C   UNL     1       2.513   4.236  -1.186  0.00  0.00    -0.001 A 
ATOM     27  C   UNL     1       3.069   3.614  -2.288  0.00  0.00    +0.007 A 
ATOM     28  C   UNL     1       2.907   4.162  -3.546  0.00  0.00    +0.000 A 
ATOM     29  C   UNL     1       2.194   5.336  -3.703  0.00  0.00    +0.001 A 
ATOM     30  C   UNL     1       1.633   5.956  -2.603  0.00  0.00    +0.020 A 
ATOM     31  C   UNL     1       1.794   5.408  -1.343  0.00  0.00    +0.046 A 
ATOM     32 CL   UNL     1       1.096   6.190   0.041  0.00  0.00    -0.083 Cl
ENDBRANCH  25  26
BRANCH  25  33
ATOM     33  C   UNL     1       1.493   2.786   0.521  0.00  0.00    +0.329 C 
ATOM     34  O   UNL     1       1.504   1.605   0.267  0.00  0.00    -0.249 OA
BRANCH  33  36
ATOM     35  C   UNL     1      -0.700   2.457   1.395  0.00  0.00    +0.280 C 
ATOM     36  O   UNL     1       0.416   3.338   1.101  0.00  0.00    -0.467 OA
ENDBRANCH  33  36
ENDBRANCH  25  33
ENDBRANCH   1  25
TORSDOF 7
