REMARK  Name = ZINC36601342
REMARK  12 active torsions:
REMARK  status: ('A' for Active; 'I' for Inactive)
REMARK    1  A    between atoms: C_1  and  C_2
REMARK    2  A    between atoms: C_5  and  C_7
REMARK    3  A    between atoms: C_7  and  N_8
REMARK    4  A    between atoms: N_8  and  C_9
REMARK    5  A    between atoms: C_9  and  C_11
REMARK    6  A    between atoms: C_9  and  C_20
REMARK    7  A    between atoms: C_12  and  O_19
REMARK    8  A    between atoms: C_14  and  O_18
REMARK    9  A    between atoms: C_16  and  O_17
REMARK   10  A    between atoms: N_22  and  C_23
REMARK   11  A    between atoms: C_29  and  C_31
REMARK   12  A    between atoms: C_35  and  N_37
REMARK                            x       y       z     vdW  Elec       q    Type
REMARK                         _______ _______ _______ _____ _____    ______ ____
ROOT
ATOM      1  C   UNL     1       1.955  -2.719  -2.792  0.00  0.00    +0.200 C 
ENDROOT
BRANCH   1   2
ATOM      2  C   UNL     1       3.302  -2.492  -2.157  0.00  0.00    +0.065 A 
ATOM      3  C   UNL     1       4.428  -2.344  -2.953  0.00  0.00    +0.129 A 
ATOM      4  C   UNL     1       5.668  -2.134  -2.368  0.00  0.00    +0.091 A 
ATOM      5  C   UNL     1       5.782  -2.072  -0.987  0.00  0.00    +0.124 A 
ATOM      6  C   UNL     1       4.656  -2.219  -0.191  0.00  0.00    +0.091 A 
ATOM      7  C   UNL     1       3.415  -2.424  -0.776  0.00  0.00    +0.129 A 
BRANCH   7   8
ATOM      8  O   UNL     1       2.311  -2.563   0.003  0.00  0.00    -0.506 OA
ATOM      9  H   UNL     1       2.124  -3.477   0.261  0.00  0.00    +0.292 HD
ENDBRANCH   7   8
BRANCH   5  10
ATOM     10  O   UNL     1       6.997  -1.868  -0.414  0.00  0.00    -0.507 OA
ATOM     11  H   UNL     1       7.215  -0.936  -0.277  0.00  0.00    +0.292 HD
ENDBRANCH   5  10
BRANCH   3  12
ATOM     12  O   UNL     1       4.317  -2.405  -4.306  0.00  0.00    -0.506 OA
ATOM     13  H   UNL     1       4.186  -1.545  -4.729  0.00  0.00    +0.292 HD
ENDBRANCH   3  12
ENDBRANCH   1   2
BRANCH   1  14
ATOM     14  C   UNL     1       1.645  -1.583  -3.733  0.00  0.00    +0.239 C 
ATOM     15  O   UNL     1       1.175  -0.551  -3.303  0.00  0.00    -0.273 OA
ATOM     16  N   UNL     1       1.890  -1.714  -5.052  0.00  0.00    -0.311 N 
ATOM     17  H   UNL     1       2.266  -2.540  -5.395  0.00  0.00    +0.149 HD
BRANCH  16  18
ATOM     18  C   UNL     1       1.589  -0.610  -5.966  0.00  0.00    +0.073 C 
ATOM     19  C   UNL     1       0.118  -0.679  -6.382  0.00  0.00    +0.022 C 
ATOM     20  C   UNL     1      -0.197   0.474  -7.337  0.00  0.00    +0.002 C 
ATOM     21  C   UNL     1       0.690   0.364  -8.579  0.00  0.00    +0.000 C 
ATOM     22  C   UNL     1       2.161   0.434  -8.163  0.00  0.00    +0.002 C 
ATOM     23  C   UNL     1       2.476  -0.720  -7.208  0.00  0.00    +0.022 C 
ENDBRANCH  16  18
ENDBRANCH   1  14
BRANCH   1  24
ATOM     24  N   UNL     1       0.928  -2.784  -1.750  0.00  0.00    -0.274 N 
ATOM     25  C   UNL     1       0.344  -3.962  -1.451  0.00  0.00    +0.248 C 
ATOM     26  O   UNL     1      -0.494  -4.019  -0.573  0.00  0.00    -0.270 OA
BRANCH  25  27
ATOM     27  C   UNL     1       0.724  -5.184  -2.191  0.00  0.00    +0.039 A 
ATOM     28  C   UNL     1       2.059  -5.409  -2.534  0.00  0.00    +0.013 A 
ATOM     29  C   UNL     1       2.406  -6.552  -3.224  0.00  0.00    +0.003 A 
ATOM     30  C   UNL     1       1.436  -7.473  -3.577  0.00  0.00    +0.033 A 
ATOM     31  C   UNL     1       0.112  -7.255  -3.241  0.00  0.00    +0.127 A 
ATOM     32  C   UNL     1      -0.248  -6.120  -2.545  0.00  0.00    +0.045 A 
BRANCH  31  33
ATOM     33  N   UNL     1      -0.919  -8.246  -3.623  0.00  0.00    +0.056 N 
ATOM     34  O   UNL     1      -0.605  -9.244  -4.228  0.00  0.00    -0.126 OA
ATOM     35  O   UNL     1      -2.077  -8.056  -3.330  0.00  0.00    -0.126 OA
ENDBRANCH  31  33
ENDBRANCH  25  27
BRANCH  24  36
ATOM     36  C   UNL     1       0.535  -1.569  -1.032  0.00  0.00    +0.183 C 
BRANCH  36  41
ATOM     37  C   UNL     1      -3.388   0.609  -3.335  0.00  0.00    +0.086 C 
ATOM     38  C   UNL     1      -2.587  -0.258  -2.398  0.00  0.00    +0.102 A 
ATOM     39  C   UNL     1      -3.093  -1.088  -1.468  0.00  0.00    +0.045 A 
ATOM     40  C   UNL     1      -1.993  -1.698  -0.823  0.00  0.00    +0.046 A 
ATOM     41  C   UNL     1      -0.881  -1.205  -1.397  0.00  0.00    +0.122 A 
ATOM     42  O   UNL     1      -1.247  -0.338  -2.355  0.00  0.00    -0.463 OA
ENDBRANCH  36  41
ENDBRANCH  24  36
ENDBRANCH   1  24
TORSDOF 11
