REMARK  Name = ZINC59489424
REMARK  9 active torsions:
REMARK  status: ('A' for Active; 'I' for Inactive)
REMARK    1  A    between atoms: C_1  and  C_2
REMARK    2  A    between atoms: C_2  and  O_3
REMARK    3  A    between atoms: O_3  and  C_4
REMARK    4  A    between atoms: C_8  and  N_10
REMARK    5  A    between atoms: C_14  and  S_18
REMARK    6  A    between atoms: S_18  and  C_19
REMARK    7  A    between atoms: N_21  and  N_22
REMARK    8  A    between atoms: C_23  and  C_24
REMARK    9  A    between atoms: C_23  and  C_25
REMARK                            x       y       z     vdW  Elec       q    Type
REMARK                         _______ _______ _______ _____ _____    ______ ____
ROOT
ATOM      1  S   UNL     1       4.726  -6.527  -4.944  0.00  0.00    -0.078 S 
ENDROOT
BRANCH   1   6
ATOM      2  N   UNL     1       2.173  -4.224  -3.741  0.00  0.00    -0.209 N 
ATOM      3  C   UNL     1       2.629  -3.456  -4.738  0.00  0.00    +0.228 C 
ATOM      4  O   UNL     1       2.541  -2.248  -4.790  0.00  0.00    -0.275 OA
ATOM      5  C   UNL     1       3.271  -4.334  -5.790  0.00  0.00    +0.120 C 
ATOM      6  C   UNL     1       3.106  -5.758  -5.221  0.00  0.00    +0.149 C 
ATOM      7  C   UNL     1       2.393  -5.535  -3.905  0.00  0.00    +0.240 C 
ATOM      8  O   UNL     1       2.069  -6.404  -3.125  0.00  0.00    -0.274 OA
BRANCH   2  13
ATOM      9  C   UNL     1       1.487  -3.249  -0.257  0.00  0.00    +0.122 A 
ATOM     10  C   UNL     1       0.237  -2.660  -0.392  0.00  0.00    +0.046 A 
ATOM     11  C   UNL     1      -0.365  -2.592  -1.634  0.00  0.00    +0.005 A 
ATOM     12  C   UNL     1       0.275  -3.109  -2.744  0.00  0.00    +0.024 A 
ATOM     13  C   UNL     1       1.524  -3.699  -2.614  0.00  0.00    +0.047 A 
ATOM     14  C   UNL     1       2.133  -3.764  -1.369  0.00  0.00    +0.069 A 
BRANCH   9  15
ATOM     15  O   UNL     1       2.078  -3.316   0.965  0.00  0.00    -0.492 OA
BRANCH  15  17
ATOM     16  C   UNL     1       2.173  -2.932   3.349  0.00  0.00    +0.048 C 
ATOM     17  C   UNL     1       1.354  -2.765   2.067  0.00  0.00    +0.225 C 
ENDBRANCH  15  17
ENDBRANCH   9  15
ENDBRANCH   2  13
ENDBRANCH   1   6
BRANCH   1  18
ATOM     18  C   UNL     1       4.337  -8.172  -4.444  0.00  0.00    +0.146 C 
ATOM     19  N   UNL     1       3.092  -8.550  -4.357  0.00  0.00    -0.380 N 
ATOM     20  N   UNL     1       5.348  -9.058  -4.146  0.00  0.00    -0.217 N 
ATOM     21  H   UNL     1       2.878  -9.455  -4.082  0.00  0.00    +0.158 HD
ATOM     22  H   UNL     1       6.274  -8.776  -4.211  0.00  0.00    +0.176 HD
ATOM     23  H   UNL     1       2.380  -7.926  -4.567  0.00  0.00    +0.158 HD
BRANCH  20  24
ATOM     24  N   UNL     1       5.040 -10.365  -3.749  0.00  0.00    -0.185 NA
ATOM     25  C   UNL     1       5.992 -11.200  -3.468  0.00  0.00    +0.063 C 
ATOM     26  C   UNL     1       7.431 -10.763  -3.568  0.00  0.00    +0.068 C 
BRANCH  25  27
ATOM     27  C   UNL     1       5.667 -12.576  -3.049  0.00  0.00    -0.002 A 
ATOM     28  C   UNL     1       6.691 -13.476  -2.740  0.00  0.00    +0.011 A 
ATOM     29  C   UNL     1       6.380 -14.761  -2.350  0.00  0.00    +0.016 A 
ATOM     30  C   UNL     1       5.057 -15.161  -2.264  0.00  0.00    +0.018 A 
ATOM     31  C   UNL     1       4.038 -14.275  -2.569  0.00  0.00    +0.016 A 
ATOM     32  C   UNL     1       4.335 -12.985  -2.955  0.00  0.00    +0.011 A 
ATOM     33 BR   UNL     1       4.640 -16.927  -1.729  0.00  0.00    -0.050 Br
ENDBRANCH  25  27
ENDBRANCH  20  24
ENDBRANCH   1  18
TORSDOF 7
