REMARK  Name = ZINC42506284
REMARK  13 active torsions:
REMARK  status: ('A' for Active; 'I' for Inactive)
REMARK    1  A    between atoms: C_1  and  C_2
REMARK    2  A    between atoms: C_2  and  C_4
REMARK    3  A    between atoms: C_2  and  N_20
REMARK    4  A    between atoms: N_6  and  C_7
REMARK    5  A    between atoms: C_7  and  C_8
REMARK    6  A    between atoms: C_8  and  N_14
REMARK    7  A    between atoms: N_20  and  C_21
REMARK    8  A    between atoms: N_20  and  C_22
REMARK    9  A    between atoms: C_22  and  C_23
REMARK   10  A    between atoms: N_25  and  C_26
REMARK   11  A    between atoms: C_26  and  C_27
REMARK   12  A    between atoms: C_26  and  C_28
REMARK   13  A    between atoms: C_26  and  C_29
REMARK                            x       y       z     vdW  Elec       q    Type
REMARK                         _______ _______ _______ _____ _____    ______ ____
ROOT
ATOM      1  C   UNL     1      -1.461  -0.351  -0.020  0.00  0.00    +0.199 C 
ATOM      2  O   UNL     1      -1.834  -0.878  -1.047  0.00  0.00    -0.278 OA
ATOM      3  N   UNL     1      -2.315  -0.207   1.012  0.00  0.00    -0.318 N 
ATOM      4  H   UNL     1      -2.017   0.215   1.834  0.00  0.00    +0.149 HD
ENDROOT
BRANCH   1   6
ATOM      5  C   UNL     1       0.020   1.618  -0.302  0.00  0.00    -0.004 C 
ATOM      6  C   UNL     1      -0.042   0.143   0.101  0.00  0.00    +0.016 C 
BRANCH   6   7
ATOM      7  N   UNL     1       0.828  -0.644  -0.783  0.00  0.00    +0.391 N 
ATOM      8  C   UNL     1       0.762  -2.060  -0.400  0.00  0.00    -0.094 C 
ATOM      9  H   UNL     1       0.519  -0.539  -1.738  0.00  0.00    -0.080 HD
BRANCH   7  10
ATOM     10  C   UNL     1       2.211  -0.166  -0.660  0.00  0.00    +0.019 C 
BRANCH  10  11
ATOM     11  C   UNL     1       3.082  -0.889  -1.655  0.00  0.00    +0.197 C 
ATOM     12  O   UNL     1       2.598  -1.720  -2.394  0.00  0.00    -0.278 OA
ATOM     13  N   UNL     1       4.400  -0.612  -1.724  0.00  0.00    -0.312 N 
ATOM     14  H   UNL     1       4.787   0.052  -1.133  0.00  0.00    +0.149 HD
BRANCH  13  15
ATOM     15  C   UNL     1       5.246  -1.314  -2.691  0.00  0.00    +0.026 C 
ATOM     16  C   UNL     1       4.737  -1.041  -4.108  0.00  0.00    +0.031 C 
ATOM     17  C   UNL     1       6.688  -0.817  -2.563  0.00  0.00    +0.031 C 
ATOM     18  C   UNL     1       5.199  -2.818  -2.413  0.00  0.00    +0.031 C 
ENDBRANCH  13  15
ENDBRANCH  10  11
ENDBRANCH   7  10
ENDBRANCH   6   7
ENDBRANCH   1   6
BRANCH   3  19
ATOM     19  C   UNL     1      -3.694  -0.687   0.895  0.00  0.00    +0.092 C 
BRANCH  19  20
ATOM     20  C   UNL     1      -4.476  -0.307   2.154  0.00  0.00    -0.050 C 
ATOM     21  C   UNL     1      -5.899  -0.861   2.057  0.00  0.00    -0.010 C 
ATOM     22  C   UNL     1      -6.593  -0.270   0.828  0.00  0.00    -0.001 C 
ATOM     23  C   UNL     1      -6.646   1.254   0.955  0.00  0.00    -0.000 C 
ATOM     24  C   UNL     1      -5.223   1.807   1.052  0.00  0.00    -0.001 C 
ATOM     25  C   UNL     1      -4.529   1.217   2.280  0.00  0.00    -0.010 C 
BRANCH  20  26
ATOM     26  N   UNL     1      -3.809  -0.874   3.334  0.00  0.00    +0.384 N 
ATOM     27  C   UNL     1      -3.743  -2.334   3.203  0.00  0.00    -0.078 C 
ATOM     28  C   UNL     1      -2.978  -2.923   4.390  0.00  0.00    -0.019 C 
ATOM     29  C   UNL     1      -3.703  -2.558   5.689  0.00  0.00    -0.004 C 
ATOM     30  C   UNL     1      -3.832  -1.034   5.779  0.00  0.00    -0.019 C 
ATOM     31  C   UNL     1      -4.565  -0.516   4.540  0.00  0.00    -0.078 C 
ATOM     32  H   UNL     1      -2.874  -0.502   3.401  0.00  0.00    -0.081 HD
ENDBRANCH  20  26
ENDBRANCH  19  20
ENDBRANCH   3  19
TORSDOF 8
