REMARK  Name = ZINC20882139
REMARK  9 active torsions:
REMARK  status: ('A' for Active; 'I' for Inactive)
REMARK    1  A    between atoms: C_1  and  C_2
REMARK    2  A    between atoms: C_2  and  O_3
REMARK    3  A    between atoms: O_3  and  C_4
REMARK    4  A    between atoms: C_6  and  C_14
REMARK    5  A    between atoms: C_8  and  N_11
REMARK    6  A    between atoms: C_9  and  O_10
REMARK    7  A    between atoms: C_19  and  C_24
REMARK    8  A    between atoms: C_28  and  O_30
REMARK    9  A    between atoms: O_30  and  C_31
REMARK                            x       y       z     vdW  Elec       q    Type
REMARK                         _______ _______ _______ _____ _____    ______ ____
ROOT
ATOM      1  C   UNL     1      -5.412   3.454   0.116  0.00  0.00    +0.136 C 
ATOM      2  C   UNL     1      -4.105   2.699   0.072  0.00  0.00    +0.036 C 
ATOM      3  C   UNL     1      -3.412   2.387  -1.036  0.00  0.00    +0.017 C 
ATOM      4  C   UNL     1      -2.107   1.616  -0.937  0.00  0.00    +0.059 C 
ATOM      5  C   UNL     1      -1.386   1.977   0.361  0.00  0.00    +0.032 C 
ATOM      6  C   UNL     1      -2.312   1.609   1.526  0.00  0.00    +0.088 C 
ATOM      7  C   UNL     1      -3.615   2.328   1.346  0.00  0.00    +0.163 C 
ATOM      8  O   UNL     1      -4.274   2.601   2.330  0.00  0.00    -0.292 OA
ATOM      9  N   UNL     1      -3.794   2.699  -2.301  0.00  0.00    -0.316 N 
ATOM     10  C   UNL     1      -4.253   3.946  -2.708  0.00  0.00    +0.052 A 
ATOM     11  C   UNL     1      -3.561   4.732  -3.613  0.00  0.00    +0.025 A 
ATOM     12  C   UNL     1      -4.100   5.944  -4.011  0.00  0.00    +0.002 A 
ATOM     13  C   UNL     1      -5.319   6.363  -3.511  0.00  0.00    +0.002 A 
ATOM     14  C   UNL     1      -6.004   5.587  -2.591  0.00  0.00    +0.025 A 
ATOM     15  C   UNL     1      -5.457   4.384  -2.175  0.00  0.00    +0.049 A 
ATOM     16  N   UNL     1      -6.052   3.623  -1.170  0.00  0.00    -0.331 N 
ATOM     17  H   UNL     1      -3.752   1.937  -3.093  0.00  0.00    +0.152 HD
ATOM     18  H   UNL     1      -7.025   3.148  -1.367  0.00  0.00    +0.147 HD
ENDROOT
BRANCH   1  21
ATOM     19  C   UNL     1      -5.479   6.418   2.457  0.00  0.00    +0.164 A 
ATOM     20  C   UNL     1      -5.717   5.165   1.916  0.00  0.00    +0.055 A 
ATOM     21  C   UNL     1      -5.152   4.817   0.704  0.00  0.00    -0.017 A 
ATOM     22  C   UNL     1      -4.343   5.715   0.031  0.00  0.00    +0.042 A 
ATOM     23  C   UNL     1      -4.106   6.969   0.563  0.00  0.00    +0.171 A 
ATOM     24  C   UNL     1      -4.670   7.324   1.778  0.00  0.00    +0.189 A 
BRANCH  23  25
ATOM     25  N   UNL     1      -3.246   7.930  -0.163  0.00  0.00    +0.060 N 
ATOM     26  O   UNL     1      -2.751   7.618  -1.231  0.00  0.00    -0.126 OA
ATOM     27  O   UNL     1      -3.034   9.033   0.308  0.00  0.00    -0.126 OA
ENDBRANCH  23  25
BRANCH  24  28
ATOM     28  O   UNL     1      -4.434   8.555   2.305  0.00  0.00    -0.502 OA
ATOM     29  H   UNL     1      -3.795   9.270   1.767  0.00  0.00    +0.292 HD
ENDBRANCH  24  28
BRANCH  19  30
ATOM     30  O   UNL     1      -6.034   6.762   3.650  0.00  0.00    -0.488 OA
BRANCH  30  32
ATOM     31  C   UNL     1      -7.385   6.345   5.611  0.00  0.00    +0.048 C 
ATOM     32  C   UNL     1      -6.853   5.782   4.291  0.00  0.00    +0.226 C 
ENDBRANCH  30  32
ENDBRANCH  19  30
ENDBRANCH   1  21
BRANCH   5  33
ATOM     33  C   UNL     1      -0.100   1.198   0.465  0.00  0.00    -0.040 A 
ATOM     34  C   UNL     1      -0.128  -0.184   0.478  0.00  0.00    +0.004 A 
ATOM     35  C   UNL     1       1.050  -0.901   0.567  0.00  0.00    +0.004 A 
ATOM     36  C   UNL     1       2.260  -0.238   0.643  0.00  0.00    +0.045 A 
ATOM     37  C   UNL     1       2.291   1.149   0.631  0.00  0.00    +0.120 A 
ATOM     38  C   UNL     1       1.107   1.866   0.541  0.00  0.00    +0.049 A 
BRANCH  37  39
ATOM     39  O   UNL     1       3.479   1.804   0.706  0.00  0.00    -0.495 OA
ATOM     40  C   UNL     1       4.658   1.000   0.796  0.00  0.00    +0.277 C 
ENDBRANCH  37  39
ENDBRANCH   5  33
TORSDOF 7
