REMARK  Name = ZINC00044505
REMARK  7 active torsions:
REMARK  status: ('A' for Active; 'I' for Inactive)
REMARK    1  A    between atoms: C_1  and  C_2
REMARK    2  A    between atoms: C_3  and  C_18
REMARK    3  A    between atoms: C_4  and  C_10
REMARK    4  A    between atoms: C_15  and  O_16
REMARK    5  A    between atoms: O_16  and  C_17
REMARK    6  A    between atoms: C_18  and  O_20
REMARK    7  A    between atoms: O_20  and  C_21
REMARK                            x       y       z     vdW  Elec       q    Type
REMARK                         _______ _______ _______ _____ _____    ______ ____
ROOT
ATOM      1  C   UNL     1       0.566   1.190  -0.275  0.00  0.00    +0.061 C 
ATOM      2  C   UNL     1       0.326  -0.287  -0.100  0.00  0.00    +0.021 C 
ATOM      3  C   UNL     1      -0.938  -0.762  -0.118  0.00  0.00    +0.078 C 
ATOM      4  C   UNL     1      -1.134  -2.253   0.062  0.00  0.00    +0.147 C 
ATOM      5  N   UNL     1       0.079  -3.068   0.243  0.00  0.00    -0.288 N 
ATOM      6  C   UNL     1       1.275  -2.448   0.239  0.00  0.00    +0.304 C 
ATOM      7  O   UNL     1       2.282  -3.112   0.388  0.00  0.00    -0.252 OA
ATOM      8  N   UNL     1       1.391  -1.125   0.070  0.00  0.00    -0.273 N 
ATOM      9  H   UNL     1       0.018  -4.029   0.364  0.00  0.00    +0.151 HD
ATOM     10  H   UNL     1       2.281  -0.739   0.072  0.00  0.00    +0.156 HD
ENDROOT
BRANCH   4  11
ATOM     11  C   UNL     1      -1.867  -2.775  -1.147  0.00  0.00    +0.019 A 
ATOM     12  C   UNL     1      -1.158  -3.272  -2.224  0.00  0.00    +0.009 A 
ATOM     13  C   UNL     1      -1.829  -3.750  -3.334  0.00  0.00    +0.001 A 
ATOM     14  C   UNL     1      -3.212  -3.733  -3.369  0.00  0.00    +0.004 A 
ATOM     15  C   UNL     1      -3.925  -3.238  -2.295  0.00  0.00    +0.046 A 
ATOM     16  C   UNL     1      -3.254  -2.762  -1.178  0.00  0.00    +0.125 A 
BRANCH  16  17
ATOM     17  O   UNL     1      -3.953  -2.280  -0.117  0.00  0.00    -0.495 OA
ATOM     18  C   UNL     1      -5.376  -2.397  -0.171  0.00  0.00    +0.277 C 
ENDBRANCH  16  17
ENDBRANCH   4  11
BRANCH   3  19
ATOM     19  C   UNL     1      -2.042   0.104  -0.299  0.00  0.00    +0.339 C 
ATOM     20  O   UNL     1      -2.556   0.214  -1.397  0.00  0.00    -0.245 OA
BRANCH  19  21
ATOM     21  O   UNL     1      -2.525   0.809   0.746  0.00  0.00    -0.458 OA
BRANCH  21  22
ATOM     22  C   UNL     1      -3.708   1.577   0.518  0.00  0.00    +0.177 C 
ATOM     23  C   UNL     1      -3.334   2.980  -0.004  0.00  0.00    +0.044 C 
ATOM     24  C   UNL     1      -4.367   3.922   0.663  0.00  0.00    +0.004 C 
ATOM     25  C   UNL     1      -4.521   3.312   2.079  0.00  0.00    +0.004 C 
ATOM     26  C   UNL     1      -4.462   1.789   1.843  0.00  0.00    +0.044 C 
ENDBRANCH  21  22
ENDBRANCH  19  21
ENDBRANCH   3  19
TORSDOF 5
