REMARK  Name = ZINC12199025
REMARK  7 active torsions:
REMARK  status: ('A' for Active; 'I' for Inactive)
REMARK    1  A    between atoms: C_1  and  C_2
REMARK    2  A    between atoms: C_5  and  N_8
REMARK    3  A    between atoms: C_13  and  N_55
REMARK    4  A    between atoms: C_16  and  C_18
REMARK    5  A    between atoms: C_16  and  C_19
REMARK    6  A    between atoms: C_20  and  C_21
REMARK    7  A    between atoms: C_20  and  N_55
REMARK                            x       y       z     vdW  Elec       q    Type
REMARK                         _______ _______ _______ _____ _____    ______ ____
ROOT
ATOM      1  N   UNL     1      -0.677   3.173   0.024  0.00  0.00    -0.237 N 
ATOM      2  C   UNL     1       0.664   3.189   0.143  0.00  0.00    +0.047 A 
ATOM      3  C   UNL     1       1.101   1.906   0.081  0.00  0.00    -0.020 A 
ATOM      4  C   UNL     1      -0.009   1.079  -0.080  0.00  0.00    +0.137 A 
ATOM      5  N   UNL     1      -1.079   1.837  -0.119  0.00  0.00    -0.174 NA
ATOM      6  C   UNL     1       2.552   1.502   0.174  0.00  0.00    -0.037 C 
ATOM      7  C   UNL     1       3.417   2.744  -0.074  0.00  0.00    -0.005 C 
ATOM      8  C   UNL     1       2.931   3.891   0.816  0.00  0.00    -0.031 C 
ATOM      9  C   UNL     1       1.567   4.384   0.317  0.00  0.00    +0.062 C 
ATOM     10  C   UNL     1       2.797   3.397   2.258  0.00  0.00    +0.011 C 
ATOM     11  C   UNL     1       3.939   5.040   0.763  0.00  0.00    +0.011 C 
ENDROOT
BRANCH   1  16
ATOM     12  C   UNL     1      -4.094   7.705   0.069  0.00  0.00    +0.044 C 
ATOM     13  C   UNL     1      -3.187   6.501   0.057  0.00  0.00    -0.050 A 
ATOM     14  C   UNL     1      -1.993   6.545  -0.640  0.00  0.00    +0.005 A 
ATOM     15  C   UNL     1      -1.159   5.443  -0.652  0.00  0.00    +0.028 A 
ATOM     16  C   UNL     1      -1.521   4.293   0.035  0.00  0.00    +0.066 A 
ATOM     17  C   UNL     1      -2.722   4.251   0.730  0.00  0.00    +0.028 A 
ATOM     18  C   UNL     1      -3.550   5.357   0.743  0.00  0.00    +0.005 A 
ENDBRANCH   1  16
BRANCH   6  19
ATOM     19  N   UNL     1       2.852   0.485  -0.852  0.00  0.00    +0.388 N 
ATOM     20  H   UNL     1       3.852   0.517  -1.079  0.00  0.00    -0.084 HD
ATOM     21  H   UNL     1       2.302   0.683  -1.696  0.00  0.00    -0.084 HD
BRANCH  19  22
ATOM     22  C   UNL     1       2.509  -0.861  -0.354  0.00  0.00    -0.006 C 
BRANCH  22  23
ATOM     23  C   UNL     1       2.825  -1.877  -1.420  0.00  0.00    +0.091 A 
ATOM     24  N   UNL     1       3.987  -2.580  -1.507  0.00  0.00    -0.343 N 
ATOM     25  H   UNL     1       4.768  -2.513  -0.887  0.00  0.00    +0.167 HD
ATOM     26  C   UNL     1       3.887  -3.404  -2.611  0.00  0.00    +0.066 A 
ATOM     27  C   UNL     1       4.729  -4.336  -3.201  0.00  0.00    +0.028 A 
ATOM     28  C   UNL     1       4.320  -5.005  -4.335  0.00  0.00    +0.002 A 
ATOM     29  C   UNL     1       3.073  -4.752  -4.889  0.00  0.00    +0.002 A 
ATOM     30  C   UNL     1       2.231  -3.838  -4.322  0.00  0.00    +0.030 A 
ATOM     31  C   UNL     1       2.624  -3.149  -3.172  0.00  0.00    +0.089 A 
ATOM     32  N   UNL     1       2.029  -2.207  -2.395  0.00  0.00    -0.234 NA
ENDBRANCH  22  23
ENDBRANCH  19  22
ENDBRANCH   6  19
TORSDOF 4
