REMARK  Name = ZINC13724009
REMARK  10 active torsions:
REMARK  status: ('A' for Active; 'I' for Inactive)
REMARK    1  A    between atoms: C_1  and  C_2
REMARK    2  A    between atoms: C_5  and  C_7
REMARK    3  A    between atoms: C_9  and  C_10
REMARK    4  A    between atoms: C_10  and  C_11
REMARK    5  A    between atoms: C_17  and  O_20
REMARK    6  A    between atoms: O_20  and  C_21
REMARK    7  A    between atoms: N_27  and  C_28
REMARK    8  A    between atoms: C_28  and  C_29
REMARK    9  A    between atoms: C_29  and  C_30
REMARK   10  A    between atoms: C_30  and  N_31
REMARK                            x       y       z     vdW  Elec       q    Type
REMARK                         _______ _______ _______ _____ _____    ______ ____
ROOT
ATOM      1  C   UNL     1       1.680  -3.055  -0.080  0.00  0.00    +0.180 C 
ATOM      2  C   UNL     1       2.129  -3.546  -1.437  0.00  0.00    +0.082 C 
ATOM      3  C   UNL     1       3.481  -3.574  -1.414  0.00  0.00    +0.249 C 
ATOM      4  O   UNL     1       4.275  -3.958  -2.441  0.00  0.00    -0.282 OA
ATOM      5  C   UNL     1       3.954  -3.120  -0.090  0.00  0.00    +0.288 C 
ATOM      6  O   UNL     1       5.120  -3.034   0.242  0.00  0.00    -0.266 OA
ATOM      7  N   UNL     1       2.904  -2.815   0.693  0.00  0.00    -0.280 N 
ENDROOT
BRANCH   1  12
ATOM      8  C   UNL     1       0.600   1.818  -0.811  0.00  0.00    +0.086 C 
ATOM      9  C   UNL     1       0.429   0.345  -0.542  0.00  0.00    +0.102 A 
ATOM     10  C   UNL     1      -0.739  -0.285  -0.323  0.00  0.00    +0.045 A 
ATOM     11  C   UNL     1      -0.436  -1.650  -0.118  0.00  0.00    +0.047 A 
ATOM     12  C   UNL     1       0.899  -1.774  -0.225  0.00  0.00    +0.130 A 
ATOM     13  O   UNL     1       1.417  -0.563  -0.488  0.00  0.00    -0.463 OA
ENDBRANCH   1  12
BRANCH   2  14
ATOM     14  C   UNL     1       1.265  -3.919  -2.562  0.00  0.00    +0.230 C 
ATOM     15  O   UNL     1       1.296  -3.274  -3.594  0.00  0.00    -0.283 OA
BRANCH  14  16
ATOM     16  C   UNL     1       0.361  -5.072  -2.443  0.00  0.00    +0.176 A 
ATOM     17  C   UNL     1      -0.406  -5.573  -3.450  0.00  0.00    +0.062 A 
ATOM     18  C   UNL     1      -1.132  -6.706  -2.879  0.00  0.00    +0.025 A 
ATOM     19  C   UNL     1      -2.062  -7.621  -3.384  0.00  0.00    +0.012 A 
ATOM     20  C   UNL     1      -2.570  -8.592  -2.569  0.00  0.00    +0.004 A 
ATOM     21  C   UNL     1      -2.172  -8.677  -1.242  0.00  0.00    +0.049 A 
ATOM     22  C   UNL     1      -1.255  -7.783  -0.721  0.00  0.00    +0.163 A 
ATOM     23  C   UNL     1      -0.722  -6.784  -1.536  0.00  0.00    +0.177 A 
ATOM     24  O   UNL     1       0.171  -5.797  -1.322  0.00  0.00    -0.448 OA
BRANCH  22  25
ATOM     25  O   UNL     1      -0.873  -7.877   0.581  0.00  0.00    -0.491 OA
ATOM     26  C   UNL     1      -1.460  -8.925   1.355  0.00  0.00    +0.277 C 
ENDBRANCH  22  25
ENDBRANCH  14  16
ENDBRANCH   2  14
BRANCH   7  27
ATOM     27  C   UNL     1       2.970  -2.329   2.074  0.00  0.00    +0.111 C 
BRANCH  27  28
ATOM     28  C   UNL     1       2.956  -3.519   3.035  0.00  0.00    +0.040 C 
BRANCH  28  29
ATOM     29  C   UNL     1       3.026  -3.011   4.476  0.00  0.00    +0.124 C 
BRANCH  29  30
ATOM     30  N   UNL     1       3.012  -4.151   5.396  0.00  0.00    -0.338 N 
ATOM     31  C   UNL     1       1.904  -4.744   5.940  0.00  0.00    +0.104 A 
ATOM     32  C   UNL     1       2.344  -5.747   6.723  0.00  0.00    +0.101 A 
ATOM     33  N   UNL     1       3.683  -5.767   6.659  0.00  0.00    -0.352 N 
ATOM     34  C   UNL     1       4.090  -4.817   5.863  0.00  0.00    +0.173 A 
ATOM     35  H   UNL     1       4.258  -6.392   7.128  0.00  0.00    +0.166 HD
ENDBRANCH  29  30
ENDBRANCH  28  29
ENDBRANCH  27  28
ENDBRANCH   7  27
TORSDOF 8
