REMARK  Name = ZINC19857907
REMARK  7 active torsions:
REMARK  status: ('A' for Active; 'I' for Inactive)
REMARK    1  A    between atoms: C_1  and  C_2
REMARK    2  A    between atoms: C_2  and  O_3
REMARK    3  A    between atoms: O_3  and  C_4
REMARK    4  A    between atoms: C_4  and  C_6
REMARK    5  A    between atoms: C_7  and  C_21
REMARK    6  A    between atoms: C_12  and  C_14
REMARK    7  A    between atoms: C_21  and  N_22
REMARK                            x       y       z     vdW  Elec       q    Type
REMARK                         _______ _______ _______ _____ _____    ______ ____
ROOT
ATOM      1  C   UNL     1      -0.700   1.345   1.254  0.00  0.00    +0.079 C 
ATOM      2  C   UNL     1      -1.645   2.309   1.284  0.00  0.00    +0.038 C 
ATOM      3  N   UNL     1      -2.113   2.873   0.132  0.00  0.00    -0.271 N 
ATOM      4  C   UNL     1      -1.688   2.526  -1.090  0.00  0.00    +0.304 C 
ATOM      5  O   UNL     1      -2.165   3.085  -2.059  0.00  0.00    -0.252 OA
ATOM      6  N   UNL     1      -0.749   1.578  -1.281  0.00  0.00    -0.288 N 
ATOM      7  C   UNL     1      -0.179   0.909  -0.100  0.00  0.00    +0.144 C 
ATOM      8  H   UNL     1      -2.882   3.658   0.176  0.00  0.00    +0.156 HD
ATOM      9  H   UNL     1      -0.408   1.301  -2.289  0.00  0.00    +0.151 HD
ENDROOT
BRANCH   7  10
ATOM     10  C   UNL     1       1.312   1.129  -0.116  0.00  0.00    -0.022 A 
ATOM     11  C   UNL     1       1.823   2.376  -0.423  0.00  0.00    +0.007 A 
ATOM     12  C   UNL     1       3.190   2.579  -0.433  0.00  0.00    +0.020 A 
ATOM     13  C   UNL     1       4.047   1.532  -0.146  0.00  0.00    +0.041 A 
ATOM     14  C   UNL     1       3.535   0.283   0.156  0.00  0.00    +0.020 A 
ATOM     15  C   UNL     1       2.168   0.082   0.171  0.00  0.00    +0.007 A 
ATOM     16 CL   UNL     1       5.765   1.785  -0.165  0.00  0.00    -0.084 Cl
ENDBRANCH   7  10
BRANCH   1  17
ATOM     17  C   UNL     1      -0.215   0.761   2.448  0.00  0.00    +0.339 C 
ATOM     18  O   UNL     1      -0.727   1.043   3.515  0.00  0.00    -0.245 OA
BRANCH  17  19
ATOM     19  O   UNL     1       0.815  -0.110   2.402  0.00  0.00    -0.462 OA
BRANCH  19  21
ATOM     20  C   UNL     1       2.419  -1.619   3.396  0.00  0.00    +0.048 C 
ATOM     21  C   UNL     1       1.252  -0.662   3.646  0.00  0.00    +0.229 C 
ENDBRANCH  19  21
ENDBRANCH  17  19
ENDBRANCH   1  17
BRANCH   2  22
ATOM     22  C   UNL     1      -2.191   2.772   2.610  0.00  0.00    +0.136 C 
BRANCH  22  23
ATOM     23  N   UNL     1      -3.282   1.881   3.028  0.00  0.00    -0.294 NA
ATOM     24  C   UNL     1      -4.432   1.997   2.120  0.00  0.00    +0.104 C 
ATOM     25  C   UNL     1      -5.513   0.999   2.542  0.00  0.00    +0.125 C 
ATOM     26  N   UNL     1      -5.912   1.270   3.930  0.00  0.00    -0.283 N 
ATOM     27  C   UNL     1      -4.762   1.154   4.838  0.00  0.00    +0.125 C 
ATOM     28  C   UNL     1      -3.681   2.152   4.416  0.00  0.00    +0.104 C 
ATOM     29  C   UNL     1      -6.935   0.435   4.321  0.00  0.00    +0.291 A 
ATOM     30  N   UNL     1      -6.896  -0.363   5.357  0.00  0.00    -0.195 NA
ATOM     31  C   UNL     1      -8.080  -1.030   5.438  0.00  0.00    +0.111 A 
ATOM     32  C   UNL     1      -8.591  -1.984   6.320  0.00  0.00    +0.031 A 
ATOM     33  C   UNL     1      -9.858  -2.486   6.124  0.00  0.00    +0.002 A 
ATOM     34  C   UNL     1     -10.629  -2.050   5.057  0.00  0.00    +0.004 A 
ATOM     35  C   UNL     1     -10.136  -1.107   4.178  0.00  0.00    +0.048 A 
ATOM     36  C   UNL     1      -8.863  -0.591   4.360  0.00  0.00    +0.157 A 
ATOM     37  O   UNL     1      -8.117   0.317   3.691  0.00  0.00    -0.424 OA
ENDBRANCH  22  23
ENDBRANCH   2  22
TORSDOF 6
