REMARK  Name = ZINC62776404
REMARK  4 active torsions:
REMARK  status: ('A' for Active; 'I' for Inactive)
REMARK    1  A    between atoms: C_1  and  N_2
REMARK    2  A    between atoms: N_2  and  C_3
REMARK    3  A    between atoms: C_3  and  C_5
REMARK    4  A    between atoms: C_3  and  C_12
REMARK                            x       y       z     vdW  Elec       q    Type
REMARK                         _______ _______ _______ _____ _____    ______ ____
ROOT
ATOM      1  C   UNL     1       0.713  -0.491   1.192  0.00  0.00    -0.006 C 
ENDROOT
BRANCH   1   2
ATOM      2  C   UNL     1       0.841  -1.991   1.123  0.00  0.00    -0.035 A 
ATOM      3  C   UNL     1       0.008  -2.729   0.302  0.00  0.00    +0.026 A 
ATOM      4  C   UNL     1       0.150  -4.077   0.263  0.00  0.00    +0.056 A 
ATOM      5  S   UNL     1       1.492  -4.340   1.410  0.00  0.00    -0.074 S 
ATOM      6  C   UNL     1       1.778  -2.636   1.859  0.00  0.00    +0.058 A 
ATOM      7 BR   UNL     1       3.055  -1.919   3.055  0.00  0.00    -0.042 Br
ATOM      8 BR   UNL     1      -0.823  -5.348  -0.744  0.00  0.00    -0.043 Br
ENDBRANCH   1   2
BRANCH   1   9
ATOM      9  C   UNL     1      -0.059  -0.109   2.429  0.00  0.00    -0.020 A 
ATOM     10  C   UNL     1       0.470   0.334   3.593  0.00  0.00    +0.107 A 
ATOM     11  N   UNL     1      -0.549   0.564   4.447  0.00  0.00    -0.285 N 
ATOM     12  H   UNL     1      -0.468   0.889   5.357  0.00  0.00    +0.188 HD
ATOM     13  N   UNL     1      -1.744   0.253   3.786  0.00  0.00    -0.182 NA
ATOM     14  C   UNL     1      -1.450  -0.145   2.575  0.00  0.00    +0.136 A 
ENDBRANCH   1   9
BRANCH   1  16
ATOM     15  C   UNL     1      -0.018   1.465   0.010  0.00  0.00    -0.099 C 
ATOM     16  N   UNL     1       0.002  -0.004   0.002  0.00  0.00    +0.385 N 
ATOM     17  H   UNL     1      -0.945  -0.353   0.009  0.00  0.00    -0.085 HD
ATOM     18  H   UNL     1       0.474  -0.330  -0.828  0.00  0.00    -0.085 HD
ENDBRANCH   1  16
TORSDOF 3
