REMARK  Name = ZINC63697148
REMARK  7 active torsions:
REMARK  status: ('A' for Active; 'I' for Inactive)
REMARK    1  A    between atoms: C_1  and  C_2
REMARK    2  A    between atoms: C_2  and  N_3
REMARK    3  A    between atoms: N_3  and  C_4
REMARK    4  A    between atoms: N_3  and  C_6
REMARK    5  A    between atoms: C_4  and  C_5
REMARK    6  A    between atoms: C_9  and  C_12
REMARK    7  A    between atoms: C_27  and  C_29
REMARK                            x       y       z     vdW  Elec       q    Type
REMARK                         _______ _______ _______ _____ _____    ______ ____
ROOT
ATOM      1  C   UNL     1      -3.925  -1.522   4.981  0.00  0.00    +0.247 C 
ATOM      2  O   UNL     1      -3.360  -1.372   6.047  0.00  0.00    -0.270 OA
ATOM      3  N   UNL     1      -5.218  -1.902   4.951  0.00  0.00    -0.288 N 
ATOM      4  C   UNL     1      -5.863  -2.178   3.663  0.00  0.00    +0.113 C 
ATOM      5  C   UNL     1      -7.096  -1.269   3.502  0.00  0.00    +0.052 C 
ATOM      6  C   UNL     1      -7.844  -1.319   4.811  0.00  0.00    -0.035 C 
ATOM      7  C   UNL     1      -9.118  -1.575   5.085  0.00  0.00    -0.001 A 
ATOM      8  C   UNL     1     -10.283  -1.794   4.212  0.00  0.00    +0.010 A 
ATOM      9  C   UNL     1     -11.460  -2.056   4.838  0.00  0.00    +0.001 A 
ATOM     10  C   UNL     1     -11.594  -2.122   6.229  0.00  0.00    +0.002 A 
ATOM     11  C   UNL     1     -10.578  -1.926   7.107  0.00  0.00    +0.026 A 
ATOM     12  C   UNL     1      -9.292  -1.634   6.568  0.00  0.00    +0.043 A 
ATOM     13  N   UNL     1      -8.165  -1.384   7.168  0.00  0.00    -0.375 N 
ATOM     14  C   UNL     1      -7.160  -1.076   6.151  0.00  0.00    +0.131 C 
ATOM     15  C   UNL     1      -5.965  -2.041   6.211  0.00  0.00    +0.133 C 
ATOM     16  H   UNL     1      -8.017  -1.398   8.126  0.00  0.00    +0.160 HD
ENDROOT
BRANCH  15  17
ATOM     17  C   UNL     1      -6.457  -3.458   6.358  0.00  0.00    -0.025 A 
ATOM     18  C   UNL     1      -6.109  -4.197   7.474  0.00  0.00    +0.008 A 
ATOM     19  C   UNL     1      -6.560  -5.496   7.610  0.00  0.00    +0.038 A 
ATOM     20  C   UNL     1      -7.361  -6.058   6.630  0.00  0.00    +0.123 A 
ATOM     21  C   UNL     1      -7.708  -5.316   5.513  0.00  0.00    +0.038 A 
ATOM     22  C   UNL     1      -7.261  -4.016   5.381  0.00  0.00    +0.008 A 
ATOM     23  F   UNL     1      -7.801  -7.328   6.762  0.00  0.00    -0.205 F 
ENDBRANCH  15  17
BRANCH   1  27
ATOM     24  C   UNL     1      -1.826  -0.846   1.352  0.00  0.00    +0.030 A 
ATOM     25  C   UNL     1      -1.758   0.092   2.379  0.00  0.00    +0.024 A 
ATOM     26  C   UNL     1      -2.438  -0.124   3.556  0.00  0.00    +0.015 A 
ATOM     27  C   UNL     1      -3.196  -1.287   3.720  0.00  0.00    +0.037 A 
ATOM     28  C   UNL     1      -3.262  -2.227   2.688  0.00  0.00    +0.015 A 
ATOM     29  C   UNL     1      -2.584  -2.002   1.511  0.00  0.00    +0.024 A 
BRANCH  24  30
ATOM     30  N   UNL     1      -1.138  -0.625   0.164  0.00  0.00    -0.330 N 
BRANCH  30  32
ATOM     31  C   UNL     1      -1.212   1.697  -0.602  0.00  0.00    +0.024 C 
ATOM     32  C   UNL     1      -0.339   0.592  -0.004  0.00  0.00    +0.102 C 
ENDBRANCH  30  32
BRANCH  30  33
ATOM     33  C   UNL     1      -1.212  -1.608  -0.919  0.00  0.00    +0.102 C 
ATOM     34  C   UNL     1      -0.087  -2.632  -0.757  0.00  0.00    +0.024 C 
ENDBRANCH  30  33
ENDBRANCH  24  30
ENDBRANCH   1  27
TORSDOF 5
