REMARK  Name = ZINC42951963
REMARK  5 active torsions:
REMARK  status: ('A' for Active; 'I' for Inactive)
REMARK    1  A    between atoms: C_1  and  C_2
REMARK    2  A    between atoms: C_2  and  C_4
REMARK    3  A    between atoms: C_2  and  N_22
REMARK    4  A    between atoms: C_4  and  C_6
REMARK    5  A    between atoms: C_4  and  N_13
REMARK                            x       y       z     vdW  Elec       q    Type
REMARK                         _______ _______ _______ _____ _____    ______ ____
ROOT
ATOM      1  C   UNL     1       0.742  -0.511   1.242  0.00  0.00    +0.072 C 
ENDROOT
BRANCH   1   2
ATOM      2  N   UNL     1       0.726  -1.950   0.945  0.00  0.00    -0.292 NA
ATOM      3  C   UNL     1       1.052  -2.738   2.142  0.00  0.00    +0.090 C 
ATOM      4  C   UNL     1       0.628  -4.197   1.906  0.00  0.00    +0.058 C 
ATOM      5  C   UNL     1       1.116  -4.599   0.552  0.00  0.00    -0.005 A 
ATOM      6  C   UNL     1       1.574  -3.770  -0.427  0.00  0.00    -0.023 A 
ATOM      7  C   UNL     1       1.982  -4.375  -1.613  0.00  0.00    +0.013 A 
ATOM      8  C   UNL     1       1.909  -5.720  -1.748  0.00  0.00    +0.046 A 
ATOM      9  S   UNL     1       1.244  -6.213  -0.165  0.00  0.00    -0.101 S 
ATOM     10  C   UNL     1       1.613  -2.265  -0.182  0.00  0.00    +0.121 C 
ENDBRANCH   1   2
BRANCH   1  11
ATOM     11  C   UNL     1       2.152  -0.076   1.546  0.00  0.00    -0.032 A 
ATOM     12  C   UNL     1       2.522   0.207   2.848  0.00  0.00    +0.006 A 
ATOM     13  C   UNL     1       3.816   0.605   3.128  0.00  0.00    +0.015 A 
ATOM     14  C   UNL     1       4.741   0.720   2.106  0.00  0.00    +0.018 A 
ATOM     15  C   UNL     1       4.370   0.435   0.804  0.00  0.00    +0.015 A 
ATOM     16  C   UNL     1       3.078   0.033   0.525  0.00  0.00    +0.006 A 
ATOM     17 BR   UNL     1       6.511   1.265   2.489  0.00  0.00    -0.050 Br
ENDBRANCH   1  11
BRANCH   1  19
ATOM     18  C   UNL     1       0.237   1.764   0.340  0.00  0.00    -0.012 C 
ATOM     19  C   UNL     1       0.220   0.265   0.031  0.00  0.00    -0.056 C 
BRANCH  19  20
ATOM     20  N   UNL     1      -1.155  -0.158  -0.266  0.00  0.00    +0.381 N 
ATOM     21  H   UNL     1      -1.499   0.353  -1.065  0.00  0.00    -0.090 HD
ATOM     22  H   UNL     1      -1.166  -1.146  -0.470  0.00  0.00    -0.090 HD
ATOM     23  H   UNL     1      -1.744   0.027   0.531  0.00  0.00    -0.090 HD
ENDBRANCH  19  20
ENDBRANCH   1  19
TORSDOF 4
