REMARK  Name = ZINC36157471
REMARK  8 active torsions:
REMARK  status: ('A' for Active; 'I' for Inactive)
REMARK    1  A    between atoms: C_1  and  C_2
REMARK    2  A    between atoms: C_2  and  C_3
REMARK    3  A    between atoms: C_3  and  C_4
REMARK    4  A    between atoms: C_4  and  N_5
REMARK    5  A    between atoms: C_6  and  N_16
REMARK    6  A    between atoms: N_16  and  C_17
REMARK    7  A    between atoms: C_22  and  C_27
REMARK    8  A    between atoms: C_24  and  C_26
REMARK                            x       y       z     vdW  Elec       q    Type
REMARK                         _______ _______ _______ _____ _____    ______ ____
ROOT
ATOM      1  N   UNL     1      -2.792  -2.553   0.029  0.00  0.00    -0.307 N 
ATOM      2  C   UNL     1      -3.614  -3.067   1.130  0.00  0.00    +0.051 C 
ATOM      3  C   UNL     1      -4.824  -3.703   0.493  0.00  0.00    -0.032 A 
ATOM      4  C   UNL     1      -5.930  -4.344   1.001  0.00  0.00    +0.004 A 
ATOM      5  C   UNL     1      -6.900  -4.836   0.143  0.00  0.00    +0.000 A 
ATOM      6  C   UNL     1      -6.759  -4.685  -1.225  0.00  0.00    +0.001 A 
ATOM      7  C   UNL     1      -5.654  -4.044  -1.745  0.00  0.00    +0.013 A 
ATOM      8  C   UNL     1      -4.672  -3.546  -0.887  0.00  0.00    +0.040 A 
ATOM      9  C   UNL     1      -3.408  -2.826  -1.134  0.00  0.00    +0.246 C 
ATOM     10  O   UNL     1      -2.983  -2.526  -2.233  0.00  0.00    -0.270 OA
ENDROOT
BRANCH   2  11
ATOM     11  N   UNL     1      -2.861  -4.069   1.897  0.00  0.00    +0.396 N 
ATOM     12  H   UNL     1      -2.703  -4.883   1.323  0.00  0.00    -0.082 HD
ATOM     13  H   UNL     1      -1.974  -3.679   2.180  0.00  0.00    -0.082 HD
BRANCH  11  14
ATOM     14  C   UNL     1      -3.629  -4.452   3.089  0.00  0.00    -0.066 C 
ATOM     15  C   UNL     1      -3.739  -3.252   4.033  0.00  0.00    -0.015 C 
ATOM     16  C   UNL     1      -4.539  -3.652   5.274  0.00  0.00    -0.001 C 
ATOM     17  C   UNL     1      -3.829  -4.801   5.991  0.00  0.00    +0.003 C 
ATOM     18  C   UNL     1      -3.719  -6.001   5.048  0.00  0.00    -0.013 C 
ATOM     19  C   UNL     1      -2.918  -5.601   3.806  0.00  0.00    -0.025 C 
ATOM     20  C   UNL     1      -1.517  -5.152   4.225  0.00  0.00    +0.006 C 
ATOM     21  C   UNL     1      -3.008  -7.150   5.765  0.00  0.00    +0.008 C 
ENDBRANCH  11  14
ENDBRANCH   2  11
BRANCH   1  22
ATOM     22  C   UNL     1      -1.514  -1.851   0.173  0.00  0.00    +0.106 C 
BRANCH  22  23
ATOM     23  C   UNL     1      -1.758  -0.341   0.175  0.00  0.00    +0.019 C 
BRANCH  23  25
ATOM     24  C   UNL     1      -0.668   1.902   0.328  0.00  0.00    +0.004 C 
ATOM     25  C   UNL     1      -0.424   0.391   0.326  0.00  0.00    -0.002 C 
ENDBRANCH  23  25
ENDBRANCH  22  23
ENDBRANCH   1  22
TORSDOF 5
