REMARK  Name = ZINC12979480
REMARK  10 active torsions:
REMARK  status: ('A' for Active; 'I' for Inactive)
REMARK    1  A    between atoms: C_1  and  C_2
REMARK    2  A    between atoms: C_4  and  C_30
REMARK    3  A    between atoms: C_5  and  N_9
REMARK    4  A    between atoms: C_6  and  C_8
REMARK    5  A    between atoms: C_10  and  C_12
REMARK    6  A    between atoms: C_12  and  N_13
REMARK    7  A    between atoms: N_13  and  C_14
REMARK    8  A    between atoms: C_15  and  C_17
REMARK    9  A    between atoms: C_17  and  C_18
REMARK   10  A    between atoms: C_18  and  N_19
REMARK                            x       y       z     vdW  Elec       q    Type
REMARK                         _______ _______ _______ _____ _____    ______ ____
ROOT
ATOM      1  N   UNL     1      -3.084   9.345  -4.120  0.00  0.00    -0.296 N 
ATOM      2  C   UNL     1      -3.531   9.292  -5.514  0.00  0.00    +0.132 C 
ATOM      3  C   UNL     1      -2.065   8.564  -3.710  0.00  0.00    +0.217 C 
ATOM      4  O   UNL     1      -1.695   8.608  -2.556  0.00  0.00    -0.276 OA
ENDROOT
BRANCH   1   5
ATOM      5  C   UNL     1      -3.744  10.247  -3.173  0.00  0.00    +0.203 C 
BRANCH   5   7
ATOM      6  N   UNL     1      -3.484  12.577  -2.385  0.00  0.00    -0.284 N 
ATOM      7  C   UNL     1      -3.047  11.583  -3.183  0.00  0.00    +0.235 C 
ATOM      8  O   UNL     1      -2.094  11.764  -3.911  0.00  0.00    -0.274 OA
ATOM      9  H   UNL     1      -4.278  12.450  -1.842  0.00  0.00    +0.155 HD
BRANCH   6  14
ATOM     10  C   UNL     1      -0.679  17.504  -2.193  0.00  0.00    +0.044 C 
ATOM     11  C   UNL     1      -1.424  16.195  -2.244  0.00  0.00    -0.050 A 
ATOM     12  C   UNL     1      -2.786  16.186  -2.484  0.00  0.00    +0.008 A 
ATOM     13  C   UNL     1      -3.472  14.988  -2.532  0.00  0.00    -0.029 A 
ATOM     14  C   UNL     1      -2.792  13.792  -2.338  0.00  0.00    +0.039 A 
ATOM     15  C   UNL     1      -1.425  13.806  -2.092  0.00  0.00    -0.029 A 
ATOM     16  C   UNL     1      -0.745  15.007  -2.051  0.00  0.00    +0.008 A 
ATOM     17  C   UNL     1      -0.685  12.511  -1.876  0.00  0.00    +0.045 C 
ATOM     18  C   UNL     1      -4.956  14.978  -2.793  0.00  0.00    +0.045 C 
ENDBRANCH   6  14
ENDBRANCH   5   7
ENDBRANCH   1   5
BRANCH   3  19
ATOM     19  C   UNL     1      -1.387   7.636  -4.684  0.00  0.00    +0.117 C 
BRANCH  19  20
ATOM     20  C   UNL     1      -0.273   6.870  -3.968  0.00  0.00    +0.138 C 
BRANCH  20  21
ATOM     21  N   UNL     1       0.387   5.968  -4.915  0.00  0.00    -0.274 N 
ATOM     22  C   UNL     1       0.029   4.646  -5.182  0.00  0.00    +0.090 A 
ATOM     23  C   UNL     1      -0.969   3.814  -4.699  0.00  0.00    +0.031 A 
ATOM     24  C   UNL     1      -1.076   2.522  -5.173  0.00  0.00    +0.022 A 
ATOM     25  C   UNL     1      -0.183   2.052  -6.123  0.00  0.00    +0.045 A 
ATOM     26  C   UNL     1       0.814   2.876  -6.609  0.00  0.00    +0.068 A 
ATOM     27  C   UNL     1       0.925   4.177  -6.142  0.00  0.00    +0.158 A 
ATOM     28  O   UNL     1       1.778   5.191  -6.426  0.00  0.00    -0.407 OA
ATOM     29  C   UNL     1       1.451   6.263  -5.687  0.00  0.00    +0.421 A 
ATOM     30  O   UNL     1       2.027   7.334  -5.711  0.00  0.00    -0.223 OA
ATOM     31 CL   UNL     1      -0.322   0.424  -6.708  0.00  0.00    -0.083 Cl
ENDBRANCH  20  21
ENDBRANCH  19  20
ENDBRANCH   3  19
TORSDOF 6
