REMARK  Name = ZINC12602180
REMARK  8 active torsions:
REMARK  status: ('A' for Active; 'I' for Inactive)
REMARK    1  A    between atoms: C_1  and  C_2
REMARK    2  A    between atoms: C_2  and  C_28
REMARK    3  A    between atoms: N_9  and  C_27
REMARK    4  A    between atoms: C_11  and  C_12
REMARK    5  A    between atoms: C_12  and  C_14
REMARK    6  A    between atoms: C_14  and  S_15
REMARK    7  A    between atoms: S_15  and  C_16
REMARK    8  A    between atoms: N_20  and  C_21
REMARK                            x       y       z     vdW  Elec       q    Type
REMARK                         _______ _______ _______ _____ _____    ______ ____
ROOT
ATOM      1  C   UNL     1       1.867   7.945  -3.722  0.00  0.00    +0.168 C 
ATOM      2  O   UNL     1       1.235   8.088  -2.694  0.00  0.00    -0.292 OA
ENDROOT
BRANCH   1  13
ATOM      3  C   UNL     1       3.179  12.112  -4.108  0.00  0.00    +0.022 C 
ATOM      4  C   UNL     1       2.266  11.469  -5.154  0.00  0.00    +0.030 C 
ATOM      5  C   UNL     1       1.023  12.304  -5.360  0.00  0.00    -0.015 A 
ATOM      6  C   UNL     1       0.829  13.595  -5.799  0.00  0.00    +0.006 A 
ATOM      7  C   UNL     1      -0.453  14.110  -5.882  0.00  0.00    +0.000 A 
ATOM      8  C   UNL     1      -1.535  13.326  -5.525  0.00  0.00    +0.002 A 
ATOM      9  C   UNL     1      -1.343  12.033  -5.085  0.00  0.00    +0.024 A 
ATOM     10  C   UNL     1      -0.055  11.507  -4.998  0.00  0.00    +0.038 A 
ATOM     11  N   UNL     1       0.387  10.249  -4.590  0.00  0.00    -0.305 N 
ATOM     12  C   UNL     1       1.741  10.140  -4.655  0.00  0.00    +0.024 C 
ATOM     13  C   UNL     1       2.479   9.051  -4.328  0.00  0.00    +0.067 C 
ATOM     14  C   UNL     1      -0.502   9.173  -4.145  0.00  0.00    +0.135 C 
ATOM     15  C   UNL     1       3.011  11.287  -6.478  0.00  0.00    +0.022 C 
ENDBRANCH   1  13
BRANCH   1  16
ATOM     16  C   UNL     1       1.994   6.579  -4.345  0.00  0.00    +0.156 C 
BRANCH  16  17
ATOM     17  S   UNL     1       1.102   5.370  -3.335  0.00  0.00    -0.076 S 
BRANCH  17  18
ATOM     18  C   UNL     1       1.408   3.907  -4.268  0.00  0.00    +0.214 A 
ATOM     19  N   UNL     1       2.105   3.818  -5.380  0.00  0.00    -0.101 NA
ATOM     20  N   UNL     1       2.132   2.605  -5.800  0.00  0.00    -0.022 NA
ATOM     21  N   UNL     1       1.472   1.837  -5.003  0.00  0.00    -0.038 NA
ATOM     22  N   UNL     1       0.967   2.652  -3.975  0.00  0.00    -0.187 N 
BRANCH  22  23
ATOM     23  C   UNL     1       0.184   2.257  -2.880  0.00  0.00    +0.070 A 
ATOM     24  C   UNL     1      -0.755   1.246  -3.026  0.00  0.00    +0.028 A 
ATOM     25  C   UNL     1      -1.525   0.858  -1.946  0.00  0.00    +0.002 A 
ATOM     26  C   UNL     1      -1.363   1.480  -0.722  0.00  0.00    +0.000 A 
ATOM     27  C   UNL     1      -0.424   2.484  -0.572  0.00  0.00    +0.002 A 
ATOM     28  C   UNL     1       0.348   2.876  -1.648  0.00  0.00    +0.028 A 
ENDBRANCH  22  23
ENDBRANCH  17  18
ENDBRANCH  16  17
ENDBRANCH   1  16
TORSDOF 5
