REMARK  Name = ZINC13495592
REMARK  11 active torsions:
REMARK  status: ('A' for Active; 'I' for Inactive)
REMARK    1  A    between atoms: C_1  and  C_2
REMARK    2  A    between atoms: C_2  and  C_3
REMARK    3  A    between atoms: C_3  and  C_5
REMARK    4  A    between atoms: C_3  and  N_16
REMARK    5  A    between atoms: N_9  and  C_10
REMARK    6  A    between atoms: C_10  and  C_11
REMARK    7  A    between atoms: N_16  and  C_17
REMARK    8  A    between atoms: N_16  and  C_23
REMARK    9  A    between atoms: C_17  and  C_18
REMARK   10  A    between atoms: C_23  and  C_24
REMARK   11  A    between atoms: C_30  and  C_36
REMARK                            x       y       z     vdW  Elec       q    Type
REMARK                         _______ _______ _______ _____ _____    ______ ____
ROOT
ATOM      1  N   UNL     1      -0.331  -0.144  -2.643  0.00  0.00    -0.281 NA
ENDROOT
BRANCH   1   2
ATOM      2  C   UNL     1       0.580  -0.818  -1.708  0.00  0.00    +0.127 C 
BRANCH   2   3
ATOM      3  C   UNL     1       0.824  -2.230  -2.174  0.00  0.00    +0.169 A 
ATOM      4  N   UNL     1      -0.076  -3.079  -2.605  0.00  0.00    -0.112 NA
ATOM      5  N   UNL     1       0.525  -4.177  -2.909  0.00  0.00    -0.023 NA
ATOM      6  N   UNL     1       1.786  -4.051  -2.682  0.00  0.00    -0.043 NA
ATOM      7  N   UNL     1       2.011  -2.863  -2.233  0.00  0.00    -0.220 N 
BRANCH   7   8
ATOM      8  C   UNL     1       3.313  -2.308  -1.855  0.00  0.00    +0.221 C 
BRANCH   8   9
ATOM      9  C   UNL     1       3.575  -2.588  -0.398  0.00  0.00    +0.126 A 
ATOM     10  C   UNL     1       4.196  -3.674   0.095  0.00  0.00    +0.046 A 
ATOM     11  C   UNL     1       4.225  -3.527   1.501  0.00  0.00    +0.041 A 
ATOM     12  C   UNL     1       3.619  -2.360   1.783  0.00  0.00    +0.195 A 
ATOM     13  O   UNL     1       3.233  -1.792   0.629  0.00  0.00    -0.466 OA
ENDBRANCH   8   9
ENDBRANCH   7   8
ENDBRANCH   2   3
BRANCH   2  15
ATOM     14  C   UNL     1      -0.242   0.591   0.185  0.00  0.00    +0.006 C 
ATOM     15  C   UNL     1      -0.049  -0.843  -0.313  0.00  0.00    +0.023 C 
ENDBRANCH   2  15
ENDBRANCH   1   2
BRANCH   1  16
ATOM     16  C   UNL     1      -1.725  -0.534  -2.394  0.00  0.00    +0.159 C 
BRANCH  16  17
ATOM     17  C   UNL     1      -2.574  -0.148  -3.578  0.00  0.00    +0.119 A 
ATOM     18  C   UNL     1      -2.861  -0.936  -4.629  0.00  0.00    +0.046 A 
ATOM     19  C   UNL     1      -3.680  -0.177  -5.497  0.00  0.00    +0.041 A 
ATOM     20  C   UNL     1      -3.844   1.028  -4.924  0.00  0.00    +0.195 A 
ATOM     21  O   UNL     1      -3.176   1.038  -3.759  0.00  0.00    -0.467 OA
ENDBRANCH  16  17
ENDBRANCH   1  16
BRANCH   1  22
ATOM     22  C   UNL     1      -0.172   1.314  -2.574  0.00  0.00    +0.126 C 
BRANCH  22  23
ATOM     23  C   UNL     1       1.069   1.721  -3.326  0.00  0.00    +0.031 A 
ATOM     24  C   UNL     1       0.981   2.078  -4.631  0.00  0.00    +0.020 A 
ATOM     25  C   UNL     1       2.205   2.468  -5.334  0.00  0.00    -0.001 A 
ATOM     26  C   UNL     1       2.178   2.846  -6.680  0.00  0.00    +0.010 A 
ATOM     27  C   UNL     1       3.337   3.205  -7.307  0.00  0.00    +0.001 A 
ATOM     28  C   UNL     1       4.543   3.197  -6.619  0.00  0.00    +0.005 A 
ATOM     29  C   UNL     1       4.594   2.828  -5.293  0.00  0.00    -0.026 A 
ATOM     30  C   UNL     1       3.426   2.459  -4.633  0.00  0.00    +0.052 A 
ATOM     31  N   UNL     1       3.448   2.086  -3.306  0.00  0.00    -0.322 N 
ATOM     32  H   UNL     1       4.290   2.080  -2.825  0.00  0.00    +0.169 HD
ATOM     33  C   UNL     1       2.318   1.734  -2.668  0.00  0.00    +0.254 A 
ATOM     34  O   UNL     1       2.374   1.415  -1.493  0.00  0.00    -0.268 OA
ATOM     35  C   UNL     1       5.911   2.822  -4.559  0.00  0.00    +0.046 C 
ENDBRANCH  22  23
ENDBRANCH   1  22
TORSDOF 9
