REMARK  Name = ZINC11881436
REMARK  7 active torsions:
REMARK  status: ('A' for Active; 'I' for Inactive)
REMARK    1  A    between atoms: C_1  and  N_2
REMARK    2  A    between atoms: N_2  and  C_3
REMARK    3  A    between atoms: C_3  and  C_5
REMARK    4  A    between atoms: C_3  and  C_13
REMARK    5  A    between atoms: C_5  and  C_6
REMARK    6  A    between atoms: C_18  and  N_58
REMARK    7  A    between atoms: C_24  and  C_26
REMARK                            x       y       z     vdW  Elec       q    Type
REMARK                         _______ _______ _______ _____ _____    ______ ____
ROOT
ATOM      1  C   UNL     1      -3.521   3.100  -0.418  0.00  0.00    +0.083 C 
ENDROOT
BRANCH   1   2
ATOM      2  C   UNL     1      -3.131   3.936  -1.638  0.00  0.00    +0.006 C 
ATOM      3  C   UNL     1      -4.282   4.878  -2.002  0.00  0.00    -0.013 C 
ATOM      4  C   UNL     1      -3.909   5.668  -3.259  0.00  0.00    -0.078 C 
ATOM      5  C   UNL     1      -2.514   3.854  -4.056  0.00  0.00    -0.078 C 
ATOM      6  C   UNL     1      -2.845   3.010  -2.823  0.00  0.00    -0.013 C 
ATOM      7  N   UNL     1      -3.671   4.721  -4.369  0.00  0.00    +0.382 N 
ATOM      8  H   UNL     1      -4.504   4.133  -4.490  0.00  0.00    -0.081 HD
BRANCH   7   9
ATOM      9  C   UNL     1      -3.421   5.463  -5.621  0.00  0.00    -0.058 C 
ATOM     10  C   UNL     1      -4.560   6.462  -5.821  0.00  0.00    -0.004 C 
ATOM     11  C   UNL     1      -4.789   6.722  -7.337  0.00  0.00    +0.067 C 
ATOM     12  S   UNL     1      -4.553   5.008  -7.982  0.00  0.00    -0.162 S 
ATOM     13  C   UNL     1      -3.293   4.440  -6.766  0.00  0.00    +0.054 C 
ENDBRANCH   7   9
ENDBRANCH   1   2
BRANCH   1  15
ATOM     14  C   UNL     1      -2.639   0.745  -0.082  0.00  0.00    +0.132 C 
ATOM     15  N   UNL     1      -2.422   2.194  -0.075  0.00  0.00    -0.297 N 
ATOM     16  C   UNL     1      -1.213   2.693   0.246  0.00  0.00    +0.253 C 
ATOM     17  O   UNL     1      -1.041   3.898   0.282  0.00  0.00    -0.269 OA
BRANCH  16  18
ATOM     18  C   UNL     1      -0.103   1.786   0.553  0.00  0.00    +0.074 A 
ATOM     19  C   UNL     1       1.234   2.081   0.765  0.00  0.00    +0.021 A 
ATOM     20  C   UNL     1       2.073   1.028   1.033  0.00  0.00    +0.008 A 
ATOM     21  C   UNL     1       1.563  -0.231   1.078  0.00  0.00    +0.046 A 
ATOM     22  S   UNL     1      -0.121   0.012   0.745  0.00  0.00    -0.092 S 
ENDBRANCH  16  18
ENDBRANCH   1  15
BRANCH   1  23
ATOM     23  C   UNL     1      -3.807   4.027   0.765  0.00  0.00    +0.060 C 
BRANCH  23  24
ATOM     24  C   UNL     1      -4.309   3.213   1.930  0.00  0.00    -0.010 A 
ATOM     25  C   UNL     1      -5.668   3.076   2.142  0.00  0.00    +0.006 A 
ATOM     26  C   UNL     1      -6.130   2.325   3.208  0.00  0.00    +0.000 A 
ATOM     27  C   UNL     1      -5.232   1.721   4.069  0.00  0.00    +0.003 A 
ATOM     28  C   UNL     1      -3.874   1.861   3.862  0.00  0.00    +0.038 A 
ATOM     29  C   UNL     1      -3.410   2.608   2.792  0.00  0.00    +0.127 A 
ATOM     30  F   UNL     1      -2.082   2.747   2.589  0.00  0.00    -0.205 F 
ENDBRANCH  23  24
ENDBRANCH   1  23
TORSDOF 6
