REMARK  Name = ZINC38655716
REMARK  8 active torsions:
REMARK  status: ('A' for Active; 'I' for Inactive)
REMARK    1  A    between atoms: C_4  and  O_7
REMARK    2  A    between atoms: O_7  and  C_8
REMARK    3  A    between atoms: C_8  and  C_9
REMARK    4  A    between atoms: C_9  and  O_11
REMARK    5  A    between atoms: O_11  and  C_12
REMARK    6  A    between atoms: C_19  and  N_33
REMARK    7  A    between atoms: C_20  and  C_31
REMARK    8  A    between atoms: C_21  and  C_23
REMARK                            x       y       z     vdW  Elec       q    Type
REMARK                         _______ _______ _______ _____ _____    ______ ____
ROOT
ATOM      1  C   UNL     1       6.370  -4.492  -0.120  0.00  0.00    +0.135 A 
ATOM      2  C   UNL     1       7.492  -3.676  -0.084  0.00  0.00    +0.047 A 
ATOM      3  C   UNL     1       8.754  -4.235  -0.134  0.00  0.00    +0.012 A 
ATOM      4  C   UNL     1       8.906  -5.607  -0.221  0.00  0.00    +0.008 A 
ATOM      5  C   UNL     1       7.789  -6.427  -0.257  0.00  0.00    +0.138 A 
ATOM      6  C   UNL     1       6.519  -5.867  -0.200  0.00  0.00    +0.093 A 
ATOM      7  O   UNL     1       7.917  -7.774  -0.342  0.00  0.00    -0.441 OA
ATOM      8  C   UNL     1       9.070  -8.312  -0.772  0.00  0.00    +0.199 C 
ATOM      9  C   UNL     1      10.232  -7.616  -0.767  0.00  0.00    +0.098 C 
ATOM     10  C   UNL     1      10.290  -6.197  -0.275  0.00  0.00    +0.098 C 
ENDROOT
BRANCH  10  11
ATOM     11  C   UNL     1      10.897  -6.172   1.104  0.00  0.00    -0.033 A 
ATOM     12  C   UNL     1      10.287  -6.853   2.141  0.00  0.00    +0.006 A 
ATOM     13  C   UNL     1      10.842  -6.831   3.406  0.00  0.00    +0.022 A 
ATOM     14  C   UNL     1      12.010  -6.126   3.636  0.00  0.00    +0.059 A 
ATOM     15  C   UNL     1      12.622  -5.444   2.598  0.00  0.00    +0.060 A 
ATOM     16  C   UNL     1      12.067  -5.472   1.331  0.00  0.00    +0.026 A 
ATOM     17 CL   UNL     1      14.088  -4.558   2.885  0.00  0.00    -0.082 Cl
ATOM     18 CL   UNL     1      12.708  -6.096   5.225  0.00  0.00    -0.082 Cl
ENDBRANCH  10  11
BRANCH   8  19
ATOM     19  N   UNL     1       9.072  -9.605  -1.232  0.00  0.00    -0.328 N 
ATOM     20  H   UNL     1       8.248 -10.117  -1.241  0.00  0.00    +0.145 HD
ATOM     21  H   UNL     1       9.896 -10.008  -1.546  0.00  0.00    +0.145 HD
ENDBRANCH   8  19
BRANCH   9  22
ATOM     22  C   UNL     1      11.429  -8.244  -1.240  0.00  0.00    +0.101 C 
ATOM     23  N   UNL     1      12.378  -8.742  -1.615  0.00  0.00    -0.191 NA
ENDBRANCH   9  22
BRANCH   1  24
ATOM     24  O   UNL     1       5.127  -3.944  -0.070  0.00  0.00    -0.423 OA
BRANCH  24  25
ATOM     25  C   UNL     1       4.643  -3.379  -1.188  0.00  0.00    +0.350 C 
ATOM     26  O   UNL     1       5.340  -3.289  -2.171  0.00  0.00    -0.247 OA
BRANCH  25  27
ATOM     27  C   UNL     1       3.229  -2.857  -1.216  0.00  0.00    +0.349 C 
BRANCH  27  28
ATOM     28  O   UNL     1       2.951  -2.307  -2.505  0.00  0.00    -0.481 OA
BRANCH  28  32
ATOM     29  C   UNL     1      -0.818  -0.737  -3.097  0.00  0.00    +0.000 A 
ATOM     30  C   UNL     1       0.108  -0.714  -4.123  0.00  0.00    +0.004 A 
ATOM     31  C   UNL     1       1.371  -1.239  -3.928  0.00  0.00    +0.045 A 
ATOM     32  C   UNL     1       1.709  -1.789  -2.700  0.00  0.00    +0.121 A 
ATOM     33  C   UNL     1       0.778  -1.811  -1.672  0.00  0.00    +0.045 A 
ATOM     34  C   UNL     1      -0.483  -1.285  -1.872  0.00  0.00    +0.004 A 
ENDBRANCH  28  32
ENDBRANCH  27  28
ENDBRANCH  25  27
ENDBRANCH  24  25
ENDBRANCH   1  24
TORSDOF 8
