REMARK  Name = ZINC21901113
REMARK  12 active torsions:
REMARK  status: ('A' for Active; 'I' for Inactive)
REMARK    1  A    between atoms: C_1  and  C_2
REMARK    2  A    between atoms: C_4  and  C_17
REMARK    3  A    between atoms: C_5  and  C_16
REMARK    4  A    between atoms: N_6  and  C_7
REMARK    5  A    between atoms: C_7  and  C_9
REMARK    6  A    between atoms: C_7  and  C_10
REMARK    7  A    between atoms: C_17  and  C_19
REMARK    8  A    between atoms: C_19  and  N_20
REMARK    9  A    between atoms: N_24  and  S_27
REMARK   10  A    between atoms: S_27  and  C_30
REMARK   11  A    between atoms: C_31  and  C_36
REMARK   12  A    between atoms: C_34  and  C_35
REMARK                            x       y       z     vdW  Elec       q    Type
REMARK                         _______ _______ _______ _____ _____    ______ ____
ROOT
ATOM      1  C   UNL     1      -1.877   6.769  -1.865  0.00  0.00    +0.002 C 
ENDROOT
BRANCH   1   2
ATOM      2  N   UNL     1      -1.720   8.230  -1.828  0.00  0.00    +0.385 N 
ATOM      3  C   UNL     1      -0.307   8.606  -1.863  0.00  0.00    -0.077 C 
ATOM      4  C   UNL     1      -0.035   9.890  -2.536  0.00  0.00    -0.001 C 
ATOM      5  C   UNL     1      -0.739  11.040  -1.772  0.00  0.00    +0.107 C 
ATOM      6  N   UNL     1      -2.172  10.926  -1.940  0.00  0.00    -0.178 NA
ATOM      7  C   UNL     1      -3.026  10.134  -1.030  0.00  0.00    +0.091 C 
ATOM      8  C   UNL     1      -2.368   8.791  -0.662  0.00  0.00    -0.061 C 
ATOM      9  H   UNL     1      -2.213   8.654  -2.715  0.00  0.00    -0.081 HD
BRANCH   6  10
ATOM     10  S   UNL     1      -2.885  11.717  -3.208  0.00  0.00    +0.066 S 
ATOM     11  O   UNL     1      -4.245  11.919  -2.847  0.00  0.00    -0.153 OA
ATOM     12  O   UNL     1      -2.022  12.791  -3.555  0.00  0.00    -0.153 OA
BRANCH  10  13
ATOM     13  C   UNL     1      -2.888  10.610  -4.578  0.00  0.00    +0.170 A 
ATOM     14  C   UNL     1      -3.883   9.673  -4.939  0.00  0.00    +0.107 A 
ATOM     15  N   UNL     1      -3.457   9.080  -6.017  0.00  0.00    -0.081 NA
ATOM     16  O   UNL     1      -2.378   9.504  -6.361  0.00  0.00    -0.358 OA
ATOM     17  C   UNL     1      -1.939  10.463  -5.534  0.00  0.00    +0.161 A 
ATOM     18  C   UNL     1      -0.644  11.226  -5.644  0.00  0.00    +0.091 C 
ATOM     19  C   UNL     1      -5.181   9.411  -4.218  0.00  0.00    +0.071 C 
ENDBRANCH  10  13
ENDBRANCH   6  10
ENDBRANCH   1   2
BRANCH   1  20
ATOM     20  C   UNL     1      -1.315   6.171  -0.602  0.00  0.00    +0.149 C 
ATOM     21  O   UNL     1      -0.831   6.890   0.247  0.00  0.00    -0.294 OA
BRANCH  20  25
ATOM     22  C   UNL     1      -2.116   1.187  -1.297  0.00  0.00    +0.063 C 
ATOM     23  C   UNL     1      -1.716   2.521  -0.722  0.00  0.00    +0.017 A 
ATOM     24  C   UNL     1      -1.899   3.712  -1.316  0.00  0.00    +0.034 A 
ATOM     25  C   UNL     1      -1.354   4.721  -0.398  0.00  0.00    +0.036 A 
ATOM     26  C   UNL     1      -0.884   4.021   0.697  0.00  0.00    +0.027 A 
ATOM     27  N   UNL     1      -1.112   2.712   0.487  0.00  0.00    -0.341 N 
ATOM     28  C   UNL     1      -0.229   4.620   1.915  0.00  0.00    +0.064 C 
BRANCH  27  29
ATOM     29  C   UNL     1      -0.756   1.641   1.421  0.00  0.00    +0.114 C 
ATOM     30  C   UNL     1      -0.339   0.397   0.636  0.00  0.00    +0.036 C 
BRANCH  29  31
ATOM     31  C   UNL     1      -1.946   1.314   2.287  0.00  0.00    -0.025 A 
ATOM     32  C   UNL     1      -3.221   1.630   1.857  0.00  0.00    +0.005 A 
ATOM     33  C   UNL     1      -4.313   1.326   2.648  0.00  0.00    +0.000 A 
ATOM     34  C   UNL     1      -4.128   0.714   3.874  0.00  0.00    +0.000 A 
ATOM     35  C   UNL     1      -2.853   0.404   4.307  0.00  0.00    +0.000 A 
ATOM     36  C   UNL     1      -1.761   0.704   3.513  0.00  0.00    +0.005 A 
ENDBRANCH  29  31
ENDBRANCH  27  29
ENDBRANCH  20  25
ENDBRANCH   1  20
TORSDOF 7
