REMARK  Name = ZINC39195788
REMARK  13 active torsions:
REMARK  status: ('A' for Active; 'I' for Inactive)
REMARK    1  A    between atoms: C_1  and  C_2
REMARK    2  A    between atoms: C_4  and  C_38
REMARK    3  A    between atoms: C_5  and  C_14
REMARK    4  A    between atoms: C_10  and  C_12
REMARK    5  A    between atoms: C_10  and  C_13
REMARK    6  A    between atoms: N_16  and  C_17
REMARK    7  A    between atoms: C_17  and  C_19
REMARK    8  A    between atoms: C_17  and  C_29
REMARK    9  A    between atoms: C_22  and  S_25
REMARK   10  A    between atoms: S_25  and  C_28
REMARK   11  A    between atoms: C_33  and  N_35
REMARK   12  A    between atoms: N_35  and  C_36
REMARK   13  A    between atoms: N_35  and  C_37
REMARK                            x       y       z     vdW  Elec       q    Type
REMARK                         _______ _______ _______ _____ _____    ______ ____
ROOT
ATOM      1  C   UNL     1      -1.062  -6.397  -0.065  0.00  0.00    +0.134 C 
ENDROOT
BRANCH   1   2
ATOM      2  C   UNL     1      -2.338  -6.907  -0.682  0.00  0.00    -0.023 A 
ATOM      3  C   UNL     1      -3.542  -6.295  -0.384  0.00  0.00    +0.007 A 
ATOM      4  C   UNL     1      -4.713  -6.763  -0.950  0.00  0.00    +0.027 A 
ATOM      5  C   UNL     1      -4.681  -7.843  -1.813  0.00  0.00    +0.088 A 
ATOM      6  C   UNL     1      -3.477  -8.453  -2.111  0.00  0.00    +0.027 A 
ATOM      7  C   UNL     1      -2.305  -7.983  -1.549  0.00  0.00    +0.007 A 
BRANCH   5   8
ATOM      8  S   UNL     1      -6.174  -8.440  -2.533  0.00  0.00    -0.006 S 
ATOM      9  O   UNL     1      -5.919  -9.809  -2.815  0.00  0.00    -0.170 OA
ATOM     10  O   UNL     1      -7.194  -8.066  -1.617  0.00  0.00    -0.170 OA
ATOM     11  C   UNL     1      -6.352  -7.507  -4.079  0.00  0.00    +0.200 C 
ENDBRANCH   5   8
ENDBRANCH   1   2
BRANCH   1  12
ATOM     12  C   UNL     1      -0.935  -6.928   1.340  0.00  0.00    -0.021 A 
ATOM     13  C   UNL     1      -1.637  -6.330   2.370  0.00  0.00    +0.006 A 
ATOM     14  C   UNL     1      -1.524  -6.814   3.660  0.00  0.00    +0.002 A 
ATOM     15  C   UNL     1      -0.708  -7.897   3.924  0.00  0.00    +0.023 A 
ATOM     16  C   UNL     1      -0.001  -8.500   2.891  0.00  0.00    +0.030 A 
ATOM     17  C   UNL     1      -0.122  -8.014   1.595  0.00  0.00    +0.029 A 
BRANCH  16  18
ATOM     18  N   UNL     1       0.825  -9.595   3.155  0.00  0.00    -0.336 N 
ATOM     19  C   UNL     1       1.045 -10.031   4.536  0.00  0.00    +0.129 C 
ATOM     20  C   UNL     1       1.471 -10.307   2.049  0.00  0.00    +0.129 C 
ENDBRANCH  16  18
ENDBRANCH   1  12
BRANCH   1  23
ATOM     21  C   UNL     1       0.070  -4.239  -0.013  0.00  0.00    +0.245 C 
ATOM     22  O   UNL     1       1.133  -4.830  -0.022  0.00  0.00    -0.270 OA
ATOM     23  N   UNL     1      -1.086  -4.932  -0.033  0.00  0.00    -0.300 N 
ATOM     24  H   UNL     1      -1.934  -4.461  -0.026  0.00  0.00    +0.150 HD
BRANCH  21  29
ATOM     25  C   UNL     1      -0.026   1.521   0.077  0.00  0.00    +0.044 C 
ATOM     26  C   UNL     1      -0.001   0.014   0.059  0.00  0.00    -0.039 A 
ATOM     27  C   UNL     1       0.016  -0.657  -1.145  0.00  0.00    +0.008 A 
ATOM     28  C   UNL     1       0.038  -2.037  -1.175  0.00  0.00    -0.038 A 
ATOM     29  C   UNL     1       0.045  -2.761   0.019  0.00  0.00    +0.043 A 
ATOM     30  C   UNL     1       0.029  -2.091   1.243  0.00  0.00    -0.023 A 
ATOM     31  C   UNL     1       0.011  -0.699   1.269  0.00  0.00    +0.025 A 
ATOM     32  C   UNL     1       0.004  -0.206   2.657  0.00  0.00    +0.170 C 
ATOM     33  O   UNL     1      -0.016   0.957   2.999  0.00  0.00    -0.291 OA
ATOM     34  C   UNL     1       0.024  -1.401   3.579  0.00  0.00    +0.032 C 
ATOM     35  C   UNL     1       0.031  -2.626   2.654  0.00  0.00    +0.051 C 
ATOM     36  C   UNL     1       1.280  -1.375   4.453  0.00  0.00    +0.019 C 
ATOM     37  C   UNL     1      -1.231  -1.417   4.454  0.00  0.00    +0.019 C 
ATOM     38  C   UNL     1       0.056  -2.762  -2.496  0.00  0.00    +0.044 C 
ENDBRANCH  21  29
ENDBRANCH   1  23
TORSDOF 6
