REMARK  Name = ZINC00926685
REMARK  12 active torsions:
REMARK  status: ('A' for Active; 'I' for Inactive)
REMARK    1  A    between atoms: C_1  and  C_2
REMARK    2  A    between atoms: C_4  and  C_31
REMARK    3  A    between atoms: C_9  and  C_14
REMARK    4  A    between atoms: C_14  and  N_59
REMARK    5  A    between atoms: C_15  and  C_16
REMARK    6  A    between atoms: C_15  and  N_59
REMARK    7  A    between atoms: C_21  and  C_22
REMARK    8  A    between atoms: C_21  and  N_59
REMARK    9  A    between atoms: N_26  and  C_27
REMARK   10  A    between atoms: C_27  and  C_28
REMARK   11  A    between atoms: C_27  and  C_29
REMARK   12  A    between atoms: C_27  and  C_30
REMARK                            x       y       z     vdW  Elec       q    Type
REMARK                         _______ _______ _______ _____ _____    ______ ____
ROOT
ATOM      1  N   UNL     1      -1.110   7.583  -1.404  0.00  0.00    +0.392 N 
ATOM      2  H   UNL     1      -1.804   6.998  -1.883  0.00  0.00    -0.080 HD
ENDROOT
BRANCH   1   3
ATOM      3  C   UNL     1      -0.956   7.104  -0.014  0.00  0.00    -0.036 C 
BRANCH   3  12
ATOM      4  C   UNL     1      -6.509   2.324   1.373  0.00  0.00    +0.044 C 
ATOM      5  C   UNL     1      -5.919   3.709   1.444  0.00  0.00    -0.050 A 
ATOM      6  C   UNL     1      -6.641   4.736   2.036  0.00  0.00    +0.008 A 
ATOM      7  C   UNL     1      -6.123   6.010   2.107  0.00  0.00    -0.026 A 
ATOM      8  C   UNL     1      -4.857   6.271   1.591  0.00  0.00    +0.052 A 
ATOM      9  C   UNL     1      -4.128   5.227   0.991  0.00  0.00    -0.001 A 
ATOM     10  C   UNL     1      -4.677   3.942   0.924  0.00  0.00    +0.013 A 
ATOM     11  C   UNL     1      -2.800   5.512   0.445  0.00  0.00    +0.017 A 
ATOM     12  C   UNL     1      -2.319   6.777   0.538  0.00  0.00    +0.001 A 
ATOM     13  C   UNL     1      -3.091   7.787   1.150  0.00  0.00    +0.251 A 
ATOM     14  O   UNL     1      -2.640   8.917   1.223  0.00  0.00    -0.268 OA
ATOM     15  N   UNL     1      -4.312   7.535   1.654  0.00  0.00    -0.322 N 
ATOM     16  H   UNL     1      -4.831   8.275   2.081  0.00  0.00    +0.169 HD
ATOM     17  C   UNL     1      -6.920   7.117   2.748  0.00  0.00    +0.046 C 
ENDBRANCH   3  12
ENDBRANCH   1   3
BRANCH   1  18
ATOM     18  C   UNL     1       0.180   7.482  -2.119  0.00  0.00    -0.002 C 
BRANCH  18  19
ATOM     19  C   UNL     1       0.407   6.042  -2.503  0.00  0.00    +0.089 A 
ATOM     20  C   UNL     1       0.066   5.477  -3.675  0.00  0.00    +0.042 A 
ATOM     21  C   UNL     1       0.461   4.122  -3.606  0.00  0.00    +0.041 A 
ATOM     22  C   UNL     1       1.021   3.939  -2.397  0.00  0.00    +0.195 A 
ATOM     23  O   UNL     1       0.991   5.107  -1.735  0.00  0.00    -0.470 OA
ENDBRANCH  18  19
ENDBRANCH   1  18
BRANCH   1  24
ATOM     24  C   UNL     1      -1.580   8.985  -1.406  0.00  0.00    +0.001 C 
BRANCH  24  25
ATOM     25  C   UNL     1      -1.938   9.375  -2.817  0.00  0.00    +0.136 A 
ATOM     26  N   UNL     1      -1.119   9.825  -3.736  0.00  0.00    -0.115 NA
ATOM     27  N   UNL     1      -1.803  10.042  -4.806  0.00  0.00    -0.023 NA
ATOM     28  N   UNL     1      -3.038   9.750  -4.591  0.00  0.00    -0.043 NA
ATOM     29  N   UNL     1      -3.162   9.335  -3.376  0.00  0.00    -0.226 N 
BRANCH  29  30
ATOM     30  C   UNL     1      -4.401   8.902  -2.725  0.00  0.00    +0.059 C 
ATOM     31  C   UNL     1      -4.751   9.874  -1.597  0.00  0.00    +0.036 C 
ATOM     32  C   UNL     1      -5.536   8.883  -3.752  0.00  0.00    +0.036 C 
ATOM     33  C   UNL     1      -4.212   7.497  -2.149  0.00  0.00    +0.036 C 
ENDBRANCH  29  30
ENDBRANCH  24  25
ENDBRANCH   1  24
TORSDOF 7
