REMARK  Name = ZINC12489692
REMARK  9 active torsions:
REMARK  status: ('A' for Active; 'I' for Inactive)
REMARK    1  A    between atoms: C_4  and  C_7
REMARK    2  A    between atoms: C_7  and  C_9
REMARK    3  A    between atoms: C_7  and  N_19
REMARK    4  A    between atoms: N_11  and  C_12
REMARK    5  A    between atoms: C_12  and  C_13
REMARK    6  A    between atoms: N_19  and  C_20
REMARK    7  A    between atoms: C_27  and  C_29
REMARK    8  A    between atoms: C_29  and  N_30
REMARK    9  A    between atoms: C_31  and  C_33
REMARK                            x       y       z     vdW  Elec       q    Type
REMARK                         _______ _______ _______ _____ _____    ______ ____
ROOT
ATOM      1  N   UNL     1       4.788   1.765  -0.045  0.00  0.00    -0.253 N 
ATOM      2  C   UNL     1       3.548   2.172  -0.382  0.00  0.00    +0.238 C 
ATOM      3  O   UNL     1       3.332   3.347  -0.591  0.00  0.00    -0.274 OA
ENDROOT
BRANCH   1   4
ATOM      4  C   UNL     1       5.038   0.409   0.196  0.00  0.00    +0.056 A 
ATOM      5  C   UNL     1       5.411  -0.426  -0.848  0.00  0.00    +0.025 A 
ATOM      6  C   UNL     1       5.657  -1.764  -0.607  0.00  0.00    +0.002 A 
ATOM      7  C   UNL     1       5.531  -2.272   0.673  0.00  0.00    +0.002 A 
ATOM      8  C   UNL     1       5.160  -1.444   1.716  0.00  0.00    +0.022 A 
ATOM      9  C   UNL     1       4.918  -0.103   1.483  0.00  0.00    +0.062 A 
ATOM     10 CL   UNL     1       4.458   0.939   2.793  0.00  0.00    -0.082 Cl
ENDBRANCH   1   4
BRANCH   1  11
ATOM     11  C   UNL     1       5.874   2.742   0.069  0.00  0.00    +0.197 C 
BRANCH  11  15
ATOM     12  C   UNL     1       7.764   2.333   3.878  0.00  0.00    +0.000 A 
ATOM     13  C   UNL     1       7.855   1.314   2.948  0.00  0.00    +0.000 A 
ATOM     14  C   UNL     1       7.244   1.446   1.715  0.00  0.00    +0.006 A 
ATOM     15  C   UNL     1       6.540   2.597   1.413  0.00  0.00    -0.018 A 
ATOM     16  C   UNL     1       6.453   3.618   2.341  0.00  0.00    +0.006 A 
ATOM     17  C   UNL     1       7.061   3.483   3.575  0.00  0.00    +0.000 A 
ENDBRANCH  11  15
BRANCH  11  18
ATOM     18  C   UNL     1       6.885   2.498  -1.022  0.00  0.00    +0.239 C 
ATOM     19  O   UNL     1       6.715   1.597  -1.816  0.00  0.00    -0.273 OA
ATOM     20  N   UNL     1       7.978   3.281  -1.115  0.00  0.00    -0.311 N 
ATOM     21  H   UNL     1       8.114   4.001  -0.479  0.00  0.00    +0.149 HD
BRANCH  20  22
ATOM     22  C   UNL     1       8.961   3.044  -2.175  0.00  0.00    +0.135 C 
BRANCH  22  23
ATOM     23  C   UNL     1      10.095   4.064  -2.056  0.00  0.00    +0.135 C 
ATOM     24  C   UNL     1      11.100   3.889  -3.216  0.00  0.00    +0.035 C 
ATOM     25  C   UNL     1      12.475   4.158  -2.566  0.00  0.00    +0.031 C 
ATOM     26  C   UNL     1      12.139   4.465  -1.090  0.00  0.00    +0.160 C 
ATOM     27  O   UNL     1      10.865   3.822  -0.858  0.00  0.00    -0.375 OA
ENDBRANCH  22  23
ENDBRANCH  20  22
ENDBRANCH  11  18
ENDBRANCH   1  11
BRANCH   2  28
ATOM     28  C   UNL     1       2.431   1.168  -0.499  0.00  0.00    +0.201 C 
BRANCH  28  29
ATOM     29  N   UNL     1       1.193   1.856  -0.874  0.00  0.00    -0.302 N 
ATOM     30  C   UNL     1       0.054   1.153  -1.038  0.00  0.00    +0.251 C 
ATOM     31  O   UNL     1       0.055  -0.052  -0.873  0.00  0.00    -0.270 OA
ATOM     32  H   UNL     1       1.193   2.817  -1.005  0.00  0.00    +0.150 HD
BRANCH  30  33
ATOM     33  C   UNL     1      -1.183   1.841  -1.419  0.00  0.00    +0.074 A 
ATOM     34  C   UNL     1      -2.444   1.311  -1.640  0.00  0.00    +0.021 A 
ATOM     35  C   UNL     1      -3.439   2.190  -1.990  0.00  0.00    +0.008 A 
ATOM     36  C   UNL     1      -3.147   3.512  -2.102  0.00  0.00    +0.046 A 
ATOM     37  S   UNL     1      -1.459   3.579  -1.711  0.00  0.00    -0.092 S 
ENDBRANCH  30  33
ENDBRANCH  28  29
ENDBRANCH   2  28
TORSDOF 9
