REMARK  Name = ZINC19345566
REMARK  6 active torsions:
REMARK  status: ('A' for Active; 'I' for Inactive)
REMARK    1  A    between atoms: C_6  and  C_7
REMARK    2  A    between atoms: C_7  and  C_9
REMARK    3  A    between atoms: C_7  and  O_20
REMARK    4  A    between atoms: C_9  and  N_10
REMARK    5  A    between atoms: C_13  and  C_16
REMARK    6  A    between atoms: C_25  and  C_27
REMARK                            x       y       z     vdW  Elec       q    Type
REMARK                         _______ _______ _______ _____ _____    ______ ____
ROOT
ATOM      1  C   UNL     1       1.065  -0.421  -0.066  0.00  0.00    +0.008 A 
ATOM      2  C   UNL     1       2.278   0.239  -0.049  0.00  0.00    +0.024 A 
ATOM      3  C   UNL     1       2.378   1.497   0.533  0.00  0.00    +0.039 A 
ATOM      4  C   UNL     1       1.259   2.092   1.095  0.00  0.00    -0.026 A 
ATOM      5  C   UNL     1       0.047   1.424   1.075  0.00  0.00    +0.011 A 
ATOM      6  C   UNL     1      -0.050   0.172   0.498  0.00  0.00    -0.021 A 
ATOM      7  C   UNL     1       1.328   3.459   1.724  0.00  0.00    +0.038 C 
ATOM      8  C   UNL     1       2.769   3.801   2.104  0.00  0.00    +0.024 C 
ATOM      9  C   UNL     1       3.671   3.575   0.884  0.00  0.00    +0.114 C 
ATOM     10  N   UNL     1       3.620   2.146   0.547  0.00  0.00    -0.271 N 
ATOM     11  C   UNL     1       4.750   1.470   0.256  0.00  0.00    +0.223 C 
ATOM     12  O   UNL     1       4.711   0.270   0.085  0.00  0.00    -0.275 OA
ENDROOT
BRANCH  11  13
ATOM     13  C   UNL     1       6.060   2.206   0.145  0.00  0.00    +0.076 C 
ATOM     14  C   UNL     1       6.182   2.823  -1.250  0.00  0.00    +0.013 C 
ATOM     15  C   UNL     1       7.513   3.569  -1.363  0.00  0.00    +0.001 C 
ATOM     16  C   UNL     1       8.667   2.591  -1.135  0.00  0.00    +0.000 C 
ATOM     17  C   UNL     1       8.546   1.974   0.260  0.00  0.00    +0.001 C 
ATOM     18  C   UNL     1       7.215   1.228   0.373  0.00  0.00    +0.013 C 
ENDBRANCH  11  13
BRANCH   6  19
ATOM     19  C   UNL     1      -1.374  -0.547   0.481  0.00  0.00    +0.128 C 
BRANCH  19  20
ATOM     20  O   UNL     1      -1.493  -1.298  -0.730  0.00  0.00    -0.389 OA
ATOM     21  H   UNL     1      -2.398  -1.892  -0.921  0.00  0.00    +0.210 HD
ENDBRANCH  19  20
BRANCH  19  22
ATOM     22  C   UNL     1      -1.454  -1.496   1.679  0.00  0.00    -0.042 C 
BRANCH  22  23
ATOM     23  N   UNL     1      -2.745  -2.197   1.662  0.00  0.00    +0.382 N 
ATOM     24  C   UNL     1      -3.855  -1.261   1.876  0.00  0.00    -0.078 C 
ATOM     25  C   UNL     1      -5.186  -1.998   1.708  0.00  0.00    -0.007 C 
ATOM     26  C   UNL     1      -5.259  -3.146   2.720  0.00  0.00    +0.090 C 
ATOM     27  C   UNL     1      -4.064  -4.080   2.507  0.00  0.00    -0.007 C 
ATOM     28  C   UNL     1      -2.767  -3.282   2.652  0.00  0.00    -0.078 C 
ATOM     29  H   UNL     1      -2.873  -2.648   0.667  0.00  0.00    -0.082 HD
BRANCH  26  30
ATOM     30  C   UNL     1      -6.560  -3.925   2.517  0.00  0.00    +0.393 C 
ATOM     31  F   UNL     1      -6.622  -4.977   3.436  0.00  0.00    -0.170 F 
ATOM     32  F   UNL     1      -7.650  -3.070   2.711  0.00  0.00    -0.170 F 
ATOM     33  F   UNL     1      -6.597  -4.439   1.216  0.00  0.00    -0.170 F 
ENDBRANCH  26  30
ENDBRANCH  22  23
ENDBRANCH  19  22
ENDBRANCH   6  19
TORSDOF 6
