REMARK  Name = ZINC50832104
REMARK  7 active torsions:
REMARK  status: ('A' for Active; 'I' for Inactive)
REMARK    1  A    between atoms: C_1  and  C_2
REMARK    2  A    between atoms: C_3  and  C_10
REMARK    3  A    between atoms: C_4  and  N_8
REMARK    4  A    between atoms: N_5  and  C_7
REMARK    5  A    between atoms: N_8  and  C_9
REMARK    6  A    between atoms: C_10  and  O_11
REMARK    7  A    between atoms: O_11  and  C_12
REMARK                            x       y       z     vdW  Elec       q    Type
REMARK                         _______ _______ _______ _____ _____    ______ ____
ROOT
ATOM      1  C   UNL     1      -0.497   1.575   0.258  0.00  0.00    +0.065 C 
ATOM      2  C   UNL     1      -0.201   0.098   0.212  0.00  0.00    +0.039 A 
ATOM      3  C   UNL     1       0.010  -0.659  -0.943  0.00  0.00    +0.049 A 
ATOM      4  C   UNL     1       0.246  -1.945  -0.562  0.00  0.00    +0.121 A 
ATOM      5  N   UNL     1       0.183  -1.988   0.788  0.00  0.00    -0.276 N 
ATOM      6  N   UNL     1      -0.092  -0.694   1.248  0.00  0.00    -0.300 N 
ATOM      7  C   UNL     1       0.375  -3.176   1.623  0.00  0.00    +0.172 C 
ATOM      8  H   UNL     1      -0.189  -0.430   2.177  0.00  0.00    +0.187 HD
ENDROOT
BRANCH   4   9
ATOM      9  N   UNL     1       0.503  -3.020  -1.408  0.00  0.00    -0.332 N 
ATOM     10  C   UNL     1       0.678  -4.364  -0.852  0.00  0.00    +0.127 C 
ATOM     11  H   UNL     1       0.568  -2.879  -2.366  0.00  0.00    +0.147 HD
ENDBRANCH   4   9
BRANCH   3  12
ATOM     12  C   UNL     1      -0.017  -0.144  -2.359  0.00  0.00    +0.269 C 
BRANCH  12  13
ATOM     13  O   UNL     1       1.294   0.281  -2.738  0.00  0.00    -0.484 OA
BRANCH  13  14
ATOM     14  C   UNL     1       1.443   0.776  -3.995  0.00  0.00    +0.158 A 
ATOM     15  C   UNL     1       1.755  -0.076  -5.045  0.00  0.00    +0.085 A 
ATOM     16  C   UNL     1       1.907   0.430  -6.323  0.00  0.00    +0.043 A 
ATOM     17  C   UNL     1       1.749   1.784  -6.555  0.00  0.00    +0.044 A 
ATOM     18  C   UNL     1       1.439   2.636  -5.510  0.00  0.00    +0.043 A 
ATOM     19  C   UNL     1       1.279   2.134  -4.231  0.00  0.00    +0.085 A 
ATOM     20 CL   UNL     1       0.882   3.202  -2.921  0.00  0.00    -0.080 Cl
ATOM     21 CL   UNL     1       1.941   2.417  -8.160  0.00  0.00    -0.083 Cl
ATOM     22 CL   UNL     1       1.954  -1.776  -4.754  0.00  0.00    -0.080 Cl
ENDBRANCH  13  14
ENDBRANCH  12  13
ENDBRANCH   3  12
TORSDOF 4
