REMARK  Name = ZINC01898228
REMARK  14 active torsions:
REMARK  status: ('A' for Active; 'I' for Inactive)
REMARK    1  A    between atoms: C_1  and  C_2
REMARK    2  A    between atoms: C_2  and  O_3
REMARK    3  A    between atoms: O_3  and  C_4
REMARK    4  A    between atoms: C_9  and  C_10
REMARK    5  A    between atoms: C_12  and  C_40
REMARK    6  A    between atoms: C_13  and  S_27
REMARK    7  A    between atoms: C_15  and  C_26
REMARK    8  A    between atoms: C_16  and  C_17
REMARK    9  A    between atoms: N_19  and  C_20
REMARK   10  A    between atoms: S_27  and  C_28
REMARK   11  A    between atoms: C_28  and  C_29
REMARK   12  A    between atoms: N_31  and  C_32
REMARK   13  A    between atoms: C_34  and  C_39
REMARK   14  A    between atoms: C_37  and  C_38
REMARK                            x       y       z     vdW  Elec       q    Type
REMARK                         _______ _______ _______ _____ _____    ______ ____
ROOT
ATOM      1  C   UNL     1      -4.300  -1.539   0.579  0.00  0.00    +0.102 C 
ATOM      2  C   UNL     1      -5.045  -1.749  -0.709  0.00  0.00    +0.069 C 
ATOM      3  C   UNL     1      -6.178  -2.499  -0.754  0.00  0.00    +0.080 C 
ATOM      4  N   UNL     1      -6.677  -3.081   0.390  0.00  0.00    -0.312 N 
ATOM      5  C   UNL     1      -6.271  -2.639   1.620  0.00  0.00    +0.014 C 
ATOM      6  C   UNL     1      -5.158  -1.904   1.757  0.00  0.00    +0.044 C 
ATOM      7  C   UNL     1      -7.088  -2.983   2.838  0.00  0.00    +0.061 C 
ATOM      8  H   UNL     1      -7.317  -3.807   0.324  0.00  0.00    +0.152 HD
ENDROOT
BRANCH   1  14
ATOM      9  C   UNL     1      -1.810  -1.812   0.676  0.00  0.00    +0.125 A 
ATOM     10  C   UNL     1      -0.672  -2.608   0.683  0.00  0.00    +0.046 A 
ATOM     11  C   UNL     1      -0.791  -3.981   0.592  0.00  0.00    +0.004 A 
ATOM     12  C   UNL     1      -2.041  -4.563   0.493  0.00  0.00    +0.001 A 
ATOM     13  C   UNL     1      -3.175  -3.773   0.484  0.00  0.00    +0.008 A 
ATOM     14  C   UNL     1      -3.063  -2.400   0.582  0.00  0.00    +0.007 A 
BRANCH   9  15
ATOM     15  O   UNL     1      -1.696  -0.461   0.767  0.00  0.00    -0.492 OA
BRANCH  15  17
ATOM     16  C   UNL     1      -0.447   1.599   0.954  0.00  0.00    +0.048 C 
ATOM     17  C   UNL     1      -0.374   0.074   0.861  0.00  0.00    +0.225 C 
ENDBRANCH  15  17
ENDBRANCH   9  15
ENDBRANCH   1  14
BRANCH   6  18
ATOM     18  C   UNL     1      -4.781  -1.461   3.047  0.00  0.00    +0.247 C 
ATOM     19  O   UNL     1      -5.464  -1.747   4.013  0.00  0.00    -0.270 OA
ATOM     20  N   UNL     1      -3.665  -0.722   3.207  0.00  0.00    -0.282 N 
ATOM     21  H   UNL     1      -3.075  -0.565   2.453  0.00  0.00    +0.155 HD
BRANCH  20  22
ATOM     22  C   UNL     1      -3.357  -0.181   4.459  0.00  0.00    +0.034 A 
ATOM     23  C   UNL     1      -2.038   0.100   4.791  0.00  0.00    +0.023 A 
ATOM     24  C   UNL     1      -1.738   0.634   6.029  0.00  0.00    +0.002 A 
ATOM     25  C   UNL     1      -2.749   0.889   6.937  0.00  0.00    +0.000 A 
ATOM     26  C   UNL     1      -4.063   0.610   6.610  0.00  0.00    +0.002 A 
ATOM     27  C   UNL     1      -4.371   0.082   5.372  0.00  0.00    +0.023 A 
ENDBRANCH  20  22
ENDBRANCH   6  18
BRANCH   2  28
ATOM     28  C   UNL     1      -4.553  -1.147  -1.911  0.00  0.00    +0.098 C 
ATOM     29  N   UNL     1      -4.162  -0.669  -2.865  0.00  0.00    -0.191 NA
ENDBRANCH   2  28
BRANCH   3  30
ATOM     30  S   UNL     1      -7.015  -2.728  -2.288  0.00  0.00    -0.100 S 
BRANCH  30  31
ATOM     31  C   UNL     1      -8.435  -3.773  -1.861  0.00  0.00    +0.171 C 
BRANCH  31  32
ATOM     32  C   UNL     1      -9.247  -4.048  -3.101  0.00  0.00    +0.227 C 
ATOM     33  O   UNL     1      -8.901  -3.585  -4.167  0.00  0.00    -0.275 OA
ATOM     34  N   UNL     1     -10.357  -4.809  -3.025  0.00  0.00    -0.285 N 
ATOM     35  H   UNL     1     -10.671  -5.124  -2.163  0.00  0.00    +0.155 HD
BRANCH  34  36
ATOM     36  C   UNL     1     -11.056  -5.145  -4.190  0.00  0.00    +0.037 A 
ATOM     37  C   UNL     1     -11.132  -4.240  -5.241  0.00  0.00    +0.027 A 
ATOM     38  C   UNL     1     -11.823  -4.575  -6.389  0.00  0.00    -0.049 A 
ATOM     39  C   UNL     1     -12.439  -5.809  -6.492  0.00  0.00    +0.004 A 
ATOM     40  C   UNL     1     -12.365  -6.712  -5.447  0.00  0.00    +0.005 A 
ATOM     41  C   UNL     1     -11.669  -6.386  -4.299  0.00  0.00    -0.029 A 
ATOM     42  C   UNL     1     -11.583  -7.373  -3.164  0.00  0.00    +0.045 C 
ATOM     43  C   UNL     1     -11.907  -3.594  -7.530  0.00  0.00    +0.044 C 
ENDBRANCH  34  36
ENDBRANCH  31  32
ENDBRANCH  30  31
ENDBRANCH   3  30
TORSDOF 10
