REMARK  Name = ZINC61950510
REMARK  6 active torsions:
REMARK  status: ('A' for Active; 'I' for Inactive)
REMARK    1  A    between atoms: C_1  and  N_2
REMARK    2  A    between atoms: N_2  and  C_3
REMARK    3  A    between atoms: N_2  and  C_12
REMARK    4  A    between atoms: C_3  and  C_4
REMARK    5  A    between atoms: C_15  and  C_18
REMARK    6  A    between atoms: N_19  and  O_20
REMARK                            x       y       z     vdW  Elec       q    Type
REMARK                         _______ _______ _______ _____ _____    ______ ____
ROOT
ATOM      1  C   UNL     1       0.000  -0.694  -1.209  0.00  0.00    +0.030 A 
ATOM      2  C   UNL     1       0.013  -2.085  -1.215  0.00  0.00    +0.024 A 
ATOM      3  C   UNL     1       0.012  -2.770  -2.410  0.00  0.00    +0.013 A 
ATOM      4  C   UNL     1      -0.004  -2.067  -3.616  0.00  0.00    +0.018 A 
ATOM      5  C   UNL     1      -0.017  -0.671  -3.607  0.00  0.00    +0.013 A 
ATOM      6  C   UNL     1      -0.021   0.009  -2.409  0.00  0.00    +0.024 A 
ENDROOT
BRANCH   4   7
ATOM      7  C   UNL     1      -0.005  -2.799  -4.901  0.00  0.00    +0.162 C 
ATOM      8  N   UNL     1       0.008  -4.101  -4.908  0.00  0.00    -0.072 NA
ATOM      9  N   UNL     1      -0.020  -2.100  -6.096  0.00  0.00    -0.340 N 
ATOM     10  H   UNL     1      -0.030  -1.131  -6.091  0.00  0.00    +0.144 HD
ATOM     11  H   UNL     1      -0.021  -2.581  -6.939  0.00  0.00    +0.144 HD
BRANCH   8  12
ATOM     12  O   UNL     1       0.007  -4.802  -6.138  0.00  0.00    -0.408 OA
ATOM     13  H   UNL     1       0.018  -5.764  -6.042  0.00  0.00    +0.328 HD
ENDBRANCH   8  12
ENDBRANCH   4   7
BRANCH   1  15
ATOM     14  C   UNL     1      -0.018   1.461   0.010  0.00  0.00    +0.129 C 
ATOM     15  N   UNL     1       0.002  -0.004   0.002  0.00  0.00    -0.329 N 
BRANCH  15  16
ATOM     16  C   UNL     1       0.024  -0.743   1.267  0.00  0.00    +0.140 C 
BRANCH  16  17
ATOM     17  C   UNL     1      -1.389  -1.016   1.714  0.00  0.00    -0.029 A 
ATOM     18  C   UNL     1      -2.047  -0.104   2.518  0.00  0.00    +0.008 A 
ATOM     19  C   UNL     1      -3.343  -0.353   2.929  0.00  0.00    +0.040 A 
ATOM     20  C   UNL     1      -3.983  -1.515   2.534  0.00  0.00    +0.137 A 
ATOM     21  C   UNL     1      -3.323  -2.428   1.728  0.00  0.00    +0.053 A 
ATOM     22  C   UNL     1      -2.028  -2.175   1.314  0.00  0.00    +0.023 A 
ATOM     23 BR   UNL     1      -4.195  -4.017   1.187  0.00  0.00    -0.047 Br
ATOM     24  F   UNL     1      -5.250  -1.759   2.935  0.00  0.00    -0.204 F 
ENDBRANCH  16  17
ENDBRANCH  15  16
ENDBRANCH   1  15
TORSDOF 5
