REMARK  Name = ZINC11821123
REMARK  7 active torsions:
REMARK  status: ('A' for Active; 'I' for Inactive)
REMARK    1  A    between atoms: C_1  and  C_2
REMARK    2  A    between atoms: C_5  and  N_9
REMARK    3  A    between atoms: C_6  and  C_8
REMARK    4  A    between atoms: C_15  and  C_17
REMARK    5  A    between atoms: C_17  and  C_18
REMARK    6  A    between atoms: C_25  and  C_26
REMARK    7  A    between atoms: C_25  and  N_60
REMARK                            x       y       z     vdW  Elec       q    Type
REMARK                         _______ _______ _______ _____ _____    ______ ____
ROOT
ATOM      1  N   UNL     1       3.561   1.664  -0.145  0.00  0.00    -0.327 N 
ATOM      2  C   UNL     1       4.323   1.723  -1.399  0.00  0.00    +0.124 C 
ATOM      3  C   UNL     1       5.507   2.681  -1.230  0.00  0.00    +0.126 C 
ATOM      4  N   UNL     1       6.281   2.263  -0.052  0.00  0.00    -0.299 N 
ATOM      5  C   UNL     1       5.563   2.050   1.213  0.00  0.00    +0.126 C 
ATOM      6  C   UNL     1       4.376   1.116   0.948  0.00  0.00    +0.124 C 
ATOM      7  C   UNL     1       7.614   2.081  -0.130  0.00  0.00    +0.215 C 
ATOM      8  O   UNL     1       8.238   1.736   0.852  0.00  0.00    -0.276 OA
ENDROOT
BRANCH   1  13
ATOM      9  C   UNL     1      -1.218  -1.315  -0.803  0.00  0.00    +0.044 C 
ATOM     10  C   UNL     1       0.052  -0.524  -0.628  0.00  0.00    -0.050 A 
ATOM     11  C   UNL     1       1.278  -1.147  -0.771  0.00  0.00    +0.005 A 
ATOM     12  C   UNL     1       2.444  -0.424  -0.612  0.00  0.00    +0.023 A 
ATOM     13  C   UNL     1       2.384   0.930  -0.307  0.00  0.00    +0.033 A 
ATOM     14  C   UNL     1       1.151   1.553  -0.165  0.00  0.00    -0.029 A 
ATOM     15  C   UNL     1      -0.012   0.824  -0.326  0.00  0.00    +0.008 A 
ATOM     16  C   UNL     1       1.081   3.021   0.165  0.00  0.00    +0.045 C 
ENDBRANCH   1  13
BRANCH   7  17
ATOM     17  C   UNL     1       8.331   2.305  -1.436  0.00  0.00    +0.090 C 
BRANCH  17  18
ATOM     18  C   UNL     1       9.839   2.166  -1.222  0.00  0.00    +0.028 C 
ATOM     19  C   UNL     1      10.307   3.228  -0.267  0.00  0.00    +0.200 C 
ATOM     20  O   UNL     1       9.876   4.354  -0.394  0.00  0.00    -0.278 OA
ATOM     21  N   UNL     1      11.180   2.983   0.716  0.00  0.00    -0.318 N 
ATOM     22  C   UNL     1      11.730   1.656   0.976  0.00  0.00    +0.085 C 
ATOM     23  C   UNL     1      11.540   0.759  -0.249  0.00  0.00    -0.058 C 
ATOM     24  H   UNL     1      11.459   3.719   1.282  0.00  0.00    +0.149 HD
ATOM     25  N   UNL     1      10.122   0.834  -0.653  0.00  0.00    +0.392 N 
ATOM     26  H   UNL     1       9.529   0.689   0.172  0.00  0.00    -0.080 HD
BRANCH  25  27
ATOM     27  C   UNL     1       9.822  -0.217  -1.653  0.00  0.00    -0.034 C 
BRANCH  27  28
ATOM     28  C   UNL     1       9.762  -1.551  -0.954  0.00  0.00    -0.027 A 
ATOM     29  C   UNL     1       8.699  -2.167  -0.381  0.00  0.00    +0.009 A 
ATOM     30  C   UNL     1       8.879  -3.404   0.208  0.00  0.00    +0.008 A 
ATOM     31  C   UNL     1      10.113  -3.965   0.197  0.00  0.00    +0.045 A 
ATOM     32  S   UNL     1      11.070  -2.733  -0.673  0.00  0.00    -0.103 S 
ENDBRANCH  27  28
ENDBRANCH  25  27
ENDBRANCH  17  18
ENDBRANCH   7  17
TORSDOF 5
