REMARK  Name = ZINC13501155
REMARK  11 active torsions:
REMARK  status: ('A' for Active; 'I' for Inactive)
REMARK    1  A    between atoms: C_1  and  C_2
REMARK    2  A    between atoms: C_2  and  C_3
REMARK    3  A    between atoms: C_3  and  C_5
REMARK    4  A    between atoms: C_3  and  N_69
REMARK    5  A    between atoms: N_9  and  C_10
REMARK    6  A    between atoms: C_10  and  C_11
REMARK    7  A    between atoms: C_11  and  C_12
REMARK    8  A    between atoms: C_18  and  C_19
REMARK    9  A    between atoms: C_18  and  N_69
REMARK   10  A    between atoms: C_23  and  C_31
REMARK   11  A    between atoms: C_32  and  N_69
REMARK                            x       y       z     vdW  Elec       q    Type
REMARK                         _______ _______ _______ _____ _____    ______ ____
ROOT
ATOM      1  N   UNL     1      -0.765   1.448   1.218  0.00  0.00    +0.391 N 
ATOM      2  H   UNL     1      -0.812   2.426   1.528  0.00  0.00    -0.080 HD
ENDROOT
BRANCH   1   3
ATOM      3  C   UNL     1       0.132   1.359   0.046  0.00  0.00    -0.067 C 
ATOM      4  C   UNL     1      -0.354   2.321  -1.067  0.00  0.00    -0.015 C 
ATOM      5  C   UNL     1       0.939   2.585  -1.878  0.00  0.00    -0.002 C 
ATOM      6  C   UNL     1       2.047   2.664  -0.808  0.00  0.00    -0.002 C 
ATOM      7  C   UNL     1       1.534   1.885   0.415  0.00  0.00    -0.015 C 
ENDBRANCH   1   3
BRANCH   1   8
ATOM      8  C   UNL     1      -2.123   0.995   0.851  0.00  0.00    +0.003 C 
BRANCH   8   9
ATOM      9  C   UNL     1      -2.051  -0.217  -0.042  0.00  0.00    +0.138 A 
ATOM     10  N   UNL     1      -1.399  -0.318  -1.174  0.00  0.00    -0.115 NA
ATOM     11  N   UNL     1      -1.582  -1.507  -1.634  0.00  0.00    -0.023 NA
ATOM     12  N   UNL     1      -2.333  -2.168  -0.824  0.00  0.00    -0.044 NA
ATOM     13  N   UNL     1      -2.639  -1.409   0.173  0.00  0.00    -0.231 N 
BRANCH  13  14
ATOM     14  C   UNL     1      -3.472  -1.774   1.322  0.00  0.00    +0.152 C 
BRANCH  14  15
ATOM     15  C   UNL     1      -4.935  -1.450   1.013  0.00  0.00    +0.058 C 
BRANCH  15  16
ATOM     16  C   UNL     1      -5.792  -1.826   2.195  0.00  0.00    -0.046 A 
ATOM     17  C   UNL     1      -6.337  -3.094   2.278  0.00  0.00    +0.004 A 
ATOM     18  C   UNL     1      -7.119  -3.440   3.365  0.00  0.00    +0.000 A 
ATOM     19  C   UNL     1      -7.365  -2.514   4.362  0.00  0.00    +0.000 A 
ATOM     20  C   UNL     1      -6.825  -1.245   4.275  0.00  0.00    +0.000 A 
ATOM     21  C   UNL     1      -6.038  -0.901   3.192  0.00  0.00    +0.004 A 
ENDBRANCH  15  16
ENDBRANCH  14  15
ENDBRANCH  13  14
ENDBRANCH   8   9
BRANCH   8  23
ATOM     22  C   UNL     1      -2.946   3.347   1.033  0.00  0.00    +0.002 C 
ATOM     23  C   UNL     1      -2.834   2.131   0.112  0.00  0.00    -0.011 C 
ENDBRANCH   8  23
ENDBRANCH   1   8
BRANCH   1  24
ATOM     24  C   UNL     1      -0.237   0.619   2.322  0.00  0.00    -0.036 C 
BRANCH  24  25
ATOM     25  C   UNL     1      -0.911   1.034   3.604  0.00  0.00    +0.001 A 
ATOM     26  C   UNL     1      -1.956   0.315   4.082  0.00  0.00    +0.017 A 
ATOM     27  C   UNL     1      -2.585   0.742   5.333  0.00  0.00    -0.001 A 
ATOM     28  C   UNL     1      -3.662   0.036   5.879  0.00  0.00    +0.013 A 
ATOM     29  C   UNL     1      -4.230   0.463   7.046  0.00  0.00    -0.050 A 
ATOM     30  C   UNL     1      -3.747   1.591   7.695  0.00  0.00    +0.005 A 
ATOM     31  C   UNL     1      -2.688   2.303   7.175  0.00  0.00    +0.026 A 
ATOM     32  C   UNL     1      -2.093   1.886   5.988  0.00  0.00    +0.049 A 
ATOM     33  N   UNL     1      -1.031   2.578   5.446  0.00  0.00    -0.322 N 
ATOM     34  H   UNL     1      -0.693   3.367   5.899  0.00  0.00    +0.169 HD
ATOM     35  C   UNL     1      -0.456   2.175   4.300  0.00  0.00    +0.251 A 
ATOM     36  O   UNL     1       0.481   2.811   3.849  0.00  0.00    -0.268 OA
ATOM     37  C   UNL     1      -5.390  -0.298   7.634  0.00  0.00    +0.044 C 
ENDBRANCH  24  25
ENDBRANCH   1  24
TORSDOF 9
