REMARK  Name = ZINC67236916
REMARK  6 active torsions:
REMARK  status: ('A' for Active; 'I' for Inactive)
REMARK    1  A    between atoms: C_1  and  C_2
REMARK    2  A    between atoms: N_10  and  C_28
REMARK    3  A    between atoms: C_11  and  S_13
REMARK    4  A    between atoms: S_13  and  C_14
REMARK    5  A    between atoms: C_14  and  C_15
REMARK    6  A    between atoms: N_17  and  C_18
REMARK                            x       y       z     vdW  Elec       q    Type
REMARK                         _______ _______ _______ _____ _____    ______ ____
ROOT
ATOM      1  C   UNL     1       1.250   1.333  -0.348  0.00  0.00    +0.063 C 
ATOM      2  C   UNL     1       0.862  -0.119  -0.241  0.00  0.00    +0.016 A 
ATOM      3  C   UNL     1       0.102  -0.789  -1.131  0.00  0.00    +0.051 A 
ATOM      4  C   UNL     1      -0.030  -2.119  -0.674  0.00  0.00    +0.097 A 
ATOM      5  C   UNL     1       0.686  -2.203   0.526  0.00  0.00    +0.131 A 
ATOM      6  N   UNL     1       1.231  -0.958   0.765  0.00  0.00    -0.353 N 
ATOM      7  H   UNL     1       1.782  -0.720   1.527  0.00  0.00    +0.166 HD
ATOM      8  C   UNL     1       0.724  -3.433   1.207  0.00  0.00    +0.283 A 
ATOM      9  O   UNL     1       1.337  -3.547   2.255  0.00  0.00    -0.265 OA
ATOM     10  N   UNL     1       0.066  -4.486   0.674  0.00  0.00    -0.254 N 
ATOM     11  C   UNL     1      -0.620  -4.350  -0.501  0.00  0.00    +0.177 A 
ATOM     12  N   UNL     1      -0.664  -3.209  -1.148  0.00  0.00    -0.221 NA
ENDROOT
BRANCH  10  13
ATOM     13  C   UNL     1       0.086  -5.724   1.330  0.00  0.00    +0.052 A 
ATOM     14  C   UNL     1       1.085  -6.645   1.046  0.00  0.00    +0.026 A 
ATOM     15  C   UNL     1       1.102  -7.865   1.694  0.00  0.00    +0.002 A 
ATOM     16  C   UNL     1       0.125  -8.169   2.625  0.00  0.00    +0.000 A 
ATOM     17  C   UNL     1      -0.872  -7.253   2.909  0.00  0.00    +0.002 A 
ATOM     18  C   UNL     1      -0.890  -6.029   2.269  0.00  0.00    +0.026 A 
ENDBRANCH  10  13
BRANCH  11  19
ATOM     19  S   UNL     1      -1.466  -5.746  -1.165  0.00  0.00    -0.078 S 
BRANCH  19  20
ATOM     20  C   UNL     1      -2.216  -5.118  -2.693  0.00  0.00    +0.173 C 
BRANCH  20  21
ATOM     21  C   UNL     1      -2.980  -6.226  -3.370  0.00  0.00    +0.224 C 
ATOM     22  O   UNL     1      -3.016  -7.331  -2.871  0.00  0.00    -0.275 OA
ATOM     23  N   UNL     1      -3.625  -5.990  -4.530  0.00  0.00    -0.308 N 
ATOM     24  H   UNL     1      -3.596  -5.106  -4.929  0.00  0.00    +0.149 HD
BRANCH  23  25
ATOM     25  C   UNL     1      -4.368  -7.067  -5.188  0.00  0.00    +0.104 C 
ATOM     26  C   UNL     1      -5.460  -6.481  -6.107  0.00  0.00    +0.032 C 
ATOM     27  C   UNL     1      -5.483  -7.486  -7.278  0.00  0.00    +0.037 C 
ATOM     28  C   UNL     1      -4.096  -8.091  -7.308  0.00  0.00    -0.042 A 
ATOM     29  C   UNL     1      -3.454  -7.851  -6.105  0.00  0.00    -0.024 A 
ATOM     30  C   UNL     1      -2.166  -8.318  -5.904  0.00  0.00    +0.006 A 
ATOM     31  C   UNL     1      -1.518  -9.022  -6.900  0.00  0.00    +0.000 A 
ATOM     32  C   UNL     1      -2.158  -9.263  -8.102  0.00  0.00    +0.000 A 
ATOM     33  C   UNL     1      -3.446  -8.795  -8.307  0.00  0.00    +0.004 A 
ENDBRANCH  23  25
ENDBRANCH  20  21
ENDBRANCH  19  20
ENDBRANCH  11  19
TORSDOF 5
