REMARK  Name = ZINC09281993
REMARK  7 active torsions:
REMARK  status: ('A' for Active; 'I' for Inactive)
REMARK    1  A    between atoms: C_1  and  C_2
REMARK    2  A    between atoms: C_2  and  O_3
REMARK    3  A    between atoms: O_3  and  C_4
REMARK    4  A    between atoms: C_7  and  C_10
REMARK    5  A    between atoms: C_17  and  N_31
REMARK    6  A    between atoms: C_18  and  C_29
REMARK    7  A    between atoms: C_19  and  C_21
REMARK                            x       y       z     vdW  Elec       q    Type
REMARK                         _______ _______ _______ _____ _____    ______ ____
ROOT
ATOM      1  C   UNL     1      -2.007  -6.100   0.003  0.00  0.00    +0.074 A 
ATOM      2  C   UNL     1      -2.932  -6.783  -0.714  0.00  0.00    +0.054 A 
ATOM      3  C   UNL     1      -2.763  -8.156  -0.449  0.00  0.00    +0.245 A 
ATOM      4  N   UNL     1      -1.779  -8.293   0.393  0.00  0.00    -0.135 NA
ATOM      5  N   UNL     1      -1.272  -7.020   0.696  0.00  0.00    -0.273 N 
ATOM      6  H   UNL     1      -0.533  -6.827   1.294  0.00  0.00    +0.189 HD
ATOM      7  O   UNL     1      -3.550  -9.103  -1.029  0.00  0.00    -0.421 OA
ATOM      8  C   UNL     1      -4.317  -8.722  -2.069  0.00  0.00    +0.201 C 
ATOM      9  C   UNL     1      -4.559  -7.439  -2.411  0.00  0.00    +0.098 C 
ATOM     10  C   UNL     1      -3.993  -6.266  -1.651  0.00  0.00    +0.103 C 
ENDROOT
BRANCH  10  11
ATOM     11  C   UNL     1      -5.087  -5.596  -0.862  0.00  0.00    -0.016 A 
ATOM     12  C   UNL     1      -5.714  -6.276   0.166  0.00  0.00    +0.007 A 
ATOM     13  C   UNL     1      -6.718  -5.662   0.891  0.00  0.00    +0.020 A 
ATOM     14  C   UNL     1      -7.095  -4.365   0.589  0.00  0.00    +0.042 A 
ATOM     15  C   UNL     1      -6.468  -3.683  -0.438  0.00  0.00    +0.040 A 
ATOM     16  C   UNL     1      -5.460  -4.297  -1.161  0.00  0.00    +0.046 A 
ATOM     17 CL   UNL     1      -4.668  -3.441  -2.446  0.00  0.00    -0.083 Cl
ATOM     18 CL   UNL     1      -8.356  -3.593   1.499  0.00  0.00    -0.083 Cl
ENDBRANCH  10  11
BRANCH   1  22
ATOM     19  C   UNL     1      -1.475  -1.883   0.068  0.00  0.00    +0.121 A 
ATOM     20  C   UNL     1      -1.520  -2.594   1.260  0.00  0.00    +0.046 A 
ATOM     21  C   UNL     1      -1.692  -3.962   1.242  0.00  0.00    +0.013 A 
ATOM     22  C   UNL     1      -1.822  -4.632   0.025  0.00  0.00    +0.000 A 
ATOM     23  C   UNL     1      -1.777  -3.914  -1.171  0.00  0.00    +0.013 A 
ATOM     24  C   UNL     1      -1.610  -2.546  -1.145  0.00  0.00    +0.046 A 
BRANCH  19  25
ATOM     25  O   UNL     1      -1.306  -0.535   0.088  0.00  0.00    -0.492 OA
BRANCH  25  27
ATOM     26  C   UNL     1      -0.992   1.591   1.193  0.00  0.00    +0.048 C 
ATOM     27  C   UNL     1      -1.174   0.082   1.370  0.00  0.00    +0.225 C 
ENDBRANCH  25  27
ENDBRANCH  19  25
ENDBRANCH   1  22
BRANCH   8  28
ATOM     28  N   UNL     1      -4.891  -9.707  -2.834  0.00  0.00    -0.328 N 
ATOM     29  H   UNL     1      -4.739 -10.640  -2.618  0.00  0.00    +0.145 HD
ATOM     30  H   UNL     1      -5.449  -9.469  -3.591  0.00  0.00    +0.145 HD
ENDBRANCH   8  28
BRANCH   9  31
ATOM     31  C   UNL     1      -5.393  -7.181  -3.547  0.00  0.00    +0.101 C 
ATOM     32  N   UNL     1      -6.053  -6.975  -4.448  0.00  0.00    -0.191 NA
ENDBRANCH   9  31
TORSDOF 6
