REMARK  Name = ZINC63465143
REMARK  4 active torsions:
REMARK  status: ('A' for Active; 'I' for Inactive)
REMARK    1  A    between atoms: C_6  and  C_11
REMARK    2  A    between atoms: C_11  and  C_12
REMARK    3  A    between atoms: C_12  and  N_13
REMARK    4  A    between atoms: C_14  and  N_22
REMARK                            x       y       z     vdW  Elec       q    Type
REMARK                         _______ _______ _______ _____ _____    ______ ____
ROOT
ATOM      1  C   UNL     1       4.508  -2.215  -1.491  0.00  0.00    +0.112 C 
ENDROOT
BRANCH   1   2
ATOM      2  N   UNL     1       5.000  -3.595  -1.503  0.00  0.00    -0.298 N 
ATOM      3  C   UNL     1       6.439  -3.857  -1.401  0.00  0.00    +0.026 C 
ATOM      4  C   UNL     1       6.661  -5.133  -0.585  0.00  0.00    +0.100 C 
ATOM      5  C   UNL     1       5.720  -6.205  -1.073  0.00  0.00    +0.240 C 
ATOM      6  O   UNL     1       6.103  -7.492  -1.041  0.00  0.00    -0.274 OA
ATOM      7  N   UNL     1       4.539  -5.893  -1.525  0.00  0.00    -0.128 NA
ATOM      8  C   UNL     1       4.130  -4.615  -1.602  0.00  0.00    +0.327 C 
ATOM      9  O   UNL     1       2.949  -4.377  -1.770  0.00  0.00    -0.250 OA
BRANCH   3  10
ATOM     10  N   UNL     1       7.098  -2.725  -0.735  0.00  0.00    +0.391 N 
ATOM     11  H   UNL     1       6.711  -2.608   0.190  0.00  0.00    -0.087 HD
ATOM     12  H   UNL     1       8.088  -2.906  -0.665  0.00  0.00    -0.087 HD
ATOM     13  H   UNL     1       6.946  -1.885  -1.272  0.00  0.00    -0.087 HD
ENDBRANCH   3  10
ENDBRANCH   1   2
BRANCH   1  14
ATOM     14  C   UNL     1       4.231  -1.785  -0.049  0.00  0.00    +0.052 C 
BRANCH  14  20
ATOM     15  C   UNL     1      -0.017   1.399   0.010  0.00  0.00    +0.022 A 
ATOM     16  C   UNL     1       1.109   2.143   0.003  0.00  0.00    +0.027 A 
ATOM     17  C   UNL     1       2.385   1.516  -0.013  0.00  0.00    +0.043 A 
ATOM     18  N   UNL     1       3.600   2.009  -0.022  0.00  0.00    -0.380 N 
ATOM     19  C   UNL     1       4.557   0.897  -0.038  0.00  0.00    +0.144 C 
ATOM     20  C   UNL     1       3.724  -0.366  -0.036  0.00  0.00    -0.040 C 
ATOM     21  C   UNL     1       2.433   0.036  -0.021  0.00  0.00    +0.000 A 
ATOM     22  C   UNL     1       1.163  -0.699  -0.013  0.00  0.00    +0.030 A 
ATOM     23  C   UNL     1       0.002  -0.004   0.002  0.00  0.00    +0.042 A 
ATOM     24 CL   UNL     1      -1.502  -0.870   0.012  0.00  0.00    -0.084 Cl
ATOM     25  H   UNL     1       3.828   2.952  -0.020  0.00  0.00    +0.160 HD
ENDBRANCH  14  20
ENDBRANCH   1  14
TORSDOF 4
