REMARK  Name = ZINC61095321
REMARK  2 active torsions:
REMARK  status: ('A' for Active; 'I' for Inactive)
REMARK    1  A    between atoms: C_6  and  N_7
REMARK    2  A    between atoms: N_7  and  C_8
REMARK                            x       y       z     vdW  Elec       q    Type
REMARK                         _______ _______ _______ _____ _____    ______ ____
ROOT
ATOM      1  N   UNL     1      -1.199  -0.721   0.010  0.00  0.00    -0.331 N 
ATOM      2  H   UNL     1      -1.185  -1.691   0.005  0.00  0.00    +0.147 HD
ENDROOT
BRANCH   1   8
ATOM      3  C   UNL     1      -0.017   1.384   0.010  0.00  0.00    +0.064 A 
ATOM      4  C   UNL     1       1.173   2.091   0.002  0.00  0.00    +0.128 A 
ATOM      5  C   UNL     1       2.381   1.417  -0.013  0.00  0.00    +0.079 A 
ATOM      6  C   UNL     1       2.404   0.032  -0.022  0.00  0.00    +0.163 A 
ATOM      7  C   UNL     1       1.217  -0.680  -0.014  0.00  0.00    +0.179 A 
ATOM      8  C   UNL     1       0.002  -0.004   0.002  0.00  0.00    +0.069 A 
ATOM      9  F   UNL     1       1.239  -2.031  -0.023  0.00  0.00    -0.201 F 
ATOM     10  F   UNL     1       3.585  -0.624  -0.037  0.00  0.00    -0.202 F 
ATOM     11  F   UNL     1       1.154   3.442   0.009  0.00  0.00    -0.205 F 
ENDBRANCH   1   8
BRANCH   1  12
ATOM     12  C   UNL     1      -2.478  -0.007   0.027  0.00  0.00    +0.157 C 
ATOM     13  C   UNL     1      -3.572  -0.898  -0.568  0.00  0.00    +0.032 C 
ATOM     14  C   UNL     1      -4.708  -0.057  -1.119  0.00  0.00    +0.004 C 
ATOM     15  C   UNL     1      -5.487   0.695  -0.056  0.00  0.00    +0.019 C 
ATOM     16  C   UNL     1      -4.619   1.773   0.596  0.00  0.00    +0.104 C 
ATOM     17  N   UNL     1      -3.864   1.164   1.703  0.00  0.00    -0.314 N 
ATOM     18  C   UNL     1      -2.852   0.333   1.454  0.00  0.00    +0.233 C 
ATOM     19  O   UNL     1      -2.232  -0.156   2.374  0.00  0.00    -0.274 OA
ATOM     20  H   UNL     1      -4.103   1.372   2.620  0.00  0.00    +0.149 HD
ENDBRANCH   1  12
TORSDOF 2
