REMARK  Name = ZINC39639447
REMARK  8 active torsions:
REMARK  status: ('A' for Active; 'I' for Inactive)
REMARK    1  A    between atoms: C_1  and  C_2
REMARK    2  A    between atoms: C_5  and  C_8
REMARK    3  A    between atoms: C_8  and  C_10
REMARK    4  A    between atoms: C_8  and  N_11
REMARK    5  A    between atoms: C_12  and  C_14
REMARK    6  A    between atoms: C_25  and  C_27
REMARK    7  A    between atoms: C_29  and  C_33
REMARK    8  A    between atoms: N_30  and  C_32
REMARK                            x       y       z     vdW  Elec       q    Type
REMARK                         _______ _______ _______ _____ _____    ______ ____
ROOT
ATOM      1  C   UNL     1       2.460  -6.468   1.999  0.00  0.00    +0.100 C 
ATOM      2  C   UNL     1       3.759  -5.631   2.021  0.00  0.00    +0.121 C 
ATOM      3  N   UNL     1       4.829  -6.610   2.326  0.00  0.00    -0.295 N 
ATOM      4  C   UNL     1       4.453  -7.820   1.556  0.00  0.00    +0.115 C 
ATOM      5  C   UNL     1       2.920  -7.904   1.693  0.00  0.00    -0.004 C 
ATOM      6  C   UNL     1       2.300  -8.389   0.386  0.00  0.00    -0.010 C 
ATOM      7  C   UNL     1       2.725  -9.838   0.133  0.00  0.00    -0.082 C 
ATOM      8  N   UNL     1       2.284 -10.682   1.250  0.00  0.00    +0.379 N 
ATOM      9  C   UNL     1       2.957 -10.267   2.487  0.00  0.00    -0.082 C 
ATOM     10  C   UNL     1       2.542  -8.836   2.840  0.00  0.00    -0.010 C 
ATOM     11  C   UNL     1       5.902  -6.439   3.124  0.00  0.00    +0.267 C 
ATOM     12  O   UNL     1       6.699  -7.345   3.274  0.00  0.00    -0.268 OA
ATOM     13  H   UNL     1       1.286 -10.592   1.365  0.00  0.00    -0.086 HD
ATOM     14  H   UNL     1       2.512 -11.645   1.052  0.00  0.00    -0.086 HD
ENDROOT
BRANCH  11  15
ATOM     15  C   UNL     1       6.110  -5.150   3.815  0.00  0.00    +0.147 A 
ATOM     16  C   UNL     1       7.185  -4.820   4.675  0.00  0.00    +0.057 A 
ATOM     17  C   UNL     1       6.955  -3.545   5.068  0.00  0.00    +0.037 A 
ATOM     18  N   UNL     1       5.809  -3.144   4.475  0.00  0.00    -0.271 N 
ATOM     19  N   UNL     1       5.333  -4.088   3.745  0.00  0.00    -0.167 NA
ATOM     20  C   UNL     1       5.201  -1.821   4.636  0.00  0.00    +0.172 C 
ATOM     21  C   UNL     1       7.816  -2.726   5.995  0.00  0.00    +0.065 C 
ENDBRANCH  11  15
BRANCH   1  23
ATOM     22  N   UNL     1       0.201  -6.111   1.058  0.00  0.00    -0.308 N 
ATOM     23  C   UNL     1       1.534  -5.972   0.919  0.00  0.00    +0.219 C 
ATOM     24  O   UNL     1       1.989  -5.448  -0.076  0.00  0.00    -0.275 OA
ATOM     25  H   UNL     1      -0.163  -6.530   1.853  0.00  0.00    +0.149 HD
BRANCH  22  26
ATOM     26  C   UNL     1      -0.699  -5.628   0.007  0.00  0.00    +0.100 C 
ATOM     27  C   UNL     1      -0.848  -6.703  -1.071  0.00  0.00    +0.033 C 
BRANCH  26  32
ATOM     28  C   UNL     1      -5.879  -4.466   2.289  0.00  0.00    +0.044 C 
ATOM     29  C   UNL     1      -4.528  -4.769   1.694  0.00  0.00    -0.050 A 
ATOM     30  C   UNL     1      -3.991  -3.929   0.736  0.00  0.00    +0.004 A 
ATOM     31  C   UNL     1      -2.752  -4.207   0.190  0.00  0.00    +0.006 A 
ATOM     32  C   UNL     1      -2.050  -5.324   0.603  0.00  0.00    -0.027 A 
ATOM     33  C   UNL     1      -2.587  -6.163   1.562  0.00  0.00    +0.006 A 
ATOM     34  C   UNL     1      -3.824  -5.883   2.111  0.00  0.00    +0.004 A 
ENDBRANCH  26  32
ENDBRANCH  22  26
ENDBRANCH   1  23
TORSDOF 4
