REMARK  Name = ZINC40983896
REMARK  13 active torsions:
REMARK  status: ('A' for Active; 'I' for Inactive)
REMARK    1  A    between atoms: C_1  and  C_2
REMARK    2  A    between atoms: C_2  and  O_3
REMARK    3  A    between atoms: O_3  and  C_4
REMARK    4  A    between atoms: C_4  and  C_6
REMARK    5  A    between atoms: C_12  and  C_14
REMARK    6  A    between atoms: N_17  and  C_20
REMARK    7  A    between atoms: C_20  and  C_21
REMARK    8  A    between atoms: C_22  and  C_36
REMARK    9  A    between atoms: C_24  and  C_26
REMARK   10  A    between atoms: C_29  and  O_32
REMARK   11  A    between atoms: O_32  and  C_33
REMARK   12  A    between atoms: C_33  and  C_34
REMARK   13  A    between atoms: C_33  and  C_35
REMARK                            x       y       z     vdW  Elec       q    Type
REMARK                         _______ _______ _______ _____ _____    ______ ____
ROOT
ATOM      1  C   UNL     1       4.275  -5.828  -3.354  0.00  0.00    +0.072 C 
ATOM      2  C   UNL     1       3.562  -6.427  -2.138  0.00  0.00    -0.006 C 
ATOM      3  C   UNL     1       3.589  -7.954  -2.239  0.00  0.00    -0.078 C 
ATOM      4  N   UNL     1       4.980  -8.421  -2.272  0.00  0.00    +0.383 N 
ATOM      5  C   UNL     1       5.649  -7.909  -3.474  0.00  0.00    -0.078 C 
ATOM      6  C   UNL     1       5.702  -6.381  -3.421  0.00  0.00    -0.006 C 
ATOM      7  H   UNL     1       5.465  -8.090  -1.451  0.00  0.00    -0.081 HD
ENDROOT
BRANCH   1  14
ATOM      8  C   UNL     1       1.136  -2.074  -4.508  0.00  0.00    +0.101 C 
ATOM      9  C   UNL     1       1.248  -3.574  -4.789  0.00  0.00    +0.033 C 
ATOM     10  C   UNL     1       1.901  -4.267  -3.589  0.00  0.00    +0.108 C 
ATOM     11  N   UNL     1       3.184  -3.609  -3.304  0.00  0.00    -0.301 N 
ATOM     12  C   UNL     1       3.203  -2.153  -3.107  0.00  0.00    +0.108 C 
ATOM     13  C   UNL     1       2.535  -1.484  -4.313  0.00  0.00    +0.033 C 
ATOM     14  C   UNL     1       4.321  -4.328  -3.224  0.00  0.00    +0.219 C 
ATOM     15  O   UNL     1       5.382  -3.767  -3.046  0.00  0.00    -0.275 OA
BRANCH   8  16
ATOM     16  C   UNL     1       0.463  -1.394  -5.673  0.00  0.00    +0.310 C 
ATOM     17  O   UNL     1       1.042  -0.527  -6.283  0.00  0.00    -0.251 OA
BRANCH  16  18
ATOM     18  O   UNL     1      -0.780  -1.751  -6.031  0.00  0.00    -0.465 OA
BRANCH  18  20
ATOM     19  C   UNL     1      -2.765  -1.604  -7.402  0.00  0.00    +0.048 C 
ATOM     20  C   UNL     1      -1.357  -1.065  -7.144  0.00  0.00    +0.229 C 
ENDBRANCH  18  20
ENDBRANCH  16  18
ENDBRANCH   8  16
ENDBRANCH   1  14
BRANCH   4  21
ATOM     21  C   UNL     1       5.001  -9.890  -2.289  0.00  0.00    -0.019 C 
BRANCH  21  22
ATOM     22  C   UNL     1       6.426 -10.373  -2.199  0.00  0.00    +0.066 A 
ATOM     23  C   UNL     1       7.249 -10.607  -3.236  0.00  0.00    +0.124 A 
ATOM     24  O   UNL     1       8.426 -11.024  -2.727  0.00  0.00    -0.440 OA
ATOM     25  C   UNL     1       8.309 -11.040  -1.388  0.00  0.00    +0.228 A 
ATOM     26  N   UNL     1       7.100 -10.640  -1.070  0.00  0.00    -0.216 NA
ATOM     27  C   UNL     1       6.918 -10.437  -4.697  0.00  0.00    +0.088 C 
BRANCH  25  28
ATOM     28  C   UNL     1       9.366 -11.435  -0.434  0.00  0.00    +0.037 A 
ATOM     29  C   UNL     1       9.113 -11.413   0.939  0.00  0.00    +0.017 A 
ATOM     30  C   UNL     1      10.101 -11.783   1.826  0.00  0.00    +0.046 A 
ATOM     31  C   UNL     1      11.347 -12.177   1.355  0.00  0.00    +0.121 A 
ATOM     32  C   UNL     1      11.602 -12.200  -0.010  0.00  0.00    +0.046 A 
ATOM     33  C   UNL     1      10.618 -11.837  -0.903  0.00  0.00    +0.017 A 
BRANCH  31  34
ATOM     34  O   UNL     1      12.319 -12.540   2.232  0.00  0.00    -0.489 OA
BRANCH  34  35
ATOM     35  C   UNL     1      12.032 -12.375   3.622  0.00  0.00    +0.167 C 
ATOM     36  C   UNL     1      11.347 -13.635   4.155  0.00  0.00    +0.051 C 
ATOM     37  C   UNL     1      13.337 -12.142   4.388  0.00  0.00    +0.051 C 
ENDBRANCH  34  35
ENDBRANCH  31  34
ENDBRANCH  25  28
ENDBRANCH  21  22
ENDBRANCH   4  21
TORSDOF 9
