REMARK  Name = ZINC05823723
REMARK  8 active torsions:
REMARK  status: ('A' for Active; 'I' for Inactive)
REMARK    1  A    between atoms: C_1  and  C_2
REMARK    2  A    between atoms: C_2  and  C_30
REMARK    3  A    between atoms: C_6  and  C_17
REMARK    4  A    between atoms: C_11  and  O_16
REMARK    5  A    between atoms: C_12  and  O_15
REMARK    6  A    between atoms: C_24  and  S_26
REMARK    7  A    between atoms: S_26  and  C_27
REMARK    8  A    between atoms: C_27  and  C_28
REMARK                            x       y       z     vdW  Elec       q    Type
REMARK                         _______ _______ _______ _____ _____    ______ ____
ROOT
ATOM      1  C   UNL     1      -0.019   1.526   0.010  0.00  0.00    +0.031 C 
ATOM      2  C   UNL     1       0.002  -0.004   0.002  0.00  0.00    +0.034 C 
ATOM      3  C   UNL     1      -1.434  -0.546   0.065  0.00  0.00    +0.096 C 
ATOM      4  C   UNL     1      -1.373  -2.075   0.081  0.00  0.00    +0.187 C 
ATOM      5  C   UNL     1      -2.769  -2.633   0.387  0.00  0.00    +0.084 C 
ATOM      6  C   UNL     1      -2.665  -4.156   0.497  0.00  0.00    +0.058 C 
ATOM      7  C   UNL     1      -1.891  -4.699  -0.677  0.00  0.00    +0.006 A 
ATOM      8  C   UNL     1      -1.990  -6.050  -0.973  0.00  0.00    +0.011 A 
ATOM      9  C   UNL     1      -1.294  -6.587  -2.037  0.00  0.00    +0.050 A 
ATOM     10  C   UNL     1      -0.488  -5.774  -2.819  0.00  0.00    +0.162 A 
ATOM     11  C   UNL     1      -0.386  -4.420  -2.529  0.00  0.00    +0.201 A 
ATOM     12  C   UNL     1      -1.091  -3.881  -1.455  0.00  0.00    +0.172 A 
ATOM     13  O   UNL     1      -0.974  -2.549  -1.206  0.00  0.00    -0.463 OA
ATOM     14  N   UNL     1      -0.430  -2.539   1.092  0.00  0.00    -0.331 N 
ATOM     15  C   UNL     1       0.520  -1.807   1.578  0.00  0.00    +0.131 C 
ATOM     16  N   UNL     1       0.712  -0.501   1.191  0.00  0.00    -0.320 N 
ATOM     17  C   UNL     1       0.695  -0.508  -1.266  0.00  0.00    +0.031 C 
ATOM     18  H   UNL     1       1.304   0.081   1.692  0.00  0.00    +0.148 HD
ATOM     19  H   UNL     1      -0.519  -3.448   1.419  0.00  0.00    +0.165 HD
ENDROOT
BRANCH   6  20
ATOM     20  C   UNL     1      -4.048  -4.755   0.504  0.00  0.00    -0.040 A 
ATOM     21  C   UNL     1      -4.891  -4.559  -0.573  0.00  0.00    +0.004 A 
ATOM     22  C   UNL     1      -6.160  -5.107  -0.567  0.00  0.00    +0.000 A 
ATOM     23  C   UNL     1      -6.585  -5.853   0.517  0.00  0.00    +0.000 A 
ATOM     24  C   UNL     1      -5.741  -6.049   1.595  0.00  0.00    +0.000 A 
ATOM     25  C   UNL     1      -4.471  -5.504   1.586  0.00  0.00    +0.004 A 
ENDBRANCH   6  20
BRANCH  11  26
ATOM     26  O   UNL     1       0.405  -3.619  -3.294  0.00  0.00    -0.501 OA
ATOM     27  H   UNL     1      -0.051  -3.222  -4.048  0.00  0.00    +0.292 HD
ENDBRANCH  11  26
BRANCH  10  28
ATOM     28  O   UNL     1       0.201  -6.301  -3.866  0.00  0.00    -0.503 OA
ATOM     29  H   UNL     1      -0.284  -6.288  -4.703  0.00  0.00    +0.292 HD
ENDBRANCH  10  28
BRANCH  15  30
ATOM     30  S   UNL     1       1.605  -2.507   2.777  0.00  0.00    -0.089 S 
BRANCH  30  31
ATOM     31  C   UNL     1       2.753  -1.159   3.170  0.00  0.00    +0.103 C 
BRANCH  31  32
ATOM     32  C   UNL     1       3.748  -1.630   4.199  0.00  0.00    -0.023 C 
ATOM     33  C   UNL     1       5.018  -1.719   3.889  0.00  0.00    +0.005 C 
ENDBRANCH  31  32
ENDBRANCH  30  31
ENDBRANCH  15  30
TORSDOF 6
