REMARK  Name = ZINC32074506
REMARK  8 active torsions:
REMARK  status: ('A' for Active; 'I' for Inactive)
REMARK    1  A    between atoms: C_1  and  C_2
REMARK    2  A    between atoms: C_2  and  O_3
REMARK    3  A    between atoms: O_3  and  C_4
REMARK    4  A    between atoms: C_6  and  C_14
REMARK    5  A    between atoms: C_9  and  O_10
REMARK    6  A    between atoms: O_10  and  C_11
REMARK    7  A    between atoms: C_11  and  C_12
REMARK    8  A    between atoms: C_22  and  C_32
REMARK                            x       y       z     vdW  Elec       q    Type
REMARK                         _______ _______ _______ _____ _____    ______ ____
ROOT
ATOM      1  C   UNL     1       0.654  -4.954  -0.018  0.00  0.00    +0.063 C 
ATOM      2  C   UNL     1       0.623  -5.845  -1.264  0.00  0.00    +0.109 C 
ATOM      3  C   UNL     1      -0.382  -6.953  -1.116  0.00  0.00    +0.219 C 
ATOM      4  O   UNL     1      -1.042  -7.280  -2.079  0.00  0.00    -0.275 OA
ATOM      5  N   UNL     1      -0.573  -7.594   0.057  0.00  0.00    -0.270 N 
ATOM      6  C   UNL     1       0.045  -7.079   1.195  0.00  0.00    +0.134 A 
ATOM      7  C   UNL     1       0.635  -5.842   1.200  0.00  0.00    +0.023 A 
ATOM      8  C   UNL     1       1.160  -5.621   2.466  0.00  0.00    +0.066 A 
ATOM      9  N   UNL     1       0.892  -6.668   3.211  0.00  0.00    -0.168 NA
ATOM     10  N   UNL     1       0.179  -7.599   2.433  0.00  0.00    -0.198 N 
ATOM     11  C   UNL     1      -0.303  -8.838   2.864  0.00  0.00    +0.178 A 
ATOM     12  C   UNL     1       0.301  -9.488   3.939  0.00  0.00    +0.053 A 
ATOM     13  C   UNL     1      -0.214 -10.714   4.329  0.00  0.00    +0.045 A 
ATOM     14  C   UNL     1      -1.299 -11.220   3.625  0.00  0.00    +0.152 A 
ATOM     15  N   UNL     1      -1.808 -10.535   2.618  0.00  0.00    -0.136 NA
ATOM     16  N   UNL     1      -1.338  -9.396   2.257  0.00  0.00    -0.128 NA
ATOM     17 CL   UNL     1      -1.986 -12.751   4.068  0.00  0.00    -0.060 Cl
ATOM     18  C   UNL     1       1.908  -4.390   2.909  0.00  0.00    +0.068 C 
ATOM     19  H   UNL     1      -1.123  -8.392   0.105  0.00  0.00    +0.156 HD
ENDROOT
BRANCH   1  22
ATOM     20  C   UNL     1      -1.498  -1.849   0.006  0.00  0.00    +0.162 A 
ATOM     21  C   UNL     1      -0.389  -2.680  -0.003  0.00  0.00    +0.053 A 
ATOM     22  C   UNL     1      -0.553  -4.052  -0.008  0.00  0.00    -0.036 A 
ATOM     23  C   UNL     1      -1.823  -4.600  -0.005  0.00  0.00    +0.008 A 
ATOM     24  C   UNL     1      -2.934  -3.777   0.004  0.00  0.00    +0.050 A 
ATOM     25  C   UNL     1      -2.776  -2.400   0.016  0.00  0.00    +0.163 A 
BRANCH  20  26
ATOM     26  O   UNL     1      -1.339  -0.499   0.012  0.00  0.00    -0.489 OA
BRANCH  26  28
ATOM     27  C   UNL     1      -0.019   1.526   0.010  0.00  0.00    +0.048 C 
ATOM     28  C   UNL     1       0.002  -0.004   0.002  0.00  0.00    +0.226 C 
ENDBRANCH  26  28
ENDBRANCH  20  26
BRANCH  25  29
ATOM     29  O   UNL     1      -3.868  -1.589   0.030  0.00  0.00    -0.476 OA
BRANCH  29  30
ATOM     30  C   UNL     1      -5.148  -2.225   0.039  0.00  0.00    +0.317 C 
BRANCH  30  31
ATOM     31  C   UNL     1      -6.204  -1.200   0.055  0.00  0.00    -0.065 C 
ATOM     32  C   UNL     1      -7.047  -0.382   0.067  0.00  0.00    +0.007 C 
ENDBRANCH  30  31
ENDBRANCH  29  30
ENDBRANCH  25  29
ENDBRANCH   1  22
TORSDOF 6
