REMARK  Name = ZINC64019301
REMARK  5 active torsions:
REMARK  status: ('A' for Active; 'I' for Inactive)
REMARK    1  A    between atoms: C_1  and  C_2
REMARK    2  A    between atoms: C_7  and  N_8
REMARK    3  A    between atoms: C_9  and  O_33
REMARK    4  A    between atoms: C_12  and  O_32
REMARK    5  A    between atoms: C_13  and  C_17
REMARK                            x       y       z     vdW  Elec       q    Type
REMARK                         _______ _______ _______ _____ _____    ______ ____
ROOT
ATOM      1  N   UNL     1      -0.168   0.046   2.526  0.00  0.00    -0.225 N 
ATOM      2  C   UNL     1      -1.374   0.475   3.220  0.00  0.00    +0.338 C 
ATOM      3  N   UNL     1      -1.115   1.567   4.144  0.00  0.00    -0.204 NA
ATOM      4  C   UNL     1       0.038   1.851   4.613  0.00  0.00    +0.200 C 
ATOM      5  C   UNL     1       1.276   1.082   4.257  0.00  0.00    +0.179 C 
ATOM      6  C   UNL     1       1.062   0.301   2.991  0.00  0.00    +0.237 C 
ATOM      7  O   UNL     1       2.025  -0.103   2.374  0.00  0.00    -0.274 OA
ENDROOT
BRANCH   5   8
ATOM      8  C   UNL     1       1.612   0.111   5.390  0.00  0.00    +0.101 C 
ATOM      9  C   UNL     1       2.937  -0.595   5.088  0.00  0.00    +0.124 C 
ATOM     10  C   UNL     1       3.109  -1.657   6.168  0.00  0.00    -0.036 C 
ATOM     11  C   UNL     1       4.297  -1.444   6.717  0.00  0.00    -0.001 A 
ATOM     12  C   UNL     1       5.052  -2.185   7.741  0.00  0.00    +0.010 A 
ATOM     13  C   UNL     1       6.261  -1.667   8.086  0.00  0.00    +0.001 A 
ATOM     14  C   UNL     1       6.787  -0.501   7.522  0.00  0.00    +0.002 A 
ATOM     15  C   UNL     1       6.165   0.240   6.571  0.00  0.00    +0.026 A 
ATOM     16  C   UNL     1       4.889  -0.207   6.122  0.00  0.00    +0.043 A 
ATOM     17  N   UNL     1       4.089   0.298   5.202  0.00  0.00    -0.376 N 
ATOM     18  C   UNL     1       2.006  -2.631   6.504  0.00  0.00    +0.048 C 
ATOM     19  C   UNL     1       0.724  -1.793   6.656  0.00  0.00    +0.085 C 
ATOM     20  N   UNL     1       0.557  -0.909   5.498  0.00  0.00    -0.310 NA
ATOM     21  H   UNL     1      -0.358  -0.485   5.495  0.00  0.00    +0.122 HD
ATOM     22  H   UNL     1       4.228   1.113   4.695  0.00  0.00    +0.160 HD
ENDBRANCH   5   8
BRANCH   1  29
ATOM     23  C   UNL     1      -0.254   1.515   0.091  0.00  0.00    +0.045 C 
ATOM     24  C   UNL     1      -0.345   0.011   0.118  0.00  0.00    -0.029 A 
ATOM     25  C   UNL     1      -0.469  -0.696  -1.063  0.00  0.00    +0.005 A 
ATOM     26  C   UNL     1      -0.552  -2.076  -1.038  0.00  0.00    +0.000 A 
ATOM     27  C   UNL     1      -0.511  -2.753   0.167  0.00  0.00    +0.002 A 
ATOM     28  C   UNL     1      -0.388  -2.052   1.350  0.00  0.00    +0.024 A 
ATOM     29  C   UNL     1      -0.299  -0.666   1.329  0.00  0.00    +0.043 A 
ENDBRANCH   1  29
BRANCH   4  30
ATOM     30  O   UNL     1       0.147   2.890   5.468  0.00  0.00    -0.495 OA
ATOM     31  H   UNL     1      -0.690   3.338   5.651  0.00  0.00    +0.293 HD
ENDBRANCH   4  30
BRANCH   2  32
ATOM     32  O   UNL     1      -2.336   0.904   2.255  0.00  0.00    -0.356 OA
ATOM     33  H   UNL     1      -3.170   1.207   2.639  0.00  0.00    +0.214 HD
ENDBRANCH   2  32
TORSDOF 4
