REMARK  Name = ZINC39685777
REMARK  12 active torsions:
REMARK  status: ('A' for Active; 'I' for Inactive)
REMARK    1  A    between atoms: C_1  and  C_2
REMARK    2  A    between atoms: C_2  and  C_3
REMARK    3  A    between atoms: C_7  and  C_16
REMARK    4  A    between atoms: N_18  and  C_19
REMARK    5  A    between atoms: C_19  and  C_21
REMARK    6  A    between atoms: C_19  and  C_24
REMARK    7  A    between atoms: C_21  and  C_22
REMARK    8  A    between atoms: C_21  and  C_23
REMARK    9  A    between atoms: N_26  and  C_27
REMARK   10  A    between atoms: C_27  and  C_28
REMARK   11  A    between atoms: C_27  and  C_29
REMARK   12  A    between atoms: C_27  and  C_30
REMARK                            x       y       z     vdW  Elec       q    Type
REMARK                         _______ _______ _______ _____ _____    ______ ____
ROOT
ATOM      1  C   UNL     1       0.502  -0.957  -2.471  0.00  0.00    +0.215 C 
ATOM      2  O   UNL     1       0.642  -0.092  -3.309  0.00  0.00    -0.276 OA
ATOM      3  N   UNL     1       0.378  -2.245  -2.847  0.00  0.00    -0.300 N 
ATOM      4  C   UNL     1       0.194  -3.432  -1.979  0.00  0.00    +0.121 C 
ATOM      5  C   UNL     1      -0.818  -4.319  -2.738  0.00  0.00    +0.100 C 
ATOM      6  C   UNL     1      -0.681  -3.898  -4.211  0.00  0.00    -0.004 C 
ATOM      7  C   UNL     1       0.387  -2.795  -4.224  0.00  0.00    +0.115 C 
ATOM      8  C   UNL     1      -2.006  -3.346  -4.728  0.00  0.00    -0.010 C 
ATOM      9  C   UNL     1      -1.861  -2.988  -6.210  0.00  0.00    -0.082 C 
ATOM     10  N   UNL     1      -1.475  -4.184  -6.969  0.00  0.00    +0.379 N 
ATOM     11  C   UNL     1      -0.156  -4.653  -6.528  0.00  0.00    -0.082 C 
ATOM     12  C   UNL     1      -0.230  -5.082  -5.060  0.00  0.00    -0.010 C 
ATOM     13  H   UNL     1      -2.158  -4.911  -6.817  0.00  0.00    -0.086 HD
ATOM     14  H   UNL     1      -1.439  -3.959  -7.952  0.00  0.00    -0.086 HD
ENDROOT
BRANCH   5  15
ATOM     15  C   UNL     1      -2.218  -4.059  -2.244  0.00  0.00    +0.219 C 
ATOM     16  O   UNL     1      -2.966  -4.988  -2.025  0.00  0.00    -0.275 OA
ATOM     17  N   UNL     1      -2.638  -2.794  -2.045  0.00  0.00    -0.303 N 
ATOM     18  H   UNL     1      -2.040  -2.051  -2.221  0.00  0.00    +0.149 HD
BRANCH  17  19
ATOM     19  C   UNL     1      -3.999  -2.541  -1.565  0.00  0.00    +0.161 C 
BRANCH  19  20
ATOM     20  C   UNL     1      -4.435  -1.163  -1.992  0.00  0.00    +0.234 C 
ATOM     21  O   UNL     1      -3.608  -0.344  -2.331  0.00  0.00    -0.274 OA
ATOM     22  N   UNL     1      -5.744  -0.842  -1.997  0.00  0.00    -0.309 N 
ATOM     23  H   UNL     1      -6.400  -1.474  -1.663  0.00  0.00    +0.149 HD
BRANCH  22  24
ATOM     24  C   UNL     1      -6.176   0.461  -2.509  0.00  0.00    +0.026 C 
ATOM     25  C   UNL     1      -5.756   0.599  -3.973  0.00  0.00    +0.031 C 
ATOM     26  C   UNL     1      -7.699   0.571  -2.402  0.00  0.00    +0.031 C 
ATOM     27  C   UNL     1      -5.526   1.574  -1.684  0.00  0.00    +0.031 C 
ENDBRANCH  22  24
ENDBRANCH  19  20
BRANCH  19  28
ATOM     28  C   UNL     1      -4.026  -2.634  -0.038  0.00  0.00    +0.012 C 
ATOM     29  C   UNL     1      -3.662  -4.056   0.393  0.00  0.00    +0.009 C 
ATOM     30  C   UNL     1      -3.015  -1.648   0.551  0.00  0.00    +0.009 C 
ENDBRANCH  19  28
ENDBRANCH  17  19
ENDBRANCH   5  15
BRANCH   1  32
ATOM     31  C   UNL     1       0.630   0.921  -0.857  0.00  0.00    +0.013 C 
ATOM     32  C   UNL     1       0.468  -0.593  -1.009  0.00  0.00    +0.092 C 
ENDBRANCH   1  32
TORSDOF 6
