REMARK  Name = ZINC45076885
REMARK  14 active torsions:
REMARK  status: ('A' for Active; 'I' for Inactive)
REMARK    1  A    between atoms: C_1  and  C_2
REMARK    2  A    between atoms: C_2  and  C_3
REMARK    3  A    between atoms: C_3  and  C_4
REMARK    4  A    between atoms: C_7  and  C_12
REMARK    5  A    between atoms: N_9  and  C_11
REMARK    6  A    between atoms: N_14  and  C_15
REMARK    7  A    between atoms: C_15  and  C_17
REMARK    8  A    between atoms: C_15  and  C_33
REMARK    9  A    between atoms: C_19  and  O_32
REMARK   10  A    between atoms: C_21  and  O_31
REMARK   11  A    between atoms: C_23  and  O_30
REMARK   12  A    between atoms: C_25  and  S_28
REMARK   13  A    between atoms: S_28  and  C_29
REMARK   14  A    between atoms: C_33  and  C_35
REMARK                            x       y       z     vdW  Elec       q    Type
REMARK                         _______ _______ _______ _____ _____    ______ ____
ROOT
ATOM      1  C   UNL     1      -0.611  -5.121   4.956  0.00  0.00    +0.122 C 
ENDROOT
BRANCH   1   2
ATOM      2  C   UNL     1       0.631  -4.671   5.728  0.00  0.00    +0.172 C 
ATOM      3  C   UNL     1       0.724  -3.144   5.701  0.00  0.00    +0.176 C 
ATOM      4  C   UNL     1       1.935  -2.698   6.526  0.00  0.00    +0.177 C 
ATOM      5  C   UNL     1       1.798  -3.247   7.950  0.00  0.00    +0.184 C 
ATOM      6  C   UNL     1       1.664  -4.771   7.890  0.00  0.00    +0.207 C 
ATOM      7  O   UNL     1       0.538  -5.118   7.082  0.00  0.00    -0.356 OA
BRANCH   6   8
ATOM      8  S   UNL     1       3.168  -5.483   7.168  0.00  0.00    -0.131 S 
ATOM      9  C   UNL     1       2.917  -7.274   7.307  0.00  0.00    +0.087 C 
ENDBRANCH   6   8
BRANCH   5  10
ATOM     10  O   UNL     1       2.957  -2.898   8.709  0.00  0.00    -0.386 OA
ATOM     11  H   UNL     1       2.939  -3.214   9.623  0.00  0.00    +0.210 HD
ENDBRANCH   5  10
BRANCH   4  12
ATOM     12  O   UNL     1       1.988  -1.271   6.565  0.00  0.00    -0.386 OA
ATOM     13  H   UNL     1       2.732  -0.919   7.072  0.00  0.00    +0.210 HD
ENDBRANCH   4  12
BRANCH   3  14
ATOM     14  O   UNL     1      -0.467  -2.583   6.257  0.00  0.00    -0.387 OA
ATOM     15  H   UNL     1      -0.477  -1.616   6.272  0.00  0.00    +0.210 HD
ENDBRANCH   3  14
ENDBRANCH   1   2
BRANCH   1  18
ATOM     16  C   UNL     1      -1.634  -4.479   2.840  0.00  0.00    +0.200 C 
ATOM     17  O   UNL     1      -2.721  -4.694   3.334  0.00  0.00    -0.278 OA
ATOM     18  N   UNL     1      -0.515  -4.663   3.567  0.00  0.00    -0.310 N 
ATOM     19  H   UNL     1       0.354  -4.492   3.172  0.00  0.00    +0.149 HD
BRANCH  16  22
ATOM     20  C   UNL     1      -1.413  -2.063   0.004  0.00  0.00    -0.029 C 
ATOM     21  C   UNL     1      -0.868  -2.612   1.349  0.00  0.00    -0.005 C 
ATOM     22  C   UNL     1      -1.536  -4.008   1.412  0.00  0.00    +0.019 C 
ATOM     23  N   UNL     1      -2.884  -3.807   0.839  0.00  0.00    +0.386 N 
ATOM     24  C   UNL     1      -2.848  -2.628  -0.050  0.00  0.00    -0.075 C 
ATOM     25  C   UNL     1      -3.275  -4.994   0.067  0.00  0.00    -0.095 C 
ATOM     26  H   UNL     1      -3.549  -3.653   1.583  0.00  0.00    -0.081 HD
BRANCH  20  27
ATOM     27  C   UNL     1      -1.433  -0.534   0.013  0.00  0.00    +0.001 C 
BRANCH  27  29
ATOM     28  C   UNL     1      -0.019   1.526   0.010  0.00  0.00    +0.004 C 
ATOM     29  C   UNL     1       0.002  -0.004   0.002  0.00  0.00    -0.003 C 
ENDBRANCH  27  29
ENDBRANCH  20  27
ENDBRANCH  16  22
ENDBRANCH   1  18
BRANCH   1  30
ATOM     30  C   UNL     1      -0.703  -6.648   4.984  0.00  0.00    +0.100 C 
ATOM     31  C   UNL     1      -1.873  -7.104   4.109  0.00  0.00    +0.026 C 
ATOM     32 CL   UNL     1      -0.969  -7.203   6.678  0.00  0.00    -0.120 Cl
ENDBRANCH   1  30
TORSDOF 10
