REMARK  Name = ZINC35673660
REMARK  14 active torsions:
REMARK  status: ('A' for Active; 'I' for Inactive)
REMARK    1  A    between atoms: C_1  and  C_2
REMARK    2  A    between atoms: C_2  and  C_3
REMARK    3  A    between atoms: C_2  and  C_4
REMARK    4  A    between atoms: C_7  and  N_10
REMARK    5  A    between atoms: C_12  and  C_30
REMARK    6  A    between atoms: N_15  and  C_16
REMARK    7  A    between atoms: C_16  and  C_18
REMARK    8  A    between atoms: C_18  and  N_19
REMARK    9  A    between atoms: N_19  and  C_20
REMARK   10  A    between atoms: C_20  and  C_21
REMARK   11  A    between atoms: C_21  and  N_22
REMARK   12  A    between atoms: N_22  and  C_23
REMARK   13  A    between atoms: N_22  and  C_24
REMARK   14  A    between atoms: C_25  and  C_27
REMARK                            x       y       z     vdW  Elec       q    Type
REMARK                         _______ _______ _______ _____ _____    ______ ____
ROOT
ATOM      1  N   UNL     1       2.658  -1.834  -4.667  0.00  0.00    -0.287 N 
ATOM      2  C   UNL     1       2.285  -1.567  -5.968  0.00  0.00    +0.120 A 
ATOM      3  C   UNL     1       3.161  -2.175  -6.787  0.00  0.00    +0.066 A 
ATOM      4  N   UNL     1       4.096  -2.833  -5.997  0.00  0.00    -0.326 N 
ATOM      5  C   UNL     1       3.776  -2.609  -4.697  0.00  0.00    +0.205 A 
ATOM      6  N   UNL     1       4.438  -3.070  -3.636  0.00  0.00    -0.145 NA
ATOM      7  H   UNL     1       4.847  -3.357  -6.319  0.00  0.00    +0.169 HD
ENDROOT
BRANCH   1  11
ATOM      8  C   UNL     1       0.707  -0.490  -1.238  0.00  0.00    -0.045 A 
ATOM      9  C   UNL     1       0.221  -0.150  -2.487  0.00  0.00    +0.006 A 
ATOM     10  C   UNL     1       0.865  -0.594  -3.625  0.00  0.00    +0.026 A 
ATOM     11  C   UNL     1       2.002  -1.382  -3.514  0.00  0.00    +0.049 A 
ATOM     12  C   UNL     1       2.489  -1.722  -2.259  0.00  0.00    +0.026 A 
ATOM     13  C   UNL     1       1.843  -1.270  -1.124  0.00  0.00    +0.006 A 
BRANCH   8  15
ATOM     14  C   UNL     1      -0.019   1.526   0.010  0.00  0.00    +0.012 C 
ATOM     15  C   UNL     1       0.002  -0.004   0.002  0.00  0.00    +0.013 C 
ATOM     16  C   UNL     1      -1.433  -0.534   0.013  0.00  0.00    +0.012 C 
ENDBRANCH   8  15
ENDBRANCH   1  11
BRANCH   3  17
ATOM     17  C   UNL     1       3.133  -2.149  -8.266  0.00  0.00    -0.000 A 
ATOM     18  C   UNL     1       2.135  -1.441  -8.935  0.00  0.00    +0.010 A 
ATOM     19  C   UNL     1       2.115  -1.420 -10.315  0.00  0.00    +0.001 A 
ATOM     20  C   UNL     1       3.082  -2.100 -11.034  0.00  0.00    +0.000 A 
ATOM     21  C   UNL     1       4.074  -2.804 -10.376  0.00  0.00    +0.001 A 
ATOM     22  C   UNL     1       4.109  -2.827  -8.997  0.00  0.00    +0.010 A 
ENDBRANCH   3  17
BRANCH   6  23
ATOM     23  C   UNL     1       5.521  -3.819  -3.804  0.00  0.00    +0.256 C 
ATOM     24  O   UNL     1       5.909  -4.086  -4.926  0.00  0.00    -0.272 OA
BRANCH  23  25
ATOM     25  C   UNL     1       6.270  -4.340  -2.605  0.00  0.00    +0.205 C 
BRANCH  25  26
ATOM     26  N   UNL     1       7.417  -5.134  -3.053  0.00  0.00    -0.294 N 
ATOM     27  C   UNL     1       7.280  -6.459  -3.260  0.00  0.00    +0.219 C 
ATOM     28  O   UNL     1       8.230  -7.116  -3.631  0.00  0.00    -0.275 OA
BRANCH  27  29
ATOM     29  C   UNL     1       5.947  -7.123  -3.032  0.00  0.00    +0.075 C 
ATOM     30  C   UNL     1       5.833  -8.092  -1.853  0.00  0.00    +0.013 C 
ATOM     31  C   UNL     1       5.856  -8.630  -3.285  0.00  0.00    +0.013 C 
ENDBRANCH  27  29
BRANCH  26  32
ATOM     32  C   UNL     1       8.713  -4.488  -3.275  0.00  0.00    +0.090 C 
BRANCH  32  33
ATOM     33  C   UNL     1       9.526  -4.516  -1.979  0.00  0.00    -0.060 C 
BRANCH  33  34
ATOM     34  N   UNL     1      10.825  -3.868  -2.201  0.00  0.00    +0.377 N 
ATOM     35  C   UNL     1      10.618  -2.445  -2.500  0.00  0.00    -0.097 C 
ATOM     36  C   UNL     1      11.652  -4.000  -0.994  0.00  0.00    -0.097 C 
ATOM     37  H   UNL     1      11.293  -4.310  -2.979  0.00  0.00    -0.083 HD
ENDBRANCH  33  34
ENDBRANCH  32  33
ENDBRANCH  26  32
ENDBRANCH  25  26
ENDBRANCH  23  25
ENDBRANCH   6  23
TORSDOF 10
