REMARK  Name = ZINC18195893
REMARK  7 active torsions:
REMARK  status: ('A' for Active; 'I' for Inactive)
REMARK    1  A    between atoms: C_1  and  O_2
REMARK    2  A    between atoms: O_2  and  C_3
REMARK    3  A    between atoms: C_5  and  C_12
REMARK    4  A    between atoms: C_7  and  O_10
REMARK    5  A    between atoms: C_8  and  O_9
REMARK    6  A    between atoms: O_10  and  C_11
REMARK    7  A    between atoms: C_19  and  O_20
REMARK                            x       y       z     vdW  Elec       q    Type
REMARK                         _______ _______ _______ _____ _____    ______ ____
ROOT
ATOM      1  C   UNL     1      -1.341  -0.702   0.022  0.00  0.00    +0.093 C 
ATOM      2  C   UNL     1      -1.162  -2.154  -0.319  0.00  0.00    +0.067 A 
ATOM      3  C   UNL     1       0.067  -2.760  -0.328  0.00  0.00    +0.126 A 
ATOM      4  N   UNL     1      -0.114  -4.051  -0.665  0.00  0.00    -0.260 N 
ATOM      5  H   UNL     1       0.602  -4.744  -0.750  0.00  0.00    +0.190 HD
ATOM      6  N   UNL     1      -1.488  -4.250  -0.876  0.00  0.00    -0.134 NA
ATOM      7  C   UNL     1      -2.111  -3.110  -0.668  0.00  0.00    +0.237 A 
ATOM      8  N   UNL     1       1.224  -2.053  -0.027  0.00  0.00    -0.303 N 
ATOM      9  C   UNL     1       1.170  -0.681  -0.023  0.00  0.00    +0.017 C 
ATOM     10  C   UNL     1       0.002  -0.004   0.002  0.00  0.00    +0.024 C 
ATOM     11  C   UNL     1      -0.017   1.402   0.010  0.00  0.00    +0.162 C 
ATOM     12  O   UNL     1      -1.085   1.982   0.018  0.00  0.00    -0.292 OA
ATOM     13  C   UNL     1       1.254   2.205   0.002  0.00  0.00    +0.080 C 
ATOM     14  C   UNL     1       2.360   1.388   0.678  0.00  0.00    +0.014 C 
ATOM     15  C   UNL     1       2.491   0.054  -0.058  0.00  0.00    +0.051 C 
ATOM     16  H   UNL     1       2.051  -2.517   0.175  0.00  0.00    +0.153 HD
ENDROOT
BRANCH   1  19
ATOM     17  C   UNL     1      -3.731   0.161   2.820  0.00  0.00    +0.165 A 
ATOM     18  C   UNL     1      -3.168   0.048   1.557  0.00  0.00    +0.054 A 
ATOM     19  C   UNL     1      -1.948  -0.581   1.396  0.00  0.00    -0.028 A 
ATOM     20  C   UNL     1      -1.287  -1.105   2.491  0.00  0.00    +0.054 A 
ATOM     21  C   UNL     1      -1.839  -0.991   3.757  0.00  0.00    +0.165 A 
ATOM     22  C   UNL     1      -3.066  -0.359   3.924  0.00  0.00    +0.201 A 
BRANCH  17  24
ATOM     23  C   UNL     1      -5.557   1.292   1.799  0.00  0.00    +0.277 C 
ATOM     24  O   UNL     1      -4.931   0.781   2.977  0.00  0.00    -0.491 OA
ENDBRANCH  17  24
BRANCH  22  25
ATOM     25  O   UNL     1      -3.615  -0.251   5.164  0.00  0.00    -0.501 OA
ATOM     26  H   UNL     1      -4.187  -0.992   5.407  0.00  0.00    +0.292 HD
ENDBRANCH  22  25
BRANCH  21  27
ATOM     27  O   UNL     1      -1.185  -1.502   4.835  0.00  0.00    -0.491 OA
ATOM     28  C   UNL     1       0.071  -2.137   4.589  0.00  0.00    +0.277 C 
ENDBRANCH  21  27
ENDBRANCH   1  19
BRANCH   7  29
ATOM     29  O   UNL     1      -3.451  -2.902  -0.774  0.00  0.00    -0.491 OA
ATOM     30  H   UNL     1      -3.900  -3.756  -1.038  0.00  0.00    +0.294 HD
ENDBRANCH   7  29
TORSDOF 5
