REMARK  Name = ZINC39334481
REMARK  4 active torsions:
REMARK  status: ('A' for Active; 'I' for Inactive)
REMARK    1  A    between atoms: C_1  and  C_2
REMARK    2  A    between atoms: C_2  and  C_3
REMARK    3  A    between atoms: C_3  and  C_4
REMARK    4  A    between atoms: C_6  and  C_10
REMARK                            x       y       z     vdW  Elec       q    Type
REMARK                         _______ _______ _______ _____ _____    ______ ____
ROOT
ATOM      1  C   UNL     1      -0.769  -4.954  -0.825  0.00  0.00    +0.206 C 
ATOM      2  N   UNL     1      -1.014  -4.310   0.489  0.00  0.00    -0.231 NA
ATOM      3  N   UNL     1      -0.576  -5.272   1.515  0.00  0.00    -0.224 NA
ATOM      4  C   UNL     1       0.408  -6.101   0.791  0.00  0.00    +0.241 C 
ATOM      5  N   UNL     1      -0.299  -6.323  -0.514  0.00  0.00    -0.204 N 
ATOM      6  N   UNL     1      -0.345  -7.644  -0.905  0.00  0.00    -0.158 NA
ATOM      7  C   UNL     1      -0.065  -8.629  -0.107  0.00  0.00    +0.172 C 
ATOM      8  S   UNL     1       0.455  -7.814   1.437  0.00  0.00    -0.048 S 
ATOM      9  N   UNL     1      -0.133  -9.991  -0.371  0.00  0.00    -0.337 N 
ATOM     10  H   UNL     1      -1.990  -4.080   0.602  0.00  0.00    +0.143 HD
ATOM     11  H   UNL     1      -0.145  -4.798   2.294  0.00  0.00    +0.144 HD
ATOM     12  H   UNL     1      -0.420 -10.302  -1.244  0.00  0.00    +0.144 HD
ATOM     13  H   UNL     1       0.106 -10.632   0.317  0.00  0.00    +0.144 HD
ENDROOT
BRANCH   1  16
ATOM     14  C   UNL     1       0.739  -2.004  -1.265  0.00  0.00    +0.061 C 
ATOM     15  C   UNL     1      -0.154  -2.771  -1.895  0.00  0.00    +0.029 C 
ATOM     16  C   UNL     1       0.306  -4.187  -1.598  0.00  0.00    +0.190 C 
ATOM     17  N   UNL     1       1.502  -3.979  -0.765  0.00  0.00    -0.177 NA
ATOM     18  N   UNL     1       1.667  -2.763  -0.640  0.00  0.00    -0.159 NA
BRANCH  14  19
ATOM     19  C   UNL     1       0.718  -0.497  -1.257  0.00  0.00    +0.057 C 
BRANCH  19  21
ATOM     20  C   UNL     1      -0.019   1.526   0.010  0.00  0.00    +0.004 C 
ATOM     21  C   UNL     1       0.002  -0.004   0.002  0.00  0.00    +0.003 C 
ENDBRANCH  19  21
ENDBRANCH  14  19
ENDBRANCH   1  16
TORSDOF 3
