REMARK  Name = ZINC19640965
REMARK  8 active torsions:
REMARK  status: ('A' for Active; 'I' for Inactive)
REMARK    1  A    between atoms: C_1  and  C_2
REMARK    2  A    between atoms: C_2  and  O_3
REMARK    3  A    between atoms: O_3  and  C_4
REMARK    4  A    between atoms: C_9  and  N_10
REMARK    5  A    between atoms: N_13  and  C_16
REMARK    6  A    between atoms: C_16  and  C_17
REMARK    7  A    between atoms: C_20  and  C_25
REMARK    8  A    between atoms: N_27  and  C_28
REMARK                            x       y       z     vdW  Elec       q    Type
REMARK                         _______ _______ _______ _____ _____    ______ ____
ROOT
ATOM      1  C   UNL     1      -7.377   0.383   1.259  0.00  0.00    +0.033 A 
ATOM      2  C   UNL     1      -7.700   1.237   2.263  0.00  0.00    +0.023 A 
ATOM      3  C   UNL     1      -8.474   0.795   3.336  0.00  0.00    +0.020 A 
ATOM      4  C   UNL     1      -8.903  -0.530   3.358  0.00  0.00    +0.101 A 
ATOM      5  C   UNL     1      -8.539  -1.385   2.286  0.00  0.00    +0.261 A 
ATOM      6  O   UNL     1      -8.902  -2.548   2.281  0.00  0.00    -0.267 OA
ATOM      7  N   UNL     1      -7.795  -0.905   1.271  0.00  0.00    -0.324 N 
ATOM      8  H   UNL     1      -7.529  -1.578   0.442  0.00  0.00    +0.169 HD
ENDROOT
BRANCH   4   9
ATOM      9  C   UNL     1      -9.720  -1.034   4.473  0.00  0.00    +0.250 C 
ATOM     10  O   UNL     1      -9.937  -0.325   5.437  0.00  0.00    -0.270 OA
ATOM     11  N   UNL     1     -10.228  -2.281   4.425  0.00  0.00    -0.300 N 
ATOM     12  H   UNL     1      -9.965  -2.951   3.594  0.00  0.00    +0.150 HD
BRANCH  11  13
ATOM     13  C   UNL     1     -11.131  -2.745   5.482  0.00  0.00    +0.135 C 
ATOM     14  C   UNL     1     -10.338  -3.354   6.612  0.00  0.00    -0.015 A 
ATOM     15  C   UNL     1      -9.378  -2.835   7.455  0.00  0.00    +0.006 A 
ATOM     16  C   UNL     1      -8.802  -3.636   8.425  0.00  0.00    +0.000 A 
ATOM     17  C   UNL     1      -9.189  -4.958   8.553  0.00  0.00    +0.001 A 
ATOM     18  C   UNL     1     -10.149  -5.485   7.715  0.00  0.00    +0.009 A 
ATOM     19  C   UNL     1     -10.734  -4.684   6.733  0.00  0.00    -0.012 A 
ATOM     20  C   UNL     1     -11.770  -4.985   5.715  0.00  0.00    -0.012 A 
ATOM     21  C   UNL     1     -12.023  -3.844   4.958  0.00  0.00    -0.015 A 
ATOM     22  C   UNL     1     -12.955  -3.875   3.943  0.00  0.00    +0.006 A 
ATOM     23  C   UNL     1     -13.645  -5.043   3.672  0.00  0.00    +0.000 A 
ATOM     24  C   UNL     1     -13.401  -6.182   4.418  0.00  0.00    +0.001 A 
ATOM     25  C   UNL     1     -12.470  -6.160   5.436  0.00  0.00    +0.009 A 
ENDBRANCH  11  13
ENDBRANCH   4   9
BRANCH   1  26
ATOM     26  C   UNL     1      -6.540   0.878   0.107  0.00  0.00    +0.137 C 
BRANCH  26  30
ATOM     27  N   UNL     1      -2.407   0.008   0.052  0.00  0.00    -0.325 N 
ATOM     28  C   UNL     1      -3.153  -0.270   1.288  0.00  0.00    +0.120 C 
ATOM     29  C   UNL     1      -4.454   0.536   1.288  0.00  0.00    +0.103 C 
ATOM     30  N   UNL     1      -5.248   0.179   0.104  0.00  0.00    -0.294 NA
ATOM     31  C   UNL     1      -4.502   0.458  -1.131  0.00  0.00    +0.103 C 
ATOM     32  C   UNL     1      -3.201  -0.349  -1.131  0.00  0.00    +0.120 C 
BRANCH  27  38
ATOM     33  C   UNL     1       0.012   0.071   0.042  0.00  0.00    +0.141 A 
ATOM     34  C   UNL     1       1.228  -0.593   0.032  0.00  0.00    +0.047 A 
ATOM     35  C   UNL     1       1.261  -1.976   0.042  0.00  0.00    +0.004 A 
ATOM     36  C   UNL     1       0.083  -2.699   0.050  0.00  0.00    +0.002 A 
ATOM     37  C   UNL     1      -1.135  -2.044   0.053  0.00  0.00    +0.027 A 
ATOM     38  C   UNL     1      -1.176  -0.657   0.049  0.00  0.00    +0.072 A 
BRANCH  33  39
ATOM     39  O   UNL     1      -0.022   1.431   0.038  0.00  0.00    -0.490 OA
BRANCH  39  41
ATOM     40  C   UNL     1       0.996   3.622   0.026  0.00  0.00    +0.048 C 
ATOM     41  C   UNL     1       1.234   2.111   0.030  0.00  0.00    +0.226 C 
ENDBRANCH  39  41
ENDBRANCH  33  39
ENDBRANCH  27  38
ENDBRANCH  26  30
ENDBRANCH   1  26
TORSDOF 7
