REMARK  Name = ZINC57415987
REMARK  7 active torsions:
REMARK  status: ('A' for Active; 'I' for Inactive)
REMARK    1  A    between atoms: C_1  and  O_2
REMARK    2  A    between atoms: O_2  and  C_3
REMARK    3  A    between atoms: C_3  and  C_5
REMARK    4  A    between atoms: C_6  and  C_18
REMARK    5  A    between atoms: C_11  and  C_13
REMARK    6  A    between atoms: C_18  and  N_19
REMARK    7  A    between atoms: N_22  and  C_25
REMARK                            x       y       z     vdW  Elec       q    Type
REMARK                         _______ _______ _______ _____ _____    ______ ____
ROOT
ATOM      1  C   UNL     1       1.309  -2.158  -0.898  0.00  0.00    +0.080 C 
ATOM      2  C   UNL     1       1.167  -2.592  -2.169  0.00  0.00    +0.038 C 
ATOM      3  N   UNL     1       0.568  -3.788  -2.443  0.00  0.00    -0.271 N 
ATOM      4  C   UNL     1       0.084  -4.609  -1.502  0.00  0.00    +0.304 C 
ATOM      5  O   UNL     1      -0.433  -5.655  -1.844  0.00  0.00    -0.252 OA
ATOM      6  N   UNL     1       0.152  -4.314  -0.189  0.00  0.00    -0.288 N 
ATOM      7  C   UNL     1       0.786  -3.047   0.212  0.00  0.00    +0.150 C 
ATOM      8  H   UNL     1       0.489  -4.059  -3.371  0.00  0.00    +0.156 HD
ATOM      9  H   UNL     1      -0.206  -4.923   0.476  0.00  0.00    +0.151 HD
ENDROOT
BRANCH   7  10
ATOM     10  C   UNL     1      -0.225  -2.256   1.002  0.00  0.00    +0.015 A 
ATOM     11  C   UNL     1      -0.069  -1.609   2.183  0.00  0.00    +0.013 A 
ATOM     12  C   UNL     1      -1.149  -0.940   2.728  0.00  0.00    +0.008 A 
ATOM     13  C   UNL     1      -2.332  -0.952   2.067  0.00  0.00    +0.045 A 
ATOM     14  S   UNL     1      -1.937  -1.923   0.622  0.00  0.00    -0.099 S 
ENDBRANCH   7  10
BRANCH   1  15
ATOM     15  C   UNL     1       1.930  -0.920  -0.613  0.00  0.00    +0.339 C 
ATOM     16  O   UNL     1       2.449  -0.279  -1.508  0.00  0.00    -0.245 OA
BRANCH  15  18
ATOM     17  C   UNL     1       2.590   0.809   0.867  0.00  0.00    +0.280 C 
ATOM     18  O   UNL     1       1.946  -0.448   0.651  0.00  0.00    -0.465 OA
ENDBRANCH  15  18
ENDBRANCH   1  15
BRANCH   2  19
ATOM     19  C   UNL     1       1.678  -1.742  -3.304  0.00  0.00    +0.136 C 
BRANCH  19  20
ATOM     20  N   UNL     1       3.106  -2.015  -3.517  0.00  0.00    -0.294 NA
ATOM     21  C   UNL     1       3.305  -3.346  -4.107  0.00  0.00    +0.103 C 
ATOM     22  C   UNL     1       4.803  -3.665  -4.145  0.00  0.00    +0.120 C 
ATOM     23  N   UNL     1       5.497  -2.568  -4.836  0.00  0.00    -0.326 N 
ATOM     24  C   UNL     1       5.241  -1.191  -4.388  0.00  0.00    +0.120 C 
ATOM     25  C   UNL     1       3.725  -0.969  -4.340  0.00  0.00    +0.103 C 
BRANCH  23  26
ATOM     26  C   UNL     1       6.378  -2.827  -5.889  0.00  0.00    +0.048 A 
ATOM     27  C   UNL     1       5.908  -2.867  -7.196  0.00  0.00    +0.024 A 
ATOM     28  C   UNL     1       6.781  -3.123  -8.235  0.00  0.00    +0.002 A 
ATOM     29  C   UNL     1       8.122  -3.340  -7.976  0.00  0.00    +0.002 A 
ATOM     30  C   UNL     1       8.594  -3.302  -6.678  0.00  0.00    +0.022 A 
ATOM     31  C   UNL     1       7.727  -3.041  -5.633  0.00  0.00    +0.062 A 
ATOM     32 CL   UNL     1       8.322  -2.986  -4.003  0.00  0.00    -0.082 Cl
ENDBRANCH  23  26
ENDBRANCH  19  20
ENDBRANCH   2  19
TORSDOF 6
