REMARK  Name = ZINC08835963
REMARK  12 active torsions:
REMARK  status: ('A' for Active; 'I' for Inactive)
REMARK    1  A    between atoms: C_1  and  C_2
REMARK    2  A    between atoms: C_2  and  N_63
REMARK    3  A    between atoms: C_3  and  C_4
REMARK    4  A    between atoms: C_3  and  N_63
REMARK    5  A    between atoms: C_5  and  C_6
REMARK    6  A    between atoms: C_5  and  N_63
REMARK    7  A    between atoms: C_6  and  C_7
REMARK    8  A    between atoms: C_7  and  N_8
REMARK    9  A    between atoms: C_9  and  C_28
REMARK   10  A    between atoms: C_12  and  C_13
REMARK   11  A    between atoms: C_12  and  O_23
REMARK   12  A    between atoms: C_14  and  C_22
REMARK                            x       y       z     vdW  Elec       q    Type
REMARK                         _______ _______ _______ _____ _____    ______ ____
ROOT
ATOM      1  N   UNL     1       3.362   2.383  -0.243  0.00  0.00    -0.284 N 
ATOM      2  C   UNL     1       2.454   1.242  -0.396  0.00  0.00    +0.147 C 
ATOM      3  C   UNL     1       1.051   1.804  -0.367  0.00  0.00    +0.073 C 
ATOM      4  C   UNL     1      -0.138   1.087  -0.480  0.00  0.00    +0.151 C 
ATOM      5  C   UNL     1       1.185   3.181  -0.198  0.00  0.00    +0.249 C 
ATOM      6  O   UNL     1       0.269   3.983  -0.123  0.00  0.00    -0.282 OA
ATOM      7  C   UNL     1       2.632   3.505  -0.125  0.00  0.00    +0.288 C 
ATOM      8  O   UNL     1       3.089   4.621   0.021  0.00  0.00    -0.266 OA
ENDROOT
BRANCH   4   9
ATOM      9  C   UNL     1      -1.374   1.762  -0.433  0.00  0.00    +0.111 A 
ATOM     10  C   UNL     1      -1.952   2.369   0.678  0.00  0.00    +0.068 A 
ATOM     11  N   UNL     1      -3.108   2.889   0.308  0.00  0.00    -0.232 NA
ATOM     12  C   UNL     1      -3.318   2.655  -0.988  0.00  0.00    +0.138 A 
ATOM     13  N   UNL     1      -2.252   1.959  -1.485  0.00  0.00    -0.297 N 
ATOM     14  C   UNL     1      -2.217   1.585  -2.791  0.00  0.00    +0.093 A 
ATOM     15  C   UNL     1      -3.231   1.905  -3.629  0.00  0.00    +0.018 A 
ATOM     16  C   UNL     1      -4.335   2.624  -3.152  0.00  0.00    +0.005 A 
ATOM     17  C   UNL     1      -4.381   2.998  -1.841  0.00  0.00    +0.047 A 
ATOM     18  C   UNL     1      -1.362   2.421   2.064  0.00  0.00    +0.068 C 
ENDBRANCH   4   9
BRANCH   2  19
ATOM     19  C   UNL     1       2.645   0.270   0.739  0.00  0.00    +0.013 A 
ATOM     20  C   UNL     1       3.087   0.721   1.969  0.00  0.00    +0.008 A 
ATOM     21  C   UNL     1       3.257  -0.170   3.012  0.00  0.00    +0.001 A 
ATOM     22  C   UNL     1       2.996  -1.514   2.824  0.00  0.00    +0.003 A 
ATOM     23  C   UNL     1       2.560  -1.968   1.594  0.00  0.00    +0.039 A 
ATOM     24  C   UNL     1       2.384  -1.076   0.549  0.00  0.00    +0.129 A 
ATOM     25  F   UNL     1       1.957  -1.519  -0.654  0.00  0.00    -0.205 F 
ENDBRANCH   2  19
BRANCH   4  26
ATOM     26  O   UNL     1      -0.105  -0.255  -0.641  0.00  0.00    -0.504 OA
ATOM     27  H   UNL     1      -1.040  -0.606  -0.705  0.00  0.00    +0.292 HD
ENDBRANCH   4  26
BRANCH   1  28
ATOM     28  C   UNL     1       4.825   2.311  -0.218  0.00  0.00    +0.107 C 
BRANCH  28  29
ATOM     29  C   UNL     1       5.363   2.350  -1.650  0.00  0.00    +0.000 C 
BRANCH  29  30
ATOM     30  C   UNL     1       6.881   2.157  -1.630  0.00  0.00    -0.077 C 
BRANCH  30  31
ATOM     31  N   UNL     1       7.387   2.218  -3.018  0.00  0.00    +0.379 N 
ATOM     32  H   UNL     1       7.035   3.074  -3.463  0.00  0.00    -0.082 HD
BRANCH  31  34
ATOM     33  C   UNL     1       9.324   3.663  -2.651  0.00  0.00    -0.017 C 
ATOM     34  C   UNL     1       8.865   2.250  -3.015  0.00  0.00    -0.082 C 
ENDBRANCH  31  34
BRANCH  31  35
ATOM     35  C   UNL     1       6.908   1.048  -3.783  0.00  0.00    -0.082 C 
ATOM     36  C   UNL     1       7.138   1.307  -5.273  0.00  0.00    -0.017 C 
ENDBRANCH  31  35
ENDBRANCH  30  31
ENDBRANCH  29  30
ENDBRANCH  28  29
ENDBRANCH   1  28
TORSDOF 9
