REMARK  Name = ZINC05729029
REMARK  7 active torsions:
REMARK  status: ('A' for Active; 'I' for Inactive)
REMARK    1  A    between atoms: C_4  and  C_7
REMARK    2  A    between atoms: C_7  and  O_8
REMARK    3  A    between atoms: O_8  and  C_9
REMARK    4  A    between atoms: C_12  and  C_15
REMARK    5  A    between atoms: C_24  and  C_32
REMARK    6  A    between atoms: C_26  and  C_27
REMARK    7  A    between atoms: C_26  and  C_29
REMARK                            x       y       z     vdW  Elec       q    Type
REMARK                         _______ _______ _______ _____ _____    ______ ____
ROOT
ATOM      1  C   UNL     1       2.222   3.700  -0.996  0.00  0.00    +0.066 C 
ATOM      2  C   UNL     1       1.348   3.063   0.086  0.00  0.00    +0.027 C 
ATOM      3  C   UNL     1      -0.064   3.598   0.066  0.00  0.00    +0.009 C 
ATOM      4  C   UNL     1      -1.029   2.641  -0.630  0.00  0.00    +0.005 C 
ATOM      5  C   UNL     1      -0.985   1.293   0.097  0.00  0.00    +0.027 C 
ATOM      6  C   UNL     1       0.419   0.757  -0.010  0.00  0.00    -0.026 C 
ATOM      7  C   UNL     1       1.455   1.572  -0.040  0.00  0.00    -0.047 C 
ATOM      8  C   UNL     1       2.821   1.010  -0.211  0.00  0.00    +0.164 C 
ATOM      9  C   UNL     1       3.840   1.839  -0.550  0.00  0.00    +0.065 C 
ATOM     10  C   UNL     1       3.680   3.317  -0.742  0.00  0.00    +0.188 C 
ATOM     11  N   UNL     1       5.082   1.296  -0.725  0.00  0.00    -0.304 NA
ATOM     12  H   UNL     1       5.216   0.342  -0.607  0.00  0.00    +0.186 HD
ENDROOT
BRANCH   1  16
ATOM     13  C   UNL     1       1.014   2.273  -4.838  0.00  0.00    +0.121 A 
ATOM     14  C   UNL     1       0.498   3.463  -4.345  0.00  0.00    +0.046 A 
ATOM     15  C   UNL     1       0.890   3.922  -3.103  0.00  0.00    +0.007 A 
ATOM     16  C   UNL     1       1.796   3.197  -2.351  0.00  0.00    -0.041 A 
ATOM     17  C   UNL     1       2.316   2.014  -2.842  0.00  0.00    +0.007 A 
ATOM     18  C   UNL     1       1.922   1.547  -4.082  0.00  0.00    +0.046 A 
BRANCH  13  19
ATOM     19  O   UNL     1       0.629   1.819  -6.060  0.00  0.00    -0.487 OA
BRANCH  19  20
ATOM     20  C   UNL     1       1.201   0.587  -6.504  0.00  0.00    +0.264 C 
BRANCH  20  24
ATOM     21  C   UNL     1      -0.328  -0.382 -10.373  0.00  0.00    +0.000 A 
ATOM     22  C   UNL     1       0.821   0.377 -10.254  0.00  0.00    +0.000 A 
ATOM     23  C   UNL     1       1.316   0.690  -9.002  0.00  0.00    +0.007 A 
ATOM     24  C   UNL     1       0.661   0.246  -7.869  0.00  0.00    -0.010 A 
ATOM     25  C   UNL     1      -0.485  -0.517  -7.988  0.00  0.00    +0.007 A 
ATOM     26  C   UNL     1      -0.983  -0.827  -9.240  0.00  0.00    +0.000 A 
ENDBRANCH  20  24
ENDBRANCH  19  20
ENDBRANCH  13  19
ENDBRANCH   1  16
BRANCH  10  27
ATOM     27  C   UNL     1       4.156   4.012   0.465  0.00  0.00    +0.091 C 
ATOM     28  N   UNL     1       4.524   4.549   1.396  0.00  0.00    -0.195 NA
ENDBRANCH  10  27
BRANCH  10  29
ATOM     29  C   UNL     1       4.494   3.741  -1.893  0.00  0.00    +0.091 C 
ATOM     30  N   UNL     1       5.121   4.069  -2.781  0.00  0.00    -0.195 NA
ENDBRANCH  10  29
BRANCH   8  31
ATOM     31  C   UNL     1       3.057  -0.389  -0.020  0.00  0.00    +0.076 C 
ATOM     32  N   UNL     1       3.245  -1.499   0.132  0.00  0.00    -0.196 NA
ENDBRANCH   8  31
TORSDOF 7
