REMARK  Name = ZINC16818566
REMARK  7 active torsions:
REMARK  status: ('A' for Active; 'I' for Inactive)
REMARK    1  A    between atoms: C_1  and  C_2
REMARK    2  A    between atoms: C_2  and  C_4
REMARK    3  A    between atoms: C_2  and  S_20
REMARK    4  A    between atoms: N_9  and  C_10
REMARK    5  A    between atoms: S_20  and  C_21
REMARK    6  A    between atoms: N_27  and  C_28
REMARK    7  A    between atoms: C_28  and  C_29
REMARK                            x       y       z     vdW  Elec       q    Type
REMARK                         _______ _______ _______ _____ _____    ______ ____
ROOT
ATOM      1  C   UNL     1      -4.096   1.667  -0.092  0.00  0.00    +0.233 C 
ATOM      2  O   UNL     1      -4.238   2.837   0.194  0.00  0.00    -0.274 OA
ATOM      3  N   UNL     1      -5.152   0.943  -0.511  0.00  0.00    -0.239 N 
ATOM      4  C   UNL     1      -6.367   1.519  -0.613  0.00  0.00    +0.306 C 
ATOM      5  O   UNL     1      -6.509   2.692  -0.326  0.00  0.00    -0.252 OA
ATOM      6  N   UNL     1      -7.423   0.795  -1.032  0.00  0.00    -0.294 N 
ATOM      7  H   UNL     1      -5.039   0.007  -0.740  0.00  0.00    +0.159 HD
ATOM      8  H   UNL     1      -7.309  -0.141  -1.261  0.00  0.00    +0.151 HD
ENDROOT
BRANCH   6   9
ATOM      9  C   UNL     1      -8.743   1.421  -1.142  0.00  0.00    +0.037 C 
ATOM     10  C   UNL     1      -9.175   1.945   0.229  0.00  0.00    +0.029 C 
ATOM     11  C   UNL     1     -10.554   2.599   0.113  0.00  0.00    -0.008 C 
ATOM     12  C   UNL     1     -11.568   1.565  -0.381  0.00  0.00    +0.007 C 
ATOM     13  C   UNL     1     -11.136   1.041  -1.752  0.00  0.00    -0.008 C 
ATOM     14  C   UNL     1      -9.758   0.388  -1.636  0.00  0.00    +0.029 C 
ATOM     15  C   UNL     1     -11.068   2.204  -2.744  0.00  0.00    +0.007 C 
ATOM     16  C   UNL     1     -10.053   3.237  -2.250  0.00  0.00    -0.008 C 
ATOM     17  C   UNL     1     -10.485   3.761  -0.879  0.00  0.00    +0.007 C 
ATOM     18  C   UNL     1      -8.675   2.583  -2.135  0.00  0.00    +0.029 C 
ENDBRANCH   6   9
BRANCH   1  20
ATOM     19  C   UNL     1      -2.660   0.225   1.325  0.00  0.00    +0.029 C 
ATOM     20  C   UNL     1      -2.738   1.024   0.022  0.00  0.00    +0.137 C 
BRANCH  20  21
ATOM     21  S   UNL     1      -1.461   2.306   0.022  0.00  0.00    -0.073 S 
BRANCH  21  22
ATOM     22  C   UNL     1      -0.016   1.298   0.009  0.00  0.00    +0.193 A 
ATOM     23  N   UNL     1       0.002  -0.004   0.002  0.00  0.00    -0.145 NA
ATOM     24  N   UNL     1       1.341  -0.420  -0.013  0.00  0.00    -0.226 N 
ATOM     25  H   UNL     1       1.657  -1.337  -0.021  0.00  0.00    +0.194 HD
ATOM     26  C   UNL     1       2.108   0.690  -0.014  0.00  0.00    +0.345 A 
ATOM     27  O   UNL     1       3.326   0.723  -0.026  0.00  0.00    -0.245 OA
ATOM     28  N   UNL     1       1.283   1.755  -0.001  0.00  0.00    -0.266 N 
BRANCH  28  29
ATOM     29  C   UNL     1       1.696   3.161   0.002  0.00  0.00    +0.164 C 
BRANCH  29  30
ATOM     30  C   UNL     1       1.852   3.635   1.424  0.00  0.00    -0.028 A 
ATOM     31  C   UNL     1       0.776   4.197   2.087  0.00  0.00    +0.005 A 
ATOM     32  C   UNL     1       0.917   4.628   3.393  0.00  0.00    +0.000 A 
ATOM     33  C   UNL     1       2.137   4.507   4.032  0.00  0.00    +0.000 A 
ATOM     34  C   UNL     1       3.214   3.951   3.368  0.00  0.00    +0.000 A 
ATOM     35  C   UNL     1       3.071   3.515   2.064  0.00  0.00    +0.005 A 
ENDBRANCH  29  30
ENDBRANCH  28  29
ENDBRANCH  21  22
ENDBRANCH  20  21
ENDBRANCH   1  20
TORSDOF 6
