REMARK  Name = ZINC38890623
REMARK  6 active torsions:
REMARK  status: ('A' for Active; 'I' for Inactive)
REMARK    1  A    between atoms: C_1  and  C_2
REMARK    2  A    between atoms: C_7  and  C_8
REMARK    3  A    between atoms: N_10  and  C_11
REMARK    4  A    between atoms: N_10  and  C_24
REMARK    5  A    between atoms: C_11  and  C_12
REMARK    6  A    between atoms: C_29  and  C_30
REMARK                            x       y       z     vdW  Elec       q    Type
REMARK                         _______ _______ _______ _____ _____    ______ ____
ROOT
ATOM      1  C   UNL     1       0.618  -0.524   2.623  0.00  0.00    +0.251 C 
ATOM      2  O   UNL     1       0.725   0.683   2.528  0.00  0.00    -0.270 OA
ATOM      3  N   UNL     1       0.341  -1.085   3.816  0.00  0.00    -0.266 N 
ENDROOT
BRANCH   1  10
ATOM      4  C   UNL     1       2.979  -0.220   0.978  0.00  0.00    +0.044 C 
ATOM      5  C   UNL     1       1.926  -1.240   0.627  0.00  0.00    -0.038 A 
ATOM      6  C   UNL     1       2.085  -2.043  -0.483  0.00  0.00    +0.004 A 
ATOM      7  C   UNL     1       1.120  -2.980  -0.807  0.00  0.00    +0.000 A 
ATOM      8  C   UNL     1      -0.011  -3.118  -0.020  0.00  0.00    +0.001 A 
ATOM      9  C   UNL     1      -0.182  -2.320   1.092  0.00  0.00    +0.013 A 
ATOM     10  C   UNL     1       0.792  -1.377   1.428  0.00  0.00    +0.040 A 
ENDBRANCH   1  10
BRANCH   3  11
ATOM     11  C   UNL     1       0.342  -2.476   3.953  0.00  0.00    +0.039 A 
ATOM     12  C   UNL     1      -0.850  -3.185   3.869  0.00  0.00    +0.024 A 
ATOM     13  C   UNL     1      -0.846  -4.559   4.004  0.00  0.00    +0.002 A 
ATOM     14  C   UNL     1       0.344  -5.230   4.221  0.00  0.00    +0.000 A 
ATOM     15  C   UNL     1       1.532  -4.528   4.305  0.00  0.00    +0.005 A 
ATOM     16  C   UNL     1       1.535  -3.154   4.166  0.00  0.00    -0.029 A 
ATOM     17  C   UNL     1       2.831  -2.390   4.251  0.00  0.00    +0.045 C 
ENDBRANCH   3  11
BRANCH   3  18
ATOM     18  C   UNL     1       0.038  -0.236   4.971  0.00  0.00    +0.131 C 
BRANCH  18  19
ATOM     19  C   UNL     1      -1.479  -0.130   5.143  0.00  0.00    +0.116 C 
ATOM     20  C   UNL     1      -1.752   0.465   6.510  0.00  0.00    -0.003 C 
ATOM     21  C   UNL     1      -2.476   1.619   6.556  0.00  0.00    -0.007 A 
ATOM     22  C   UNL     1      -2.786   2.261   7.835  0.00  0.00    +0.009 A 
ATOM     23  C   UNL     1      -3.510   3.410   7.832  0.00  0.00    +0.001 A 
ATOM     24  C   UNL     1      -3.961   3.982   6.642  0.00  0.00    +0.002 A 
ATOM     25  C   UNL     1      -3.707   3.436   5.424  0.00  0.00    +0.024 A 
ATOM     26  C   UNL     1      -2.964   2.246   5.316  0.00  0.00    +0.040 A 
ATOM     27  N   UNL     1      -2.720   1.720   4.115  0.00  0.00    -0.284 N 
ATOM     28  C   UNL     1      -2.031   0.605   3.943  0.00  0.00    +0.226 C 
ATOM     29  O   UNL     1      -1.842   0.173   2.821  0.00  0.00    -0.275 OA
ATOM     30  H   UNL     1      -3.066   2.176   3.332  0.00  0.00    +0.155 HD
ENDBRANCH  18  19
ENDBRANCH   3  18
TORSDOF 4
