REMARK  Name = ZINC39677327
REMARK  10 active torsions:
REMARK  status: ('A' for Active; 'I' for Inactive)
REMARK    1  A    between atoms: C_1  and  C_2
REMARK    2  A    between atoms: C_6  and  C_7
REMARK    3  A    between atoms: C_7  and  N_8
REMARK    4  A    between atoms: C_9  and  C_11
REMARK    5  A    between atoms: C_22  and  C_24
REMARK    6  A    between atoms: C_24  and  C_26
REMARK    7  A    between atoms: C_24  and  O_29
REMARK    8  A    between atoms: C_26  and  C_27
REMARK    9  A    between atoms: C_26  and  C_28
REMARK   10  A    between atoms: O_29  and  C_30
REMARK                            x       y       z     vdW  Elec       q    Type
REMARK                         _______ _______ _______ _____ _____    ______ ____
ROOT
ATOM      1  C   UNL     1      -3.799   0.254   3.867  0.00  0.00    +0.100 C 
ATOM      2  C   UNL     1      -4.240  -1.206   4.115  0.00  0.00    +0.121 C 
ATOM      3  N   UNL     1      -4.018  -1.423   5.564  0.00  0.00    -0.297 N 
ATOM      4  C   UNL     1      -4.438  -0.148   6.196  0.00  0.00    +0.115 C 
ATOM      5  C   UNL     1      -3.933   0.945   5.234  0.00  0.00    -0.004 C 
ATOM      6  C   UNL     1      -4.945   2.085   5.152  0.00  0.00    -0.010 C 
ATOM      7  C   UNL     1      -5.018   2.794   6.508  0.00  0.00    -0.082 C 
ATOM      8  N   UNL     1      -3.692   3.314   6.862  0.00  0.00    +0.379 N 
ATOM      9  C   UNL     1      -2.747   2.204   7.029  0.00  0.00    -0.082 C 
ATOM     10  C   UNL     1      -2.578   1.470   5.696  0.00  0.00    -0.010 C 
ATOM     11  C   UNL     1      -3.543  -2.528   6.171  0.00  0.00    +0.257 C 
ATOM     12  O   UNL     1      -3.498  -2.584   7.382  0.00  0.00    -0.272 OA
ATOM     13  H   UNL     1      -3.365   3.925   6.128  0.00  0.00    -0.086 HD
ATOM     14  H   UNL     1      -3.756   3.833   7.725  0.00  0.00    -0.086 HD
ENDROOT
BRANCH   1  16
ATOM     15  N   UNL     1      -2.014   1.121   2.391  0.00  0.00    -0.310 N 
ATOM     16  C   UNL     1      -2.368   0.296   3.396  0.00  0.00    +0.218 C 
ATOM     17  O   UNL     1      -1.535  -0.412   3.921  0.00  0.00    -0.275 OA
ATOM     18  H   UNL     1      -2.679   1.687   1.970  0.00  0.00    +0.149 HD
BRANCH  15  19
ATOM     19  C   UNL     1      -0.622   1.162   1.933  0.00  0.00    +0.147 C 
BRANCH  19  25
ATOM     20  C   UNL     1       0.019   4.155   2.198  0.00  0.00    +0.044 C 
ATOM     21  C   UNL     1      -0.213   3.482   0.869  0.00  0.00    -0.039 A 
ATOM     22  C   UNL     1      -0.137   4.206  -0.306  0.00  0.00    +0.011 A 
ATOM     23  C   UNL     1      -0.350   3.570  -1.484  0.00  0.00    +0.046 A 
ATOM     24  S   UNL     1      -0.671   1.898  -0.949  0.00  0.00    -0.100 S 
ATOM     25  C   UNL     1      -0.493   2.157   0.808  0.00  0.00    +0.010 A 
ENDBRANCH  19  25
ENDBRANCH  15  19
ENDBRANCH   1  16
BRANCH  11  26
ATOM     26  C   UNL     1      -3.068  -3.696   5.345  0.00  0.00    +0.261 C 
BRANCH  26  27
ATOM     27  C   UNL     1      -1.570  -3.907   5.575  0.00  0.00    +0.033 C 
ATOM     28  C   UNL     1      -1.102  -5.135   4.793  0.00  0.00    +0.011 C 
ATOM     29  C   UNL     1      -0.802  -2.674   5.096  0.00  0.00    +0.011 C 
ENDBRANCH  26  27
BRANCH  26  30
ATOM     30  O   UNL     1      -3.779  -4.873   5.731  0.00  0.00    -0.479 OA
BRANCH  30  31
ATOM     31  C   UNL     1      -4.108  -5.747   4.743  0.00  0.00    +0.122 A 
ATOM     32  C   UNL     1      -4.778  -6.922   5.049  0.00  0.00    +0.045 A 
ATOM     33  C   UNL     1      -5.112  -7.808   4.043  0.00  0.00    +0.004 A 
ATOM     34  C   UNL     1      -4.777  -7.525   2.732  0.00  0.00    +0.000 A 
ATOM     35  C   UNL     1      -4.108  -6.355   2.424  0.00  0.00    +0.004 A 
ATOM     36  C   UNL     1      -3.778  -5.462   3.426  0.00  0.00    +0.045 A 
ENDBRANCH  30  31
ENDBRANCH  26  30
ENDBRANCH  11  26
TORSDOF 7
