REMARK  Name = ZINC09969284
REMARK  13 active torsions:
REMARK  status: ('A' for Active; 'I' for Inactive)
REMARK    1  A    between atoms: C_1  and  C_2
REMARK    2  A    between atoms: C_2  and  O_3
REMARK    3  A    between atoms: O_3  and  C_4
REMARK    4  A    between atoms: C_4  and  C_6
REMARK    5  A    between atoms: C_7  and  C_23
REMARK    6  A    between atoms: C_12  and  C_14
REMARK    7  A    between atoms: C_17  and  C_20
REMARK    8  A    between atoms: C_20  and  C_21
REMARK    9  A    between atoms: C_20  and  C_22
REMARK   10  A    between atoms: C_23  and  S_24
REMARK   11  A    between atoms: S_24  and  C_27
REMARK   12  A    between atoms: C_30  and  C_34
REMARK   13  A    between atoms: C_31  and  C_33
REMARK                            x       y       z     vdW  Elec       q    Type
REMARK                         _______ _______ _______ _____ _____    ______ ____
ROOT
ATOM      1  C   UNL     1      -4.180   3.390   4.210  0.00  0.00    +0.080 C 
ATOM      2  C   UNL     1      -4.619   4.569   4.698  0.00  0.00    +0.045 C 
ATOM      3  N   UNL     1      -3.792   5.387   5.414  0.00  0.00    -0.271 N 
ATOM      4  C   UNL     1      -2.514   5.098   5.684  0.00  0.00    +0.304 C 
ATOM      5  O   UNL     1      -1.855   5.890   6.330  0.00  0.00    -0.252 OA
ATOM      6  N   UNL     1      -1.932   3.956   5.264  0.00  0.00    -0.288 N 
ATOM      7  C   UNL     1      -2.740   3.005   4.483  0.00  0.00    +0.144 C 
ATOM      8  H   UNL     1      -4.152   6.225   5.745  0.00  0.00    +0.156 HD
ATOM      9  H   UNL     1      -1.004   3.767   5.472  0.00  0.00    +0.151 HD
ENDROOT
BRANCH   7  10
ATOM     10  C   UNL     1      -2.056   2.793   3.157  0.00  0.00    -0.022 A 
ATOM     11  C   UNL     1      -1.940   1.519   2.635  0.00  0.00    +0.006 A 
ATOM     12  C   UNL     1      -1.312   1.325   1.419  0.00  0.00    +0.004 A 
ATOM     13  C   UNL     1      -0.800   2.406   0.725  0.00  0.00    -0.045 A 
ATOM     14  C   UNL     1      -0.912   3.680   1.250  0.00  0.00    +0.004 A 
ATOM     15  C   UNL     1      -1.543   3.874   2.464  0.00  0.00    +0.006 A 
BRANCH  13  16
ATOM     16  C   UNL     1      -0.115   2.195  -0.601  0.00  0.00    +0.013 C 
ATOM     17  C   UNL     1       1.329   2.692  -0.514  0.00  0.00    +0.012 C 
ATOM     18  C   UNL     1      -0.858   2.973  -1.688  0.00  0.00    +0.012 C 
ENDBRANCH  13  16
ENDBRANCH   7  10
BRANCH   1  19
ATOM     19  C   UNL     1      -5.035   2.542   3.468  0.00  0.00    +0.339 C 
ATOM     20  O   UNL     1      -6.139   2.932   3.136  0.00  0.00    -0.245 OA
BRANCH  19  21
ATOM     21  O   UNL     1      -4.627   1.301   3.128  0.00  0.00    -0.462 OA
BRANCH  21  23
ATOM     22  C   UNL     1      -4.909  -0.863   2.090  0.00  0.00    +0.048 C 
ATOM     23  C   UNL     1      -5.543   0.500   2.379  0.00  0.00    +0.229 C 
ENDBRANCH  21  23
ENDBRANCH  19  21
ENDBRANCH   1  19
BRANCH   2  24
ATOM     24  C   UNL     1      -6.044   4.990   4.448  0.00  0.00    +0.223 C 
BRANCH  24  25
ATOM     25  S   UNL     1      -6.095   6.166   3.068  0.00  0.00    +0.002 S 
ATOM     26  O   UNL     1      -5.468   7.386   3.441  0.00  0.00    -0.169 OA
ATOM     27  O   UNL     1      -5.744   5.512   1.856  0.00  0.00    -0.169 OA
BRANCH  25  28
ATOM     28  C   UNL     1      -7.799   6.574   2.882  0.00  0.00    +0.089 A 
ATOM     29  C   UNL     1      -8.334   7.642   3.578  0.00  0.00    +0.027 A 
ATOM     30  C   UNL     1      -9.670   7.962   3.433  0.00  0.00    +0.005 A 
ATOM     31  C   UNL     1     -10.473   7.214   2.591  0.00  0.00    -0.047 A 
ATOM     32  C   UNL     1      -9.938   6.147   1.895  0.00  0.00    -0.046 A 
ATOM     33  C   UNL     1      -8.600   5.829   2.037  0.00  0.00    +0.030 A 
ATOM     34  C   UNL     1     -10.812   5.332   0.977  0.00  0.00    +0.044 C 
ATOM     35  C   UNL     1     -11.930   7.563   2.433  0.00  0.00    +0.044 C 
ENDBRANCH  25  28
ENDBRANCH  24  25
ENDBRANCH   2  24
TORSDOF 8
