REMARK  Name = ZINC12987599
REMARK  8 active torsions:
REMARK  status: ('A' for Active; 'I' for Inactive)
REMARK    1  A    between atoms: C_1  and  C_2
REMARK    2  A    between atoms: C_2  and  O_3
REMARK    3  A    between atoms: O_3  and  C_4
REMARK    4  A    between atoms: C_9  and  N_10
REMARK    5  A    between atoms: C_11  and  C_13
REMARK    6  A    between atoms: C_15  and  S_20
REMARK    7  A    between atoms: S_20  and  N_23
REMARK    8  A    between atoms: C_25  and  C_28
REMARK                            x       y       z     vdW  Elec       q    Type
REMARK                         _______ _______ _______ _____ _____    ______ ____
ROOT
ATOM      1  N   UNL     1      -3.116   1.250  -5.040  0.00  0.00    -0.278 N 
ATOM      2  C   UNL     1      -2.146   2.183  -5.085  0.00  0.00    +0.249 C 
ATOM      3  O   UNL     1      -1.727   2.574  -6.158  0.00  0.00    -0.270 OA
ATOM      4  H   UNL     1      -3.394   0.880  -4.187  0.00  0.00    +0.155 HD
ENDROOT
BRANCH   1  10
ATOM      5  C   UNL     1      -4.317  -0.446  -6.277  0.00  0.00    +0.142 A 
ATOM      6  C   UNL     1      -4.913  -0.873  -7.453  0.00  0.00    +0.055 A 
ATOM      7  C   UNL     1      -4.919  -0.052  -8.561  0.00  0.00    +0.001 A 
ATOM      8  C   UNL     1      -4.336   1.208  -8.519  0.00  0.00    +0.126 A 
ATOM      9  C   UNL     1      -3.738   1.637  -7.337  0.00  0.00    +0.073 A 
ATOM     10  C   UNL     1      -3.724   0.813  -6.224  0.00  0.00    +0.079 A 
ATOM     11  O   UNL     1      -4.468   1.852  -9.712  0.00  0.00    -0.488 OA
ATOM     12  C   UNL     1      -4.758   0.890 -10.740  0.00  0.00    +0.175 C 
ATOM     13  C   UNL     1      -5.471  -0.240  -9.961  0.00  0.00    +0.083 C 
ATOM     14  C   UNL     1      -5.688   1.490 -11.797  0.00  0.00    +0.052 C 
BRANCH   5  15
ATOM     15  O   UNL     1      -4.311  -1.252  -5.181  0.00  0.00    -0.490 OA
BRANCH  15  17
ATOM     16  C   UNL     1      -4.833  -3.287  -3.986  0.00  0.00    +0.048 C 
ATOM     17  C   UNL     1      -4.939  -2.529  -5.311  0.00  0.00    +0.226 C 
ENDBRANCH  15  17
ENDBRANCH   5  15
ENDBRANCH   1  10
BRANCH   2  18
ATOM     18  C   UNL     1      -1.590   2.733  -3.831  0.00  0.00    +0.053 A 
ATOM     19  C   UNL     1      -2.068   2.287  -2.598  0.00  0.00    +0.042 A 
ATOM     20  C   UNL     1      -1.545   2.804  -1.431  0.00  0.00    +0.106 A 
ATOM     21  C   UNL     1      -0.552   3.767  -1.480  0.00  0.00    +0.029 A 
ATOM     22  C   UNL     1      -0.069   4.210  -2.698  0.00  0.00    +0.018 A 
ATOM     23  C   UNL     1      -0.584   3.701  -3.874  0.00  0.00    +0.030 A 
ATOM     24 BR   UNL     1       0.073   4.312  -5.539  0.00  0.00    -0.050 Br
BRANCH  20  25
ATOM     25  S   UNL     1      -2.148   2.243   0.127  0.00  0.00    +0.056 S 
ATOM     26  O   UNL     1      -3.458   1.743  -0.101  0.00  0.00    -0.153 OA
ATOM     27  O   UNL     1      -1.879   3.277   1.063  0.00  0.00    -0.153 OA
BRANCH  25  28
ATOM     28  N   UNL     1      -1.218   0.947   0.573  0.00  0.00    -0.204 NA
ATOM     29  H   UNL     1      -1.631   0.081   0.717  0.00  0.00    +0.144 HD
ATOM     30  H   UNL     1      -0.261   1.053   0.686  0.00  0.00    +0.144 HD
ENDBRANCH  25  28
ENDBRANCH  20  25
ENDBRANCH   2  18
TORSDOF 6
