REMARK  Name = ZINC28120921
REMARK  8 active torsions:
REMARK  status: ('A' for Active; 'I' for Inactive)
REMARK    1  A    between atoms: C_1  and  C_2
REMARK    2  A    between atoms: C_2  and  C_3
REMARK    3  A    between atoms: C_8  and  C_28
REMARK    4  A    between atoms: C_9  and  C_24
REMARK    5  A    between atoms: C_12  and  C_15
REMARK    6  A    between atoms: C_13  and  O_14
REMARK    7  A    between atoms: C_15  and  N_16
REMARK    8  A    between atoms: C_21  and  C_23
REMARK                            x       y       z     vdW  Elec       q    Type
REMARK                         _______ _______ _______ _____ _____    ______ ____
ROOT
ATOM      1  C   UNL     1      -0.025   1.342  -0.099  0.00  0.00    -0.005 A 
ATOM      2  C   UNL     1       1.135   2.061  -0.026  0.00  0.00    +0.022 A 
ATOM      3  C   UNL     1       2.362   1.397  -0.028  0.00  0.00    +0.065 A 
ATOM      4  C   UNL     1       3.633   2.141   0.050  0.00  0.00    +0.203 A 
ATOM      5  O   UNL     1       3.658   3.357   0.118  0.00  0.00    -0.286 OA
ATOM      6  C   UNL     1       4.871   1.341   0.040  0.00  0.00    +0.101 A 
ATOM      7  C   UNL     1       4.772  -0.015  -0.038  0.00  0.00    +0.221 A 
ATOM      8  O   UNL     1       3.599  -0.646  -0.106  0.00  0.00    -0.449 OA
ATOM      9  C   UNL     1       2.412  -0.006  -0.104  0.00  0.00    +0.144 A 
ATOM     10  C   UNL     1       1.225  -0.721  -0.178  0.00  0.00    +0.021 A 
ATOM     11  C   UNL     1       0.014  -0.049  -0.175  0.00  0.00    +0.125 A 
ENDROOT
BRANCH   6  12
ATOM     12  C   UNL     1       6.192   1.996   0.114  0.00  0.00    +0.117 A 
ATOM     13  N   UNL     1       7.383   1.445   0.216  0.00  0.00    -0.239 NA
ATOM     14  C   UNL     1       8.515   2.174   0.270  0.00  0.00    +0.079 A 
ATOM     15  C   UNL     1       9.849   1.710   0.374  0.00  0.00    +0.029 A 
ATOM     16  C   UNL     1      10.889   2.585   0.423  0.00  0.00    +0.002 A 
ATOM     17  C   UNL     1      10.689   3.958   0.373  0.00  0.00    +0.001 A 
ATOM     18  C   UNL     1       9.402   4.452   0.271  0.00  0.00    +0.017 A 
ATOM     19  C   UNL     1       8.345   3.577   0.221  0.00  0.00    +0.040 A 
ATOM     20  S   UNL     1       6.580   3.740   0.095  0.00  0.00    -0.067 S 
ENDBRANCH   6  12
BRANCH   7  21
ATOM     21  C   UNL     1       6.037  -0.835  -0.047  0.00  0.00    +0.451 C 
ATOM     22  F   UNL     1       6.731  -0.635   1.150  0.00  0.00    -0.163 F 
ATOM     23  F   UNL     1       5.713  -2.190  -0.177  0.00  0.00    -0.163 F 
ATOM     24  F   UNL     1       6.839  -0.442  -1.124  0.00  0.00    -0.163 F 
ENDBRANCH   7  21
BRANCH   1  26
ATOM     25  C   UNL     1      -1.908   2.108   1.321  0.00  0.00    +0.009 C 
ATOM     26  C   UNL     1      -1.351   2.056  -0.104  0.00  0.00    +0.035 C 
ENDBRANCH   1  26
BRANCH  11  27
ATOM     27  O   UNL     1      -1.145  -0.751  -0.247  0.00  0.00    -0.506 OA
ATOM     28  H   UNL     1      -1.121  -1.849  -0.307  0.00  0.00    +0.292 HD
ENDBRANCH  11  27
BRANCH  10  29
ATOM     29  C   UNL     1       1.253  -2.226  -0.261  0.00  0.00    -0.035 C 
BRANCH  29  30
ATOM     30  N   UNL     1       1.301  -2.638  -1.670  0.00  0.00    +0.384 N 
ATOM     31  C   UNL     1       2.293  -1.851  -2.414  0.00  0.00    -0.078 C 
ATOM     32  C   UNL     1       2.213  -2.205  -3.901  0.00  0.00    -0.019 C 
ATOM     33  C   UNL     1       2.482  -3.701  -4.080  0.00  0.00    -0.003 C 
ATOM     34  C   UNL     1       1.466  -4.497  -3.256  0.00  0.00    -0.016 C 
ATOM     35  C   UNL     1       1.567  -4.077  -1.788  0.00  0.00    -0.071 C 
ATOM     36  C   UNL     1       0.540  -4.855  -0.964  0.00  0.00    -0.013 C 
ATOM     37  H   UNL     1       0.315  -2.442  -2.115  0.00  0.00    -0.081 HD
ENDBRANCH  29  30
ENDBRANCH  10  29
TORSDOF 6
