REMARK  Name = ZINC37988005
REMARK  4 active torsions:
REMARK  status: ('A' for Active; 'I' for Inactive)
REMARK    1  A    between atoms: C_3  and  N_11
REMARK    2  A    between atoms: C_6  and  N_7
REMARK    3  A    between atoms: N_11  and  C_12
REMARK    4  A    between atoms: C_12  and  C_13
REMARK                            x       y       z     vdW  Elec       q    Type
REMARK                         _______ _______ _______ _____ _____    ______ ____
ROOT
ATOM      1  C   UNL     1      -0.017   1.378   0.010  0.00  0.00    +0.035 A 
ATOM      2  C   UNL     1       1.169   2.088   0.002  0.00  0.00    +0.028 A 
ATOM      3  C   UNL     1       2.381   1.411  -0.013  0.00  0.00    +0.063 A 
ATOM      4  C   UNL     1       2.398   0.020  -0.021  0.00  0.00    +0.146 A 
ATOM      5  C   UNL     1       1.207  -0.683  -0.013  0.00  0.00    +0.073 A 
ATOM      6  C   UNL     1       0.002  -0.004   0.002  0.00  0.00    +0.129 A 
ATOM      7  F   UNL     1       3.575  -0.642  -0.036  0.00  0.00    -0.203 F 
ENDROOT
BRANCH   6   8
ATOM      8  N   UNL     1      -1.270  -0.760   0.011  0.00  0.00    +0.057 N 
ATOM      9  O   UNL     1      -2.325  -0.168   0.024  0.00  0.00    -0.126 OA
ATOM     10  O   UNL     1      -1.256  -1.969   0.004  0.00  0.00    -0.126 OA
ENDBRANCH   6   8
BRANCH   3  11
ATOM     11  N   UNL     1       3.583   2.127  -0.021  0.00  0.00    -0.341 N 
ATOM     12  H   UNL     1       4.429   1.653  -0.032  0.00  0.00    +0.146 HD
BRANCH  11  13
ATOM     13  C   UNL     1       3.563   3.591  -0.014  0.00  0.00    +0.106 C 
BRANCH  13  14
ATOM     14  C   UNL     1       4.999   4.121  -0.025  0.00  0.00    +0.028 C 
ATOM     15  C   UNL     1       5.700   3.749   1.292  0.00  0.00    +0.029 C 
ATOM     16  C   UNL     1       7.022   4.542   1.428  0.00  0.00    +0.166 C 
ATOM     17  S   UNL     1       6.677   6.071   0.467  0.00  0.00    -0.031 S 
ATOM     18  O   UNL     1       7.567   6.133  -0.639  0.00  0.00    -0.174 OA
ATOM     19  O   UNL     1       6.597   7.171   1.363  0.00  0.00    -0.174 OA
ATOM     20  C   UNL     1       4.986   5.671  -0.146  0.00  0.00    +0.171 C 
ENDBRANCH  13  14
ENDBRANCH  11  13
ENDBRANCH   3  11
TORSDOF 4
