REMARK  Name = ZINC09435903
REMARK  5 active torsions:
REMARK  status: ('A' for Active; 'I' for Inactive)
REMARK    1  A    between atoms: C_3  and  C_6
REMARK    2  A    between atoms: C_9  and  C_30
REMARK    3  A    between atoms: C_13  and  C_16
REMARK    4  A    between atoms: N_18  and  C_19
REMARK    5  A    between atoms: C_20  and  C_27
REMARK                            x       y       z     vdW  Elec       q    Type
REMARK                         _______ _______ _______ _____ _____    ______ ____
ROOT
ATOM      1  C   UNL     1      -1.250   2.205   0.020  0.00  0.00    +0.140 C 
ATOM      2  C   UNL     1      -1.518   2.696   1.447  0.00  0.00    +0.066 C 
ATOM      3  C   UNL     1      -2.872   3.419   1.478  0.00  0.00    +0.215 C 
ATOM      4  N   UNL     1      -2.917   4.334   0.330  0.00  0.00    -0.238 N 
ATOM      5  C   UNL     1      -2.069   4.275  -0.720  0.00  0.00    +0.130 A 
ATOM      6  C   UNL     1      -2.425   5.295  -1.594  0.00  0.00    +0.096 A 
ATOM      7  C   UNL     1      -3.530   5.966  -1.014  0.00  0.00    +0.149 A 
ATOM      8  N   UNL     1      -3.809   5.387   0.122  0.00  0.00    -0.177 NA
ATOM      9  N   UNL     1      -1.047   3.361  -0.868  0.00  0.00    -0.319 N 
ATOM     10  H   UNL     1      -0.150   3.791  -0.702  0.00  0.00    +0.148 HD
ENDROOT
BRANCH   1  13
ATOM     11  C   UNL     1       1.361  -0.395  -0.013  0.00  0.00    +0.041 A 
ATOM     12  C   UNL     1       0.002  -0.004   0.002  0.00  0.00    +0.046 A 
ATOM     13  C   UNL     1      -0.016   1.341   0.009  0.00  0.00    +0.125 A 
ATOM     14  O   UNL     1       1.252   1.783  -0.000  0.00  0.00    -0.466 OA
ATOM     15  C   UNL     1       2.091   0.734  -0.014  0.00  0.00    +0.195 A 
ENDBRANCH   1  13
BRANCH   6  16
ATOM     16  C   UNL     1      -1.782   5.615  -2.873  0.00  0.00    +0.253 C 
ATOM     17  O   UNL     1      -0.835   4.955  -3.260  0.00  0.00    -0.270 OA
ATOM     18  N   UNL     1      -2.239   6.639  -3.619  0.00  0.00    -0.275 N 
ATOM     19  H   UNL     1      -2.994   7.165  -3.311  0.00  0.00    +0.156 HD
BRANCH  18  20
ATOM     20  C   UNL     1      -1.631   6.942  -4.829  0.00  0.00    +0.090 A 
ATOM     21  C   UNL     1      -1.956   7.941  -5.729  0.00  0.00    +0.084 A 
ATOM     22  C   UNL     1      -1.145   8.053  -6.940  0.00  0.00    -0.018 A 
ATOM     23  C   UNL     1      -0.159   7.144  -7.053  0.00  0.00    -0.004 A 
ATOM     24  S   UNL     1      -0.284   6.157  -5.582  0.00  0.00    -0.077 S 
ATOM     25  C   UNL     1       0.623   7.315  -8.327  0.00  0.00    +0.043 C 
ATOM     26  C   UNL     1      -0.278   8.195  -9.221  0.00  0.00    +0.010 C 
ATOM     27  C   UNL     1      -1.114   8.957  -8.173  0.00  0.00    +0.037 C 
BRANCH  21  28
ATOM     28  C   UNL     1      -3.046   8.837  -5.481  0.00  0.00    +0.102 C 
ATOM     29  N   UNL     1      -3.910   9.547  -5.284  0.00  0.00    -0.191 NA
ENDBRANCH  21  28
ENDBRANCH  18  20
ENDBRANCH   6  16
BRANCH   3  30
ATOM     30  C   UNL     1      -3.006   4.213   2.779  0.00  0.00    +0.412 C 
ATOM     31  F   UNL     1      -1.977   5.156   2.858  0.00  0.00    -0.168 F 
ATOM     32  F   UNL     1      -4.242   4.868   2.799  0.00  0.00    -0.168 F 
ATOM     33  F   UNL     1      -2.924   3.339   3.868  0.00  0.00    -0.168 F 
ENDBRANCH   3  30
TORSDOF 5
