REMARK  Name = ZINC10811770
REMARK  10 active torsions:
REMARK  status: ('A' for Active; 'I' for Inactive)
REMARK    1  A    between atoms: C_1  and  C_2
REMARK    2  A    between atoms: C_2  and  O_3
REMARK    3  A    between atoms: O_3  and  C_4
REMARK    4  A    between atoms: C_4  and  C_6
REMARK    5  A    between atoms: C_7  and  C_31
REMARK    6  A    between atoms: C_8  and  C_30
REMARK    7  A    between atoms: C_10  and  N_11
REMARK    8  A    between atoms: C_12  and  C_14
REMARK    9  A    between atoms: N_20  and  S_21
REMARK   10  A    between atoms: S_21  and  C_24
REMARK                            x       y       z     vdW  Elec       q    Type
REMARK                         _______ _______ _______ _____ _____    ______ ____
ROOT
ATOM      1  N   UNL     1      -0.035   2.463   5.066  0.00  0.00    -0.278 N 
ATOM      2  C   UNL     1      -0.982   2.959   5.887  0.00  0.00    +0.236 C 
ATOM      3  O   UNL     1      -2.112   3.124   5.480  0.00  0.00    -0.274 OA
ATOM      4  H   UNL     1       0.869   2.331   5.392  0.00  0.00    +0.155 HD
ENDROOT
BRANCH   1   9
ATOM      5  C   UNL     1       0.475   1.622   2.768  0.00  0.00    +0.091 A 
ATOM      6  C   UNL     1      -0.126   1.379   1.478  0.00  0.00    -0.025 A 
ATOM      7  C   UNL     1      -1.430   1.678   1.342  0.00  0.00    -0.008 A 
ATOM      8  S   UNL     1      -1.882   2.286   2.954  0.00  0.00    -0.078 S 
ATOM      9  C   UNL     1      -0.354   2.140   3.756  0.00  0.00    +0.086 A 
ATOM     10  C   UNL     1      -2.300   1.532   0.120  0.00  0.00    +0.052 C 
ATOM     11  C   UNL     1       0.675   0.819   0.330  0.00  0.00    +0.045 C 
BRANCH   5  12
ATOM     12  C   UNL     1       1.889   1.337   3.022  0.00  0.00    +0.342 C 
ATOM     13  O   UNL     1       2.728   2.196   2.827  0.00  0.00    -0.245 OA
BRANCH  12  14
ATOM     14  O   UNL     1       2.262   0.122   3.474  0.00  0.00    -0.461 OA
BRANCH  14  16
ATOM     15  C   UNL     1       3.907  -1.516   4.210  0.00  0.00    +0.048 C 
ATOM     16  C   UNL     1       3.680  -0.090   3.704  0.00  0.00    +0.229 C 
ENDBRANCH  14  16
ENDBRANCH  12  14
ENDBRANCH   5  12
ENDBRANCH   1   9
BRANCH   2  17
ATOM     17  C   UNL     1      -0.635   3.310   7.311  0.00  0.00    +0.166 C 
ATOM     18  C   UNL     1      -0.841   4.811   7.535  0.00  0.00    +0.030 C 
ATOM     19  C   UNL     1      -0.623   5.137   9.014  0.00  0.00    +0.003 C 
ATOM     20  C   UNL     1      -1.645   4.378   9.862  0.00  0.00    +0.017 C 
ATOM     21  C   UNL     1      -1.449   2.872   9.665  0.00  0.00    +0.110 C 
ATOM     22  N   UNL     1      -1.511   2.568   8.228  0.00  0.00    -0.164 NA
BRANCH  22  23
ATOM     23  S   UNL     1      -2.551   1.415   7.654  0.00  0.00    +0.068 S 
ATOM     24  O   UNL     1      -2.025   0.977   6.409  0.00  0.00    -0.152 OA
ATOM     25  O   UNL     1      -2.803   0.522   8.730  0.00  0.00    -0.152 OA
BRANCH  23  26
ATOM     26  C   UNL     1      -4.078   2.220   7.299  0.00  0.00    +0.144 A 
ATOM     27  C   UNL     1      -4.549   2.671   6.112  0.00  0.00    +0.038 A 
ATOM     28  C   UNL     1      -5.792   3.275   6.069  0.00  0.00    +0.030 A 
ATOM     29  C   UNL     1      -6.497   3.409   7.220  0.00  0.00    +0.080 A 
ATOM     30  S   UNL     1      -5.401   2.660   8.414  0.00  0.00    -0.057 S 
ATOM     31 CL   UNL     1      -8.061   4.122   7.468  0.00  0.00    -0.076 Cl
ENDBRANCH  23  26
ENDBRANCH  22  23
ENDBRANCH   2  17
TORSDOF 7
