REMARK  Name = ZINC16990419
REMARK  6 active torsions:
REMARK  status: ('A' for Active; 'I' for Inactive)
REMARK    1  A    between atoms: C_1  and  C_2
REMARK    2  A    between atoms: C_5  and  O_34
REMARK    3  A    between atoms: C_17  and  C_33
REMARK    4  A    between atoms: C_22  and  N_23
REMARK    5  A    between atoms: N_23  and  C_24
REMARK    6  A    between atoms: N_23  and  C_25
REMARK                            x       y       z     vdW  Elec       q    Type
REMARK                         _______ _______ _______ _____ _____    ______ ____
ROOT
ATOM      1  C   UNL     1      -8.261   2.126   0.393  0.00  0.00    +0.016 C 
ATOM      2  C   UNL     1      -6.886   1.596   0.807  0.00  0.00    -0.008 C 
ATOM      3  C   UNL     1      -5.966   2.797   1.004  0.00  0.00    +0.014 C 
ATOM      4  C   UNL     1      -5.279   3.152  -0.314  0.00  0.00    +0.032 C 
ATOM      5  C   UNL     1      -6.200   2.884  -1.503  0.00  0.00    +0.119 C 
ATOM      6  C   UNL     1      -6.360   1.370  -1.698  0.00  0.00    +0.062 C 
ATOM      7  C   UNL     1      -6.353   0.744  -0.312  0.00  0.00    -0.065 C 
ATOM      8  C   UNL     1      -5.891  -0.454  -0.151  0.00  0.00    -0.027 C 
ATOM      9  C   UNL     1      -5.814  -1.141   1.181  0.00  0.00    +0.031 C 
ATOM     10  C   UNL     1      -5.818  -0.094   2.303  0.00  0.00    +0.001 C 
ATOM     11  C   UNL     1      -7.048   0.808   2.101  0.00  0.00    +0.003 C 
ATOM     12  C   UNL     1      -7.242   1.781   3.260  0.00  0.00    +0.005 C 
ATOM     13  C   UNL     1      -7.262   1.067   4.621  0.00  0.00    +0.015 C 
ATOM     14  C   UNL     1      -5.959   0.305   4.734  0.00  0.00    +0.034 C 
ATOM     15  C   UNL     1      -5.984  -0.797   3.638  0.00  0.00    +0.011 C 
ATOM     16  C   UNL     1      -4.795  -1.646   4.109  0.00  0.00    +0.044 C 
ATOM     17  C   UNL     1      -4.974  -1.633   5.628  0.00  0.00    +0.010 C 
ATOM     18  C   UNL     1      -4.517  -2.577   6.486  0.00  0.00    +0.082 C 
ATOM     19  C   UNL     1      -5.705  -0.481   5.980  0.00  0.00    +0.167 C 
ATOM     20  O   UNL     1      -6.058  -0.180   7.104  0.00  0.00    -0.292 OA
ATOM     21  C   UNL     1      -4.786   1.254   4.479  0.00  0.00    +0.020 C 
ENDROOT
BRANCH  18  22
ATOM     22  N   UNL     1      -4.585  -2.365   7.832  0.00  0.00    -0.309 N 
ATOM     23  C   UNL     1      -4.127  -1.094   8.398  0.00  0.00    +0.135 C 
BRANCH  22  24
ATOM     24  C   UNL     1      -5.093  -3.361   8.671  0.00  0.00    +0.033 A 
ATOM     25  C   UNL     1      -5.533  -4.565   8.135  0.00  0.00    +0.023 A 
ATOM     26  C   UNL     1      -6.030  -5.549   8.967  0.00  0.00    +0.002 A 
ATOM     27  C   UNL     1      -6.098  -5.333  10.332  0.00  0.00    +0.000 A 
ATOM     28  C   UNL     1      -5.666  -4.133  10.867  0.00  0.00    +0.002 A 
ATOM     29  C   UNL     1      -5.163  -3.147  10.041  0.00  0.00    +0.023 A 
ENDBRANCH  22  24
ENDBRANCH  18  22
BRANCH   5  30
ATOM     30  O   UNL     1      -7.480   3.470  -1.254  0.00  0.00    -0.391 OA
ATOM     31  H   UNL     1      -8.101   3.384  -1.991  0.00  0.00    +0.210 HD
ENDBRANCH   5  30
TORSDOF 3
