REMARK  Name = ZINC39480786
REMARK  7 active torsions:
REMARK  status: ('A' for Active; 'I' for Inactive)
REMARK    1  A    between atoms: C_4  and  C_7
REMARK    2  A    between atoms: C_7  and  C_8
REMARK    3  A    between atoms: C_11  and  N_22
REMARK    4  A    between atoms: C_12  and  N_14
REMARK    5  A    between atoms: N_22  and  S_23
REMARK    6  A    between atoms: S_23  and  C_26
REMARK    7  A    between atoms: C_31  and  O_32
REMARK                            x       y       z     vdW  Elec       q    Type
REMARK                         _______ _______ _______ _____ _____    ______ ____
ROOT
ATOM      1  C   UNL     1       3.152  -0.681   2.108  0.00  0.00    -0.041 A 
ATOM      2  C   UNL     1       4.128   0.197   2.544  0.00  0.00    +0.006 A 
ATOM      3  C   UNL     1       4.848  -0.079   3.692  0.00  0.00    +0.026 A 
ATOM      4  C   UNL     1       4.592  -1.238   4.409  0.00  0.00    +0.069 A 
ATOM      5  C   UNL     1       3.608  -2.122   3.969  0.00  0.00    +0.053 A 
ATOM      6  C   UNL     1       2.888  -1.836   2.820  0.00  0.00    +0.029 A 
ENDROOT
BRANCH   5   7
ATOM      7  N   UNL     1       3.346  -3.295   4.689  0.00  0.00    -0.325 N 
ATOM      8  C   UNL     1       2.339  -3.313   5.761  0.00  0.00    +0.120 C 
ATOM      9  C   UNL     1       1.383  -4.484   5.511  0.00  0.00    +0.101 C 
ATOM     10  N   UNL     1       2.159  -5.723   5.367  0.00  0.00    -0.302 NA
ATOM     11  C   UNL     1       3.045  -5.663   4.197  0.00  0.00    +0.139 C 
ATOM     12  C   UNL     1       4.065  -4.542   4.388  0.00  0.00    +0.135 C 
ATOM     13 BR   UNL     1       3.983  -7.380   3.996  0.00  0.00    -0.070 Br
ATOM     14  H   UNL     1       2.682  -5.922   6.207  0.00  0.00    +0.123 HD
ENDBRANCH   5   7
BRANCH   4  15
ATOM     15  N   UNL     1       5.321  -1.519   5.572  0.00  0.00    -0.214 N 
ATOM     16  H   UNL     1       5.551  -2.435   5.790  0.00  0.00    +0.174 HD
BRANCH  15  17
ATOM     17  S   UNL     1       5.790  -0.286   6.573  0.00  0.00    +0.076 S 
ATOM     18  O   UNL     1       4.654   0.550   6.748  0.00  0.00    -0.150 OA
ATOM     19  O   UNL     1       6.468  -0.888   7.667  0.00  0.00    -0.150 OA
BRANCH  17  20
ATOM     20  C   UNL     1       6.987   0.667   5.701  0.00  0.00    +0.150 A 
ATOM     21  C   UNL     1       6.724   1.986   5.384  0.00  0.00    +0.032 A 
ATOM     22  C   UNL     1       7.663   2.735   4.699  0.00  0.00    +0.002 A 
ATOM     23  C   UNL     1       8.868   2.166   4.329  0.00  0.00    +0.004 A 
ATOM     24  C   UNL     1       9.136   0.848   4.644  0.00  0.00    +0.047 A 
ATOM     25  C   UNL     1       8.197   0.096   5.336  0.00  0.00    +0.143 A 
BRANCH  25  26
ATOM     26  O   UNL     1       8.461  -1.200   5.651  0.00  0.00    -0.505 OA
ATOM     27  H   UNL     1       8.199  -1.832   4.968  0.00  0.00    +0.292 HD
ENDBRANCH  25  26
ENDBRANCH  17  20
ENDBRANCH  15  17
ENDBRANCH   4  15
BRANCH   1  28
ATOM     28  C   UNL     1       2.371  -0.374   0.856  0.00  0.00    +0.070 C 
BRANCH  28  32
ATOM     29  C   UNL     1      -1.105   1.895   1.864  0.00  0.00    +0.000 A 
ATOM     30  C   UNL     1       0.079   2.542   1.562  0.00  0.00    +0.000 A 
ATOM     31  C   UNL     1       1.204   1.807   1.236  0.00  0.00    +0.004 A 
ATOM     32  C   UNL     1       1.145   0.426   1.212  0.00  0.00    -0.043 A 
ATOM     33  C   UNL     1      -0.038  -0.220   1.514  0.00  0.00    +0.004 A 
ATOM     34  C   UNL     1      -1.164   0.514   1.839  0.00  0.00    +0.000 A 
ENDBRANCH  28  32
ENDBRANCH   1  28
TORSDOF 7
