REMARK  Name = ZINC16195503
REMARK  8 active torsions:
REMARK  status: ('A' for Active; 'I' for Inactive)
REMARK    1  A    between atoms: C_1  and  O_2
REMARK    2  A    between atoms: O_2  and  C_3
REMARK    3  A    between atoms: C_5  and  C_19
REMARK    4  A    between atoms: C_8  and  O_9
REMARK    5  A    between atoms: O_9  and  C_10
REMARK    6  A    between atoms: C_10  and  C_11
REMARK    7  A    between atoms: N_20  and  N_21
REMARK    8  A    between atoms: N_24  and  N_25
REMARK                            x       y       z     vdW  Elec       q    Type
REMARK                         _______ _______ _______ _____ _____    ______ ____
ROOT
ATOM      1  C   UNL     1       0.497  -0.624  -1.116  0.00  0.00    +0.163 A 
ATOM      2  C   UNL     1       1.135   0.141  -2.072  0.00  0.00    +0.059 A 
ATOM      3  C   UNL     1       1.739  -0.479  -3.172  0.00  0.00    -0.001 A 
ATOM      4  C   UNL     1       1.693  -1.871  -3.296  0.00  0.00    +0.027 A 
ATOM      5  C   UNL     1       1.055  -2.628  -2.337  0.00  0.00    +0.059 A 
ATOM      6  C   UNL     1       0.461  -2.012  -1.244  0.00  0.00    +0.175 A 
ATOM      7  I   UNL     1       0.988  -4.714  -2.526  0.00  0.00    -0.040 I 
ENDROOT
BRANCH   1   9
ATOM      8  C   UNL     1      -0.015   1.401   0.021  0.00  0.00    +0.277 C 
ATOM      9  O   UNL     1      -0.090  -0.025  -0.046  0.00  0.00    -0.491 OA
ENDBRANCH   1   9
BRANCH   3  10
ATOM     10  C   UNL     1       2.419   0.332  -4.194  0.00  0.00    +0.140 C 
ATOM     11  N   UNL     1       2.980  -0.247  -5.216  0.00  0.00    -0.179 NA
BRANCH  11  12
ATOM     12  N   UNL     1       3.628   0.524  -6.190  0.00  0.00    -0.245 N 
ATOM     13  C   UNL     1       4.208  -0.074  -7.247  0.00  0.00    +0.240 C 
ATOM     14  N   UNL     1       4.837   0.675  -8.193  0.00  0.00    -0.367 N 
ATOM     15  N   UNL     1       4.167  -1.411  -7.369  0.00  0.00    -0.058 NA
ATOM     16  H   UNL     1       3.658   1.490  -6.102  0.00  0.00    +0.192 HD
ATOM     17  H   UNL     1       4.791   1.643  -8.154  0.00  0.00    +0.159 HD
ATOM     18  H   UNL     1       5.332   0.241  -8.905  0.00  0.00    +0.159 HD
BRANCH  15  19
ATOM     19  N   UNL     1       4.801  -1.992  -8.330  0.00  0.00    +0.157 N 
ATOM     20  O   UNL     1       6.041  -2.397  -8.151  0.00  0.00    -0.106 OA
ATOM     21  O   UNL     1       4.208  -2.180  -9.491  0.00  0.00    -0.106 OA
ENDBRANCH  15  19
ENDBRANCH  11  12
ENDBRANCH   3  10
BRANCH   6  22
ATOM     22  O   UNL     1      -0.163  -2.763  -0.299  0.00  0.00    -0.483 OA
BRANCH  22  23
ATOM     23  C   UNL     1      -1.552  -3.033  -0.497  0.00  0.00    +0.264 C 
BRANCH  23  24
ATOM     24  C   UNL     1      -2.068  -3.873   0.643  0.00  0.00    -0.010 A 
ATOM     25  C   UNL     1      -2.020  -5.252   0.562  0.00  0.00    +0.008 A 
ATOM     26  C   UNL     1      -2.493  -6.023   1.607  0.00  0.00    +0.020 A 
ATOM     27  C   UNL     1      -3.015  -5.414   2.734  0.00  0.00    +0.041 A 
ATOM     28  C   UNL     1      -3.063  -4.034   2.814  0.00  0.00    +0.020 A 
ATOM     29  C   UNL     1      -2.585  -3.264   1.771  0.00  0.00    +0.008 A 
ATOM     30 CL   UNL     1      -3.611  -6.382   4.047  0.00  0.00    -0.084 Cl
ENDBRANCH  23  24
ENDBRANCH  22  23
ENDBRANCH   6  22
TORSDOF 7
