REMARK  Name = ZINC38742792
REMARK  5 active torsions:
REMARK  status: ('A' for Active; 'I' for Inactive)
REMARK    1  A    between atoms: C_1  and  C_2
REMARK    2  A    between atoms: C_2  and  C_3
REMARK    3  A    between atoms: C_2  and  C_4
REMARK    4  A    between atoms: C_6  and  C_10
REMARK    5  A    between atoms: C_16  and  C_19
REMARK                            x       y       z     vdW  Elec       q    Type
REMARK                         _______ _______ _______ _____ _____    ______ ____
ROOT
ATOM      1  C   UNL     1      -4.356  -0.999  -1.454  0.00  0.00    +0.181 A 
ATOM      2  N   UNL     1      -4.641   0.256  -1.640  0.00  0.00    -0.129 NA
ATOM      3  N   UNL     1      -5.539   0.373  -2.554  0.00  0.00    -0.121 NA
ATOM      4  C   UNL     1      -5.877  -0.803  -2.981  0.00  0.00    +0.211 A 
ATOM      5  N   UNL     1      -5.119  -1.746  -2.333  0.00  0.00    -0.222 N 
ATOM      6  N   UNL     1      -5.256  -3.059  -2.674  0.00  0.00    -0.263 N 
ATOM      7  C   UNL     1      -6.539  -3.402  -3.345  0.00  0.00    +0.184 C 
ATOM      8  S   UNL     1      -6.922  -1.750  -4.068  0.00  0.00    -0.056 S 
ATOM      9  H   UNL     1      -4.468  -3.375  -3.218  0.00  0.00    +0.168 HD
ENDROOT
BRANCH   7  10
ATOM     10  C   UNL     1      -6.344  -4.450  -4.411  0.00  0.00    +0.003 A 
ATOM     11  C   UNL     1      -7.364  -5.336  -4.719  0.00  0.00    +0.009 A 
ATOM     12  C   UNL     1      -7.140  -6.283  -5.706  0.00  0.00    +0.020 A 
ATOM     13  C   UNL     1      -5.915  -6.312  -6.346  0.00  0.00    +0.111 A 
ATOM     14  N   UNL     1      -4.967  -5.453  -6.027  0.00  0.00    -0.263 NA
ATOM     15  C   UNL     1      -5.147  -4.535  -5.097  0.00  0.00    +0.117 A 
ENDBRANCH   7  10
BRANCH   1  18
ATOM     16  C   UNL     1      -1.412  -0.526   0.013  0.00  0.00    +0.064 C 
ATOM     17  C   UNL     1      -1.940  -1.303  -0.935  0.00  0.00    +0.034 C 
ATOM     18  C   UNL     1      -3.362  -1.543  -0.460  0.00  0.00    +0.222 C 
ATOM     19  N   UNL     1      -3.420  -0.792   0.805  0.00  0.00    -0.172 NA
ATOM     20  N   UNL     1      -2.315  -0.275   0.986  0.00  0.00    -0.158 NA
BRANCH  16  22
ATOM     21  C   UNL     1      -0.019   1.526   0.010  0.00  0.00    +0.014 C 
ATOM     22  C   UNL     1       0.002  -0.004   0.002  0.00  0.00    +0.033 C 
ATOM     23  C   UNL     1       0.742  -0.511   1.242  0.00  0.00    +0.014 C 
ENDBRANCH  16  22
ENDBRANCH   1  18
TORSDOF 3
