REMARK  Name = ZINC08569044
REMARK  6 active torsions:
REMARK  status: ('A' for Active; 'I' for Inactive)
REMARK    1  A    between atoms: C_1  and  C_2
REMARK    2  A    between atoms: C_3  and  C_22
REMARK    3  A    between atoms: C_5  and  S_8
REMARK    4  A    between atoms: S_8  and  C_9
REMARK    5  A    between atoms: C_9  and  C_10
REMARK    6  A    between atoms: C_22  and  C_23
REMARK                            x       y       z     vdW  Elec       q    Type
REMARK                         _______ _______ _______ _____ _____    ______ ____
ROOT
ATOM      1  C   UNL     1      -4.324   2.827   1.770  0.00  0.00    +0.065 C 
ATOM      2  C   UNL     1      -3.718   1.513   2.190  0.00  0.00    +0.037 A 
ATOM      3  C   UNL     1      -2.939   0.715   1.441  0.00  0.00    +0.067 A 
ATOM      4  N   UNL     1      -2.608  -0.362   2.173  0.00  0.00    -0.226 NA
ATOM      5  C   UNL     1      -3.149  -0.260   3.364  0.00  0.00    +0.167 A 
ATOM      6  N   UNL     1      -3.858   0.901   3.416  0.00  0.00    -0.337 N 
ATOM      7  H   UNL     1      -4.462   1.377   4.202  0.00  0.00    +0.168 HD
ENDROOT
BRANCH   5   8
ATOM      8  S   UNL     1      -2.993  -1.431   4.671  0.00  0.00    -0.080 S 
BRANCH   8   9
ATOM      9  C   UNL     1      -1.935  -2.660   3.867  0.00  0.00    +0.151 C 
BRANCH   9  10
ATOM     10  C   UNL     1      -1.660  -3.790   4.826  0.00  0.00    +0.121 A 
ATOM     11  N   UNL     1      -0.883  -4.821   4.401  0.00  0.00    -0.310 N 
ATOM     12  H   UNL     1      -0.475  -4.817   3.380  0.00  0.00    +0.170 HD
ATOM     13  C   UNL     1      -0.602  -5.857   5.226  0.00  0.00    +0.259 A 
ATOM     14  O   UNL     1       0.096  -6.784   4.860  0.00  0.00    -0.267 OA
ATOM     15  C   UNL     1      -1.178  -5.821   6.578  0.00  0.00    +0.065 A 
ATOM     16  C   UNL     1      -0.954  -6.840   7.501  0.00  0.00    +0.015 A 
ATOM     17  C   UNL     1      -1.519  -6.757   8.755  0.00  0.00    +0.001 A 
ATOM     18  C   UNL     1      -2.307  -5.667   9.103  0.00  0.00    +0.002 A 
ATOM     19  C   UNL     1      -2.539  -4.649   8.206  0.00  0.00    +0.028 A 
ATOM     20  C   UNL     1      -1.978  -4.712   6.929  0.00  0.00    +0.078 A 
ATOM     21  N   UNL     1      -2.182  -3.732   6.013  0.00  0.00    -0.233 NA
ENDBRANCH   9  10
ENDBRANCH   8   9
ENDBRANCH   5   8
BRANCH   3  22
ATOM     22  C   UNL     1      -2.514   0.980   0.019  0.00  0.00    +0.092 C 
BRANCH  22  23
ATOM     23  C   UNL     1      -1.219   1.751   0.017  0.00  0.00    -0.042 A 
ATOM     24  C   UNL     1      -0.013   1.076   0.008  0.00  0.00    +0.004 A 
ATOM     25  C   UNL     1       1.175   1.783   0.000  0.00  0.00    +0.000 A 
ATOM     26  C   UNL     1       1.156   3.165   0.008  0.00  0.00    +0.000 A 
ATOM     27  C   UNL     1      -0.050   3.840   0.022  0.00  0.00    +0.000 A 
ATOM     28  C   UNL     1      -1.238   3.133   0.030  0.00  0.00    +0.004 A 
ENDBRANCH  22  23
ENDBRANCH   3  22
TORSDOF 5
