REMARK  Name = ZINC39743679
REMARK  14 active torsions:
REMARK  status: ('A' for Active; 'I' for Inactive)
REMARK    1  A    between atoms: C_1  and  C_2
REMARK    2  A    between atoms: C_3  and  C_36
REMARK    3  A    between atoms: C_8  and  C_10
REMARK    4  A    between atoms: C_10  and  C_12
REMARK    5  A    between atoms: C_10  and  S_13
REMARK    6  A    between atoms: S_13  and  C_14
REMARK    7  A    between atoms: C_17  and  C_23
REMARK    8  A    between atoms: N_18  and  C_19
REMARK    9  A    between atoms: C_19  and  C_20
REMARK   10  A    between atoms: C_20  and  C_21
REMARK   11  A    between atoms: C_20  and  C_22
REMARK   12  A    between atoms: C_23  and  C_25
REMARK   13  A    between atoms: C_23  and  N_26
REMARK   14  A    between atoms: C_27  and  C_29
REMARK                            x       y       z     vdW  Elec       q    Type
REMARK                         _______ _______ _______ _____ _____    ______ ____
ROOT
ATOM      1  C   UNL     1      -0.696  -3.817   7.288  0.00  0.00    +0.192 A 
ATOM      2  N   UNL     1      -0.280  -5.054   7.144  0.00  0.00    -0.122 NA
ATOM      3  N   UNL     1      -0.460  -5.705   8.238  0.00  0.00    -0.132 NA
ATOM      4  C   UNL     1      -0.998  -4.930   9.137  0.00  0.00    +0.154 A 
ATOM      5  N   UNL     1      -1.162  -3.698   8.566  0.00  0.00    -0.304 N 
ENDROOT
BRANCH   4   6
ATOM      6  C   UNL     1      -1.365  -5.318  10.546  0.00  0.00    +0.138 C 
ATOM      7  C   UNL     1      -0.096  -5.419  11.394  0.00  0.00    +0.036 C 
BRANCH   6   8
ATOM      8  N   UNL     1      -2.048  -6.614  10.534  0.00  0.00    -0.302 N 
ATOM      9  C   UNL     1      -2.894  -6.939  11.530  0.00  0.00    +0.245 C 
ATOM     10  O   UNL     1      -3.092  -6.157  12.440  0.00  0.00    -0.270 OA
ATOM     11  H   UNL     1      -1.890  -7.239   9.808  0.00  0.00    +0.150 HD
BRANCH   9  12
ATOM     12  C   UNL     1      -3.583  -8.247  11.518  0.00  0.00    +0.037 A 
ATOM     13  C   UNL     1      -3.354  -9.150  10.478  0.00  0.00    +0.014 A 
ATOM     14  C   UNL     1      -3.999 -10.368  10.472  0.00  0.00    +0.021 A 
ATOM     15  C   UNL     1      -4.874 -10.697  11.495  0.00  0.00    +0.041 A 
ATOM     16  C   UNL     1      -5.105  -9.806  12.529  0.00  0.00    +0.021 A 
ATOM     17  C   UNL     1      -4.461  -8.586  12.549  0.00  0.00    +0.014 A 
ATOM     18 CL   UNL     1      -5.683 -12.233  11.480  0.00  0.00    -0.084 Cl
ENDBRANCH   9  12
ENDBRANCH   6   8
ENDBRANCH   4   6
BRANCH   1  19
ATOM     19  S   UNL     1      -0.655  -2.549   6.066  0.00  0.00    -0.074 S 
BRANCH  19  20
ATOM     20  C   UNL     1       0.072  -3.361   4.616  0.00  0.00    +0.137 C 
ATOM     21  C   UNL     1       1.516  -3.760   4.925  0.00  0.00    +0.029 C 
BRANCH  20  29
ATOM     22  C   UNL     1      -0.018   1.503   0.010  0.00  0.00    +0.066 C 
ATOM     23  C   UNL     1       0.002  -0.004   0.002  0.00  0.00    +0.050 A 
ATOM     24  C   UNL     1       0.006  -0.706  -1.158  0.00  0.00    +0.011 A 
ATOM     25  S   UNL     1       0.032  -2.379  -0.535  0.00  0.00    -0.057 S 
ATOM     26  C   UNL     1       0.036  -2.015   1.108  0.00  0.00    +0.165 A 
ATOM     27  N   UNL     1       0.023  -0.700   1.124  0.00  0.00    -0.230 NA
ATOM     28  N   UNL     1       0.053  -2.891   2.187  0.00  0.00    -0.264 N 
ATOM     29  C   UNL     1       0.053  -2.410   3.446  0.00  0.00    +0.232 C 
ATOM     30  O   UNL     1       0.038  -1.213   3.638  0.00  0.00    -0.274 OA
ATOM     31  C   UNL     1      -0.009  -0.210  -2.581  0.00  0.00    +0.053 C 
ATOM     32  H   UNL     1       0.065  -3.849   2.034  0.00  0.00    +0.157 HD
ENDBRANCH  20  29
ENDBRANCH  19  20
ENDBRANCH   1  19
BRANCH   5  33
ATOM     33  C   UNL     1      -1.724  -2.500   9.195  0.00  0.00    +0.128 C 
BRANCH  33  34
ATOM     34  C   UNL     1      -3.237  -2.469   8.970  0.00  0.00    +0.003 C 
ATOM     35  C   UNL     1      -3.886  -3.649   9.696  0.00  0.00    +0.009 C 
ATOM     36  C   UNL     1      -3.807  -1.158   9.517  0.00  0.00    +0.009 C 
ENDBRANCH  33  34
ENDBRANCH   5  33
TORSDOF 8
