REMARK  Name = ZINC13131239
REMARK  7 active torsions:
REMARK  status: ('A' for Active; 'I' for Inactive)
REMARK    1  A    between atoms: N_12  and  C_16
REMARK    2  A    between atoms: C_16  and  C_17
REMARK    3  A    between atoms: C_17  and  O_19
REMARK    4  A    between atoms: O_19  and  C_20
REMARK    5  A    between atoms: C_20  and  C_21
REMARK    6  A    between atoms: N_23  and  C_24
REMARK    7  A    between atoms: C_25  and  C_34
REMARK                            x       y       z     vdW  Elec       q    Type
REMARK                         _______ _______ _______ _____ _____    ______ ____
ROOT
ATOM      1  C   UNL     1       4.800   1.382  -0.036  0.00  0.00    +0.326 C 
ATOM      2  O   UNL     1       4.974   0.187  -0.044  0.00  0.00    -0.249 OA
ENDROOT
BRANCH   1   3
ATOM      3  C   UNL     1       5.982   2.316  -0.043  0.00  0.00    +0.238 C 
BRANCH   3  15
ATOM      4  C   UNL     1       9.571  -3.567  -2.239  0.00  0.00    +0.000 A 
ATOM      5  C   UNL     1       8.292  -3.226  -1.840  0.00  0.00    +0.000 A 
ATOM      6  C   UNL     1       8.041  -1.967  -1.332  0.00  0.00    +0.006 A 
ATOM      7  C   UNL     1       9.065  -1.041  -1.220  0.00  0.00    -0.012 A 
ATOM      8  C   UNL     1      10.345  -1.383  -1.621  0.00  0.00    -0.042 A 
ATOM      9  C   UNL     1      10.594  -2.646  -2.130  0.00  0.00    +0.004 A 
ATOM     10  C   UNL     1      11.281  -0.212  -1.401  0.00  0.00    +0.038 C 
ATOM     11  C   UNL     1      10.360   1.016  -1.222  0.00  0.00    +0.045 C 
ATOM     12  C   UNL     1       9.064   0.375  -0.710  0.00  0.00    +0.138 C 
ATOM     13  C   UNL     1       7.854   1.136  -1.184  0.00  0.00    +0.252 C 
ATOM     14  O   UNL     1       7.518   1.346  -2.330  0.00  0.00    -0.272 OA
ATOM     15  N   UNL     1       7.222   1.535  -0.059  0.00  0.00    -0.213 N 
ATOM     16  C   UNL     1       7.872   1.133   1.041  0.00  0.00    +0.310 C 
ATOM     17  O   UNL     1       7.502   1.375   2.173  0.00  0.00    -0.252 OA
ATOM     18  N   UNL     1       8.984   0.426   0.750  0.00  0.00    -0.281 N 
ATOM     19  H   UNL     1       9.607   0.035   1.382  0.00  0.00    +0.152 HD
ENDBRANCH   3  15
ENDBRANCH   1   3
BRANCH   1  20
ATOM     20  O   UNL     1       3.553   1.878  -0.022  0.00  0.00    -0.454 OA
BRANCH  20  21
ATOM     21  C   UNL     1       2.462   0.920  -0.017  0.00  0.00    +0.328 C 
BRANCH  21  22
ATOM     22  C   UNL     1       1.147   1.655   0.000  0.00  0.00    +0.255 C 
ATOM     23  O   UNL     1       1.130   2.868   0.007  0.00  0.00    -0.272 OA
ATOM     24  N   UNL     1      -0.011   0.966   0.007  0.00  0.00    -0.276 N 
ATOM     25  H   UNL     1       0.002  -0.004   0.002  0.00  0.00    +0.155 HD
BRANCH  24  26
ATOM     26  C   UNL     1      -1.222   1.643   0.017  0.00  0.00    +0.090 A 
ATOM     27  C   UNL     1      -2.503   1.117   0.020  0.00  0.00    +0.084 A 
ATOM     28  C   UNL     1      -3.621   2.051   0.034  0.00  0.00    -0.018 A 
ATOM     29  C   UNL     1      -3.272   3.356   0.032  0.00  0.00    -0.004 A 
ATOM     30  S   UNL     1      -1.500   3.353   0.035  0.00  0.00    -0.077 S 
ATOM     31  C   UNL     1      -4.179   4.546   0.029  0.00  0.00    +0.043 C 
ATOM     32  C   UNL     1      -5.245   4.372   1.119  0.00  0.00    +0.005 C 
ATOM     33  C   UNL     1      -6.440   3.642   0.515  0.00  0.00    +0.001 C 
ATOM     34  C   UNL     1      -5.969   2.657  -0.553  0.00  0.00    +0.005 C 
ATOM     35  C   UNL     1      -5.072   1.589   0.063  0.00  0.00    +0.037 C 
BRANCH  27  36
ATOM     36  C   UNL     1      -2.722  -0.298   0.011  0.00  0.00    +0.102 C 
ATOM     37  N   UNL     1      -2.895  -1.421   0.003  0.00  0.00    -0.191 NA
ENDBRANCH  27  36
ENDBRANCH  24  26
ENDBRANCH  21  22
ENDBRANCH  20  21
ENDBRANCH   1  20
TORSDOF 7
