REMARK  Name = ZINC36850096
REMARK  7 active torsions:
REMARK  status: ('A' for Active; 'I' for Inactive)
REMARK    1  A    between atoms: C_1  and  C_2
REMARK    2  A    between atoms: C_5  and  N_9
REMARK    3  A    between atoms: C_13  and  S_14
REMARK    4  A    between atoms: S_14  and  C_15
REMARK    5  A    between atoms: C_15  and  C_17
REMARK    6  A    between atoms: C_15  and  C_18
REMARK    7  A    between atoms: N_20  and  C_21
REMARK                            x       y       z     vdW  Elec       q    Type
REMARK                         _______ _______ _______ _____ _____    ______ ____
ROOT
ATOM      1  S   UNL     1       2.188  -4.497   1.769  0.00  0.00    -0.073 S 
ENDROOT
BRANCH   1   6
ATOM      2  N   UNL     1       0.029  -4.190   0.010  0.00  0.00    -0.277 N 
ATOM      3  C   UNL     1      -0.799  -5.027  -0.689  0.00  0.00    +0.230 A 
ATOM      4  N   UNL     1      -0.439  -6.249  -0.412  0.00  0.00    -0.137 NA
ATOM      5  N   UNL     1       0.551  -6.243   0.407  0.00  0.00    -0.122 NA
ATOM      6  C   UNL     1       0.886  -5.007   0.697  0.00  0.00    +0.197 A 
BRANCH   2  11
ATOM      7  C   UNL     1      -0.058   1.486   0.032  0.00  0.00    +0.045 C 
ATOM      8  C   UNL     1      -0.035  -0.021   0.026  0.00  0.00    -0.032 A 
ATOM      9  C   UNL     1      -0.039  -0.706  -1.174  0.00  0.00    +0.007 A 
ATOM     10  C   UNL     1      -0.018  -2.087  -1.182  0.00  0.00    +0.026 A 
ATOM     11  C   UNL     1       0.008  -2.788   0.016  0.00  0.00    +0.051 A 
ATOM     12  C   UNL     1       0.013  -2.098   1.220  0.00  0.00    +0.046 A 
ATOM     13  C   UNL     1      -0.004  -0.715   1.223  0.00  0.00    +0.046 A 
ATOM     14 CL   UNL     1       0.008   0.150   2.728  0.00  0.00    -0.083 Cl
ENDBRANCH   2  11
ENDBRANCH   1   6
BRANCH   1  15
ATOM     15  C   UNL     1       2.920  -6.054   2.342  0.00  0.00    +0.137 C 
ATOM     16  C   UNL     1       1.896  -6.821   3.181  0.00  0.00    +0.029 C 
BRANCH  15  17
ATOM     17  C   UNL     1       4.136  -5.758   3.181  0.00  0.00    +0.230 C 
ATOM     18  O   UNL     1       4.236  -4.692   3.751  0.00  0.00    -0.274 OA
ATOM     19  N   UNL     1       5.114  -6.679   3.299  0.00  0.00    -0.283 N 
ATOM     20  H   UNL     1       5.005  -7.555   2.897  0.00  0.00    +0.155 HD
BRANCH  19  21
ATOM     21  C   UNL     1       6.285  -6.370   4.000  0.00  0.00    +0.053 A 
ATOM     22  C   UNL     1       6.232  -5.541   5.112  0.00  0.00    +0.044 A 
ATOM     23  C   UNL     1       7.391  -5.238   5.803  0.00  0.00    +0.043 A 
ATOM     24  C   UNL     1       8.603  -5.761   5.386  0.00  0.00    +0.021 A 
ATOM     25  C   UNL     1       8.659  -6.586   4.279  0.00  0.00    +0.023 A 
ATOM     26  C   UNL     1       7.503  -6.897   3.587  0.00  0.00    +0.062 A 
ATOM     27 CL   UNL     1       7.574  -7.939   2.201  0.00  0.00    -0.082 Cl
ATOM     28 CL   UNL     1       7.325  -4.201   7.193  0.00  0.00    -0.083 Cl
ENDBRANCH  19  21
ENDBRANCH  15  17
ENDBRANCH   1  15
TORSDOF 5
