REMARK  Name = ZINC42564477
REMARK  6 active torsions:
REMARK  status: ('A' for Active; 'I' for Inactive)
REMARK    1  A    between atoms: C_1  and  C_2
REMARK    2  A    between atoms: C_11  and  C_13
REMARK    3  A    between atoms: C_13  and  O_14
REMARK    4  A    between atoms: O_14  and  C_15
REMARK    5  A    between atoms: C_18  and  S_21
REMARK    6  A    between atoms: S_21  and  C_24
REMARK                            x       y       z     vdW  Elec       q    Type
REMARK                         _______ _______ _______ _____ _____    ______ ____
ROOT
ATOM      1  C   UNL     1      -0.731  -4.404   6.110  0.00  0.00    +0.121 A 
ATOM      2  C   UNL     1       0.352  -4.434   6.976  0.00  0.00    +0.047 A 
ATOM      3  C   UNL     1       0.307  -5.220   8.111  0.00  0.00    +0.031 A 
ATOM      4  C   UNL     1      -0.818  -5.977   8.385  0.00  0.00    +0.094 A 
ATOM      5  C   UNL     1      -1.899  -5.949   7.523  0.00  0.00    +0.031 A 
ATOM      6  C   UNL     1      -1.860  -5.160   6.390  0.00  0.00    +0.047 A 
ENDROOT
BRANCH   4   7
ATOM      7  S   UNL     1      -0.873  -6.978   9.833  0.00  0.00    +0.025 S 
ATOM      8  O   UNL     1      -1.817  -8.009   9.579  0.00  0.00    -0.164 OA
ATOM      9  O   UNL     1       0.476  -7.251  10.190  0.00  0.00    -0.164 OA
BRANCH   7  10
ATOM     10  C   UNL     1      -1.545  -5.988  11.126  0.00  0.00    +0.094 A 
ATOM     11  C   UNL     1      -0.707  -5.231  11.924  0.00  0.00    +0.027 A 
ATOM     12  C   UNL     1      -1.235  -4.454  12.938  0.00  0.00    +0.002 A 
ATOM     13  C   UNL     1      -2.600  -4.434  13.155  0.00  0.00    +0.000 A 
ATOM     14  C   UNL     1      -3.438  -5.190  12.357  0.00  0.00    +0.002 A 
ATOM     15  C   UNL     1      -2.910  -5.964  11.340  0.00  0.00    +0.027 A 
ENDBRANCH   7  10
ENDBRANCH   4   7
BRANCH   1  16
ATOM     16  O   UNL     1      -0.689  -3.632   4.993  0.00  0.00    -0.486 OA
BRANCH  16  17
ATOM     17  C   UNL     1       0.506  -2.880   4.769  0.00  0.00    +0.284 C 
BRANCH  17  28
ATOM     18  C   UNL     1      -0.018   1.503   0.010  0.00  0.00    +0.064 C 
ATOM     19  C   UNL     1       0.002  -0.004   0.002  0.00  0.00    +0.025 A 
ATOM     20  C   UNL     1      -0.097  -0.667  -1.172  0.00  0.00    +0.021 A 
ATOM     21  C   UNL     1      -0.079  -2.069  -1.192  0.00  0.00    +0.005 A 
ATOM     22  C   UNL     1       0.039  -2.757  -0.022  0.00  0.00    +0.047 A 
ATOM     23  C   UNL     1       0.140  -2.049   1.189  0.00  0.00    +0.141 A 
ATOM     24  N   UNL     1       0.126  -0.682   1.177  0.00  0.00    -0.265 N 
ATOM     25  C   UNL     1       0.229   0.002   2.336  0.00  0.00    +0.259 A 
ATOM     26  O   UNL     1       0.211   1.223   2.339  0.00  0.00    -0.267 OA
ATOM     27  C   UNL     1       0.355  -0.710   3.534  0.00  0.00    +0.097 A 
ATOM     28  C   UNL     1       0.370  -2.090   3.493  0.00  0.00    +0.086 A 
ATOM     29  N   UNL     1       0.256  -2.720   2.334  0.00  0.00    -0.231 NA
ENDBRANCH  17  28
ENDBRANCH  16  17
ENDBRANCH   1  16
TORSDOF 5
