REMARK  Name = ZINC09312936
REMARK  6 active torsions:
REMARK  status: ('A' for Active; 'I' for Inactive)
REMARK    1  A    between atoms: C_4  and  C_7
REMARK    2  A    between atoms: C_7  and  C_8
REMARK    3  A    between atoms: C_8  and  N_9
REMARK    4  A    between atoms: C_17  and  C_25
REMARK    5  A    between atoms: C_17  and  C_29
REMARK    6  A    between atoms: C_18  and  C_20
REMARK                            x       y       z     vdW  Elec       q    Type
REMARK                         _______ _______ _______ _____ _____    ______ ____
ROOT
ATOM      1  N   UNL     1       3.818   3.210   0.408  0.00  0.00    -0.281 N 
ATOM      2  C   UNL     1       2.629   3.855   0.223  0.00  0.00    +0.119 A 
ATOM      3  C   UNL     1       1.459   3.127   0.227  0.00  0.00    +0.098 A 
ATOM      4  C   UNL     1       1.527   1.745   0.428  0.00  0.00    +0.262 A 
ATOM      5  N   UNL     1       2.708   1.167   0.613  0.00  0.00    -0.275 N 
ATOM      6  C   UNL     1       3.834   1.877   0.599  0.00  0.00    +0.331 A 
ATOM      7  O   UNL     1       4.900   1.309   0.767  0.00  0.00    -0.246 OA
ATOM      8  O   UNL     1       0.397   1.002   0.438  0.00  0.00    -0.267 OA
ATOM      9  C   UNL     1       0.136   3.805   0.017  0.00  0.00    +0.264 C 
ATOM     10  C   UNL     1       1.379   5.880   0.193  0.00  0.00    +0.142 C 
ATOM     11  N   UNL     1       2.581   5.216   0.035  0.00  0.00    -0.284 N 
ATOM     12  H   UNL     1       2.753   0.180   0.766  0.00  0.00    +0.173 HD
ATOM     13  H   UNL     1       3.383   5.705  -0.206  0.00  0.00    +0.155 HD
ATOM     14  N   UNL     1       0.169   5.299   0.205  0.00  0.00    -0.346 N 
ATOM     15  H   UNL     1      -0.690   5.846   0.337  0.00  0.00    +0.162 HD
ENDROOT
BRANCH  10  16
ATOM     16  C   UNL     1       1.384   7.341   0.364  0.00  0.00    +0.165 A 
ATOM     17  C   UNL     1       0.285   8.132   0.524  0.00  0.00    +0.053 A 
ATOM     18  C   UNL     1       0.753   9.452   0.653  0.00  0.00    +0.042 A 
ATOM     19  C   UNL     1       2.099   9.407   0.558  0.00  0.00    +0.196 A 
ATOM     20  O   UNL     1       2.475   8.132   0.384  0.00  0.00    -0.460 OA
ENDBRANCH  10  16
BRANCH   9  21
ATOM     21  C   UNL     1      -0.358   3.511  -1.401  0.00  0.00    +0.426 C 
ATOM     22  F   UNL     1      -0.506   2.129  -1.565  0.00  0.00    -0.167 F 
ATOM     23  F   UNL     1      -1.591   4.139  -1.605  0.00  0.00    -0.167 F 
ATOM     24  F   UNL     1       0.571   3.994  -2.329  0.00  0.00    -0.167 F 
ENDBRANCH   9  21
BRANCH   9  25
ATOM     25  C   UNL     1      -0.875   3.255   1.024  0.00  0.00    +0.426 C 
ATOM     26  F   UNL     1      -0.263   3.123   2.275  0.00  0.00    -0.167 F 
ATOM     27  F   UNL     1      -1.959   4.134   1.125  0.00  0.00    -0.167 F 
ATOM     28  F   UNL     1      -1.329   2.003   0.593  0.00  0.00    -0.167 F 
ENDBRANCH   9  25
BRANCH   1  29
ATOM     29  C   UNL     1       5.072   3.966   0.399  0.00  0.00    +0.133 C 
BRANCH  29  30
ATOM     30  C   UNL     1       5.398   4.432   1.819  0.00  0.00    +0.057 C 
BRANCH  30  34
ATOM     31  C   UNL     1       9.057   6.636   1.793  0.00  0.00    +0.000 A 
ATOM     32  C   UNL     1       7.854   7.291   1.605  0.00  0.00    +0.000 A 
ATOM     33  C   UNL     1       6.670   6.578   1.613  0.00  0.00    +0.004 A 
ATOM     34  C   UNL     1       6.688   5.210   1.810  0.00  0.00    -0.046 A 
ATOM     35  C   UNL     1       7.891   4.556   2.003  0.00  0.00    +0.004 A 
ATOM     36  C   UNL     1       9.075   5.268   1.989  0.00  0.00    +0.000 A 
ENDBRANCH  30  34
ENDBRANCH  29  30
ENDBRANCH   1  29
TORSDOF 6
