REMARK  Name = ZINC63037335
REMARK  9 active torsions:
REMARK  status: ('A' for Active; 'I' for Inactive)
REMARK    1  A    between atoms: C_1  and  C_2
REMARK    2  A    between atoms: C_4  and  N_17
REMARK    3  A    between atoms: C_7  and  C_8
REMARK    4  A    between atoms: C_8  and  C_10
REMARK    5  A    between atoms: C_8  and  C_14
REMARK    6  A    between atoms: C_10  and  C_12
REMARK    7  A    between atoms: C_10  and  O_13
REMARK    8  A    between atoms: C_14  and  C_15
REMARK    9  A    between atoms: C_14  and  C_16
REMARK                            x       y       z     vdW  Elec       q    Type
REMARK                         _______ _______ _______ _____ _____    ______ ____
ROOT
ATOM      1  C   UNL     1       0.321   1.586   0.025  0.00  0.00    +0.044 C 
ATOM      2  C   UNL     1       0.184   0.086   0.029  0.00  0.00    -0.045 A 
ATOM      3  C   UNL     1       0.079  -0.602  -1.166  0.00  0.00    +0.036 A 
ATOM      4  C   UNL     1      -0.047  -1.978  -1.162  0.00  0.00    +0.126 A 
ATOM      5  C   UNL     1      -0.067  -2.668   0.036  0.00  0.00    +0.033 A 
ATOM      6  C   UNL     1       0.039  -1.980   1.231  0.00  0.00    +0.006 A 
ATOM      7  C   UNL     1       0.169  -0.604   1.227  0.00  0.00    -0.039 A 
ENDROOT
BRANCH   4   8
ATOM      8  N   UNL     1      -0.160  -2.715  -2.441  0.00  0.00    +0.056 N 
ATOM      9  O   UNL     1      -0.142  -2.112  -3.489  0.00  0.00    -0.126 OA
ATOM     10  O   UNL     1      -0.270  -3.919  -2.438  0.00  0.00    -0.126 OA
ENDBRANCH   4   8
BRANCH   7  11
ATOM     11  C   UNL     1       0.289   0.145   2.529  0.00  0.00    +0.050 C 
BRANCH  11  12
ATOM     12  C   UNL     1       1.581  -0.266   3.237  0.00  0.00    -0.007 C 
ATOM     13  C   UNL     1       2.765  -0.080   2.286  0.00  0.00    +0.008 C 
ATOM     14  C   UNL     1       1.782   0.604   4.479  0.00  0.00    +0.008 C 
ENDBRANCH  11  12
BRANCH  11  15
ATOM     15  C   UNL     1      -0.909  -0.186   3.421  0.00  0.00    +0.119 C 
ATOM     16  C   UNL     1      -2.206   0.087   2.656  0.00  0.00    +0.038 C 
BRANCH  15  17
ATOM     17  O   UNL     1      -0.868   0.627   4.596  0.00  0.00    -0.391 OA
ATOM     18  H   UNL     1      -1.599   0.469   5.208  0.00  0.00    +0.210 HD
ENDBRANCH  15  17
ENDBRANCH  11  15
ENDBRANCH   7  11
TORSDOF 5
