REMARK  Name = ZINC39933869
REMARK  4 active torsions:
REMARK  status: ('A' for Active; 'I' for Inactive)
REMARK    1  A    between atoms: C_3  and  O_20
REMARK    2  A    between atoms: C_4  and  C_12
REMARK    3  A    between atoms: N_13  and  N_14
REMARK    4  A    between atoms: N_14  and  C_15
REMARK                            x       y       z     vdW  Elec       q    Type
REMARK                         _______ _______ _______ _____ _____    ______ ____
ROOT
ATOM      1  C   UNL     1      -0.017   1.402   0.010  0.00  0.00    +0.012 A 
ATOM      2  C   UNL     1       1.150   2.103   0.002  0.00  0.00    +0.046 A 
ATOM      3  C   UNL     1       2.382   1.452  -0.013  0.00  0.00    +0.126 A 
ATOM      4  C   UNL     1       2.447   0.061  -0.022  0.00  0.00    +0.044 A 
ATOM      5  C   UNL     1       1.242  -0.687  -0.014  0.00  0.00    -0.006 A 
ATOM      6  C   UNL     1       0.002  -0.004   0.002  0.00  0.00    -0.016 A 
ATOM      7  C   UNL     1      -1.192  -0.746   0.009  0.00  0.00    +0.023 A 
ATOM      8  C   UNL     1      -1.139  -2.107   0.001  0.00  0.00    +0.018 A 
ATOM      9  C   UNL     1       0.083  -2.777  -0.014  0.00  0.00    +0.016 A 
ATOM     10  C   UNL     1       1.258  -2.089  -0.022  0.00  0.00    +0.010 A 
ATOM     11 BR   UNL     1      -2.748  -3.102   0.010  0.00  0.00    -0.050 Br
ENDROOT
BRANCH   4  12
ATOM     12  C   UNL     1       3.748  -0.624  -0.039  0.00  0.00    +0.142 C 
ATOM     13  N   UNL     1       4.847   0.069  -0.047  0.00  0.00    -0.191 NA
BRANCH  13  14
ATOM     14  N   UNL     1       6.086  -0.584  -0.064  0.00  0.00    -0.223 N 
ATOM     15  H   UNL     1       6.124  -1.553  -0.070  0.00  0.00    +0.172 HD
BRANCH  14  16
ATOM     16  C   UNL     1       7.325   0.198  -0.072  0.00  0.00    +0.371 C 
ATOM     17  N   UNL     1       7.820   0.368  -1.449  0.00  0.00    -0.116 NA
ATOM     18  N   UNL     1       8.934  -0.172  -1.484  0.00  0.00    -0.024 NA
ATOM     19  N   UNL     1       9.287  -0.718  -0.252  0.00  0.00    -0.024 NA
ATOM     20  N   UNL     1       8.407  -0.540   0.602  0.00  0.00    -0.116 NA
ENDBRANCH  14  16
ENDBRANCH  13  14
ENDBRANCH   4  12
BRANCH   3  21
ATOM     21  O   UNL     1       3.529   2.180  -0.021  0.00  0.00    -0.506 OA
ATOM     22  H   UNL     1       3.870   2.386   0.860  0.00  0.00    +0.292 HD
ENDBRANCH   3  21
TORSDOF 4
