REMARK  Name = ZINC39635763
REMARK  4 active torsions:
REMARK  status: ('A' for Active; 'I' for Inactive)
REMARK    1  A    between atoms: C_1  and  C_2
REMARK    2  A    between atoms: C_8  and  N_10
REMARK    3  A    between atoms: C_11  and  C_13
REMARK    4  A    between atoms: C_24  and  C_26
REMARK                            x       y       z     vdW  Elec       q    Type
REMARK                         _______ _______ _______ _____ _____    ______ ____
ROOT
ATOM      1  C   UNL     1       0.224   0.812   4.604  0.00  0.00    +0.100 C 
ATOM      2  C   UNL     1      -0.253   2.281   4.569  0.00  0.00    +0.121 C 
ATOM      3  N   UNL     1      -0.112   2.754   5.967  0.00  0.00    -0.296 N 
ATOM      4  C   UNL     1       1.154   2.143   6.437  0.00  0.00    +0.115 C 
ATOM      5  C   UNL     1       1.148   0.726   5.830  0.00  0.00    -0.004 C 
ATOM      6  C   UNL     1       2.558   0.329   5.403  0.00  0.00    -0.010 C 
ATOM      7  C   UNL     1       3.444   0.193   6.645  0.00  0.00    -0.082 C 
ATOM      8  N   UNL     1       2.879  -0.823   7.542  0.00  0.00    +0.379 N 
ATOM      9  C   UNL     1       1.561  -0.389   8.022  0.00  0.00    -0.082 C 
ATOM     10  C   UNL     1       0.596  -0.278   6.838  0.00  0.00    -0.010 C 
ATOM     11  C   UNL     1      -0.948   3.557   6.655  0.00  0.00    +0.247 C 
ATOM     12  O   UNL     1      -0.649   3.929   7.773  0.00  0.00    -0.270 OA
ATOM     13  H   UNL     1       2.784  -1.694   7.043  0.00  0.00    -0.086 HD
ATOM     14  H   UNL     1       3.496  -0.954   8.329  0.00  0.00    -0.086 HD
ENDROOT
BRANCH  11  15
ATOM     15  C   UNL     1      -2.227   3.983   6.051  0.00  0.00    +0.045 A 
ATOM     16  C   UNL     1      -2.252   4.500   4.751  0.00  0.00    +0.014 A 
ATOM     17  C   UNL     1      -3.443   4.899   4.185  0.00  0.00    +0.001 A 
ATOM     18  C   UNL     1      -4.629   4.793   4.896  0.00  0.00    +0.012 A 
ATOM     19  C   UNL     1      -4.625   4.284   6.189  0.00  0.00    +0.031 A 
ATOM     20  C   UNL     1      -3.420   3.868   6.776  0.00  0.00    +0.006 A 
ATOM     21  C   UNL     1      -3.704   3.365   8.143  0.00  0.00    -0.006 A 
ATOM     22  C   UNL     1      -2.876   2.850   9.132  0.00  0.00    +0.009 A 
ATOM     23  C   UNL     1      -3.412   2.445  10.345  0.00  0.00    +0.001 A 
ATOM     24  C   UNL     1      -4.770   2.549  10.579  0.00  0.00    +0.001 A 
ATOM     25  C   UNL     1      -5.609   3.060   9.602  0.00  0.00    +0.012 A 
ATOM     26  C   UNL     1      -5.085   3.470   8.383  0.00  0.00    +0.030 A 
ATOM     27  C   UNL     1      -5.710   4.057   7.174  0.00  0.00    +0.194 C 
ATOM     28  O   UNL     1      -6.891   4.295   7.015  0.00  0.00    -0.287 OA
ENDBRANCH  11  15
BRANCH   1  30
ATOM     29  N   UNL     1       1.011  -0.790   2.891  0.00  0.00    -0.312 N 
ATOM     30  C   UNL     1       0.987   0.478   3.348  0.00  0.00    +0.218 C 
ATOM     31  O   UNL     1       1.579   1.350   2.748  0.00  0.00    -0.275 OA
ATOM     32  H   UNL     1       0.537  -1.487   3.371  0.00  0.00    +0.149 HD
BRANCH  29  39
ATOM     33  C   UNL     1      -0.312  -2.117   0.683  0.00  0.00    +0.009 C 
ATOM     34  C   UNL     1       1.157  -2.370   1.030  0.00  0.00    +0.006 C 
ATOM     35  C   UNL     1       1.255  -3.538   2.012  0.00  0.00    +0.005 C 
ATOM     36  C   UNL     1       2.724  -3.791   2.359  0.00  0.00    +0.000 C 
ATOM     37  C   UNL     1       3.320  -2.536   2.999  0.00  0.00    +0.002 C 
ATOM     38  C   UNL     1       3.221  -1.367   2.017  0.00  0.00    +0.022 C 
ATOM     39  C   UNL     1       1.753  -1.114   1.670  0.00  0.00    +0.076 C 
ENDBRANCH  29  39
ENDBRANCH   1  30
TORSDOF 3
