REMARK  Name = ZINC41584844
REMARK  7 active torsions:
REMARK  status: ('A' for Active; 'I' for Inactive)
REMARK    1  A    between atoms: C_1  and  C_2
REMARK    2  A    between atoms: C_4  and  O_32
REMARK    3  A    between atoms: C_5  and  C_18
REMARK    4  A    between atoms: C_11  and  C_12
REMARK    5  A    between atoms: C_18  and  N_19
REMARK    6  A    between atoms: N_22  and  C_25
REMARK    7  A    between atoms: C_25  and  C_26
REMARK                            x       y       z     vdW  Elec       q    Type
REMARK                         _______ _______ _______ _____ _____    ______ ____
ROOT
ATOM      1  C   UNL     1      -0.018   1.503   0.010  0.00  0.00    +0.045 C 
ATOM      2  C   UNL     1       0.002  -0.004   0.002  0.00  0.00    -0.033 A 
ATOM      3  C   UNL     1       0.006  -0.682  -1.184  0.00  0.00    +0.050 A 
ATOM      4  C   UNL     1       0.025  -2.074  -1.196  0.00  0.00    +0.122 A 
ATOM      5  C   UNL     1       0.040  -2.788  -0.008  0.00  0.00    +0.020 A 
ATOM      6  C   UNL     1       0.037  -2.114   1.205  0.00  0.00    +0.145 A 
ATOM      7  C   UNL     1       0.023  -0.709   1.205  0.00  0.00    +0.071 A 
ATOM      8  C   UNL     1       0.030  -0.301   2.620  0.00  0.00    +0.232 C 
ATOM      9  O   UNL     1       0.018   0.835   3.064  0.00  0.00    -0.283 OA
ATOM     10  C   UNL     1       0.054  -1.516   3.358  0.00  0.00    +0.179 C 
ATOM     11  C   UNL     1       0.068  -1.623   4.718  0.00  0.00    +0.096 C 
ATOM     12  O   UNL     1       0.048  -2.549   2.483  0.00  0.00    -0.451 OA
ENDROOT
BRANCH  11  13
ATOM     13  C   UNL     1       0.091  -2.898   5.326  0.00  0.00    +0.131 A 
ATOM     14  C   UNL     1       0.102  -3.152   6.684  0.00  0.00    +0.049 A 
ATOM     15  C   UNL     1       0.124  -4.547   6.828  0.00  0.00    +0.042 A 
ATOM     16  C   UNL     1       0.127  -5.078   5.585  0.00  0.00    +0.195 A 
ATOM     17  O   UNL     1       0.102  -4.085   4.684  0.00  0.00    -0.463 OA
ENDBRANCH  11  13
BRANCH   4  18
ATOM     18  O   UNL     1       0.028  -2.738  -2.380  0.00  0.00    -0.506 OA
ATOM     19  H   UNL     1       0.912  -2.918  -2.728  0.00  0.00    +0.292 HD
ENDBRANCH   4  18
BRANCH   5  20
ATOM     20  C   UNL     1       0.059  -4.295  -0.034  0.00  0.00    -0.035 C 
BRANCH  20  21
ATOM     21  N   UNL     1       1.450  -4.767  -0.049  0.00  0.00    +0.384 N 
ATOM     22  C   UNL     1       2.096  -4.347  -1.300  0.00  0.00    -0.063 C 
ATOM     23  C   UNL     1       3.550  -4.822  -1.308  0.00  0.00    +0.066 C 
ATOM     24  N   UNL     1       3.586  -6.286  -1.186  0.00  0.00    -0.302 NA
ATOM     25  C   UNL     1       2.921  -6.723   0.050  0.00  0.00    +0.066 C 
ATOM     26  C   UNL     1       1.471  -6.232   0.046  0.00  0.00    -0.063 C 
ATOM     27  H   UNL     1       1.948  -4.372   0.735  0.00  0.00    -0.081 HD
BRANCH  24  28
ATOM     28  C   UNL     1       4.965  -6.786  -1.247  0.00  0.00    +0.119 C 
BRANCH  28  29
ATOM     29  C   UNL     1       4.950  -8.288  -1.367  0.00  0.00    -0.033 A 
ATOM     30  C   UNL     1       4.955  -9.072  -0.228  0.00  0.00    +0.005 A 
ATOM     31  C   UNL     1       4.941 -10.450  -0.338  0.00  0.00    +0.000 A 
ATOM     32  C   UNL     1       4.921 -11.044  -1.586  0.00  0.00    +0.000 A 
ATOM     33  C   UNL     1       4.915 -10.260  -2.724  0.00  0.00    +0.000 A 
ATOM     34  C   UNL     1       4.925  -8.882  -2.615  0.00  0.00    +0.005 A 
ENDBRANCH  28  29
ENDBRANCH  24  28
ENDBRANCH  20  21
ENDBRANCH   5  20
TORSDOF 6
