REMARK  Name = ZINC37229680
REMARK  8 active torsions:
REMARK  status: ('A' for Active; 'I' for Inactive)
REMARK    1  A    between atoms: C_1  and  N_2
REMARK    2  A    between atoms: N_2  and  C_3
REMARK    3  A    between atoms: N_2  and  C_4
REMARK    4  A    between atoms: C_4  and  C_5
REMARK    5  A    between atoms: C_5  and  C_7
REMARK    6  A    between atoms: C_5  and  N_13
REMARK    7  A    between atoms: N_13  and  C_14
REMARK    8  A    between atoms: C_14  and  C_15
REMARK                            x       y       z     vdW  Elec       q    Type
REMARK                         _______ _______ _______ _____ _____    ______ ____
ROOT
ATOM      1  C   UNL     1      -1.067  -1.890  -0.580  0.00  0.00    -0.057 C 
ENDROOT
BRANCH   1   2
ATOM      2  C   UNL     1      -2.415  -2.563  -0.555  0.00  0.00    -0.063 A 
ATOM      3  C   UNL     1      -2.975  -2.945   0.650  0.00  0.00    +0.002 A 
ATOM      4  C   UNL     1      -4.211  -3.563   0.673  0.00  0.00    +0.000 A 
ATOM      5  C   UNL     1      -4.888  -3.798  -0.509  0.00  0.00    +0.000 A 
ATOM      6  C   UNL     1      -4.329  -3.415  -1.714  0.00  0.00    +0.000 A 
ATOM      7  C   UNL     1      -3.095  -2.794  -1.736  0.00  0.00    +0.002 A 
ENDBRANCH   1   2
BRANCH   1   8
ATOM      8  N   UNL     1      -0.179  -2.535   0.397  0.00  0.00    +0.387 N 
ATOM      9  H   UNL     1      -0.533  -2.378   1.328  0.00  0.00    -0.085 HD
ATOM     10  H   UNL     1      -0.142  -3.527   0.214  0.00  0.00    -0.085 HD
BRANCH   8  11
ATOM     11  C   UNL     1       1.170  -1.966   0.283  0.00  0.00    -0.006 C 
BRANCH  11  12
ATOM     12  C   UNL     1       2.106  -2.703   1.207  0.00  0.00    +0.090 A 
ATOM     13  C   UNL     1       2.829  -3.791   0.889  0.00  0.00    +0.044 A 
ATOM     14  C   UNL     1       3.561  -4.149   2.045  0.00  0.00    +0.056 A 
ATOM     15  C   UNL     1       3.240  -3.257   3.000  0.00  0.00    +0.165 A 
ATOM     16  O   UNL     1       2.363  -2.380   2.485  0.00  0.00    -0.456 OA
ATOM     17  I   UNL     1       3.989  -3.235   4.957  0.00  0.00    -0.001 I 
ENDBRANCH  11  12
ENDBRANCH   8  11
ENDBRANCH   1   8
BRANCH   1  18
ATOM     18  C   UNL     1      -1.229  -0.411  -0.224  0.00  0.00    -0.091 C 
BRANCH  18  20
ATOM     19  C   UNL     1      -2.295   1.643  -0.855  0.00  0.00    -0.097 C 
ATOM     20  N   UNL     1      -2.014   0.261  -1.267  0.00  0.00    +0.375 N 
ATOM     21  C   UNL     1      -1.253   0.269  -2.524  0.00  0.00    -0.097 C 
ATOM     22  H   UNL     1      -2.884  -0.232  -1.404  0.00  0.00    -0.083 HD
ENDBRANCH  18  20
ENDBRANCH   1  18
TORSDOF 6
