REMARK  Name = ZINC66244533
REMARK  4 active torsions:
REMARK  status: ('A' for Active; 'I' for Inactive)
REMARK    1  A    between atoms: C_6  and  N_7
REMARK    2  A    between atoms: C_10  and  C_13
REMARK    3  A    between atoms: C_13  and  N_14
REMARK    4  A    between atoms: N_17  and  C_18
REMARK                            x       y       z     vdW  Elec       q    Type
REMARK                         _______ _______ _______ _____ _____    ______ ____
ROOT
ATOM      1  C   UNL     1      -3.260  -3.822  -0.125  0.00  0.00    +0.120 C 
ENDROOT
BRANCH   1   2
ATOM      2  N   UNL     1      -4.595  -4.037  -0.688  0.00  0.00    -0.357 N 
ATOM      3  C   UNL     1      -5.283  -5.193  -0.404  0.00  0.00    +0.169 C 
ATOM      4  N   UNL     1      -4.748  -6.097   0.368  0.00  0.00    -0.371 N 
ATOM      5  N   UNL     1      -6.536  -5.395  -0.932  0.00  0.00    -0.355 N 
ATOM      6  H   UNL     1      -4.993  -3.364  -1.262  0.00  0.00    +0.162 HD
ATOM      7  H   UNL     1      -5.234  -6.912   0.569  0.00  0.00    +0.159 HD
ATOM      8  H   UNL     1      -6.934  -4.722  -1.506  0.00  0.00    +0.163 HD
ATOM      9  H   UNL     1      -3.864  -5.954   0.741  0.00  0.00    +0.159 HD
BRANCH   5  10
ATOM     10  C   UNL     1      -7.269  -6.626  -0.629  0.00  0.00    +0.082 C 
ATOM     11  C   UNL     1      -6.900  -7.725  -1.647  0.00  0.00    +0.024 C 
ATOM     12  C   UNL     1      -8.229  -8.486  -1.883  0.00  0.00    +0.002 C 
ATOM     13  C   UNL     1      -9.281  -7.349  -1.868  0.00  0.00    +0.002 C 
ATOM     14  C   UNL     1      -8.783  -6.387  -0.770  0.00  0.00    +0.024 C 
ENDBRANCH   5  10
ENDBRANCH   1   2
BRANCH   1  18
ATOM     15  N   UNL     1      -1.198  -0.720   0.010  0.00  0.00    -0.330 N 
ATOM     16  C   UNL     1      -2.546  -0.134   0.020  0.00  0.00    +0.105 C 
ATOM     17  C   UNL     1      -3.554  -1.302  -0.002  0.00  0.00    +0.025 C 
ATOM     18  C   UNL     1      -2.720  -2.469  -0.594  0.00  0.00    +0.027 C 
ATOM     19  C   UNL     1      -1.321  -2.189   0.003  0.00  0.00    +0.110 C 
BRANCH  15  25
ATOM     20  C   UNL     1      -0.017   1.385   0.010  0.00  0.00    +0.024 A 
ATOM     21  C   UNL     1       1.171   2.090   0.002  0.00  0.00    +0.017 A 
ATOM     22  C   UNL     1       2.378   1.415  -0.013  0.00  0.00    +0.018 A 
ATOM     23  C   UNL     1       2.400   0.031  -0.021  0.00  0.00    +0.017 A 
ATOM     24  C   UNL     1       1.216  -0.679  -0.014  0.00  0.00    +0.024 A 
ATOM     25  C   UNL     1       0.002  -0.004   0.002  0.00  0.00    +0.030 A 
ATOM     26 BR   UNL     1       4.002   2.384  -0.025  0.00  0.00    -0.050 Br
ENDBRANCH  15  25
ENDBRANCH   1  18
TORSDOF 4
