REMARK  Name = ZINC10022156
REMARK  11 active torsions:
REMARK  status: ('A' for Active; 'I' for Inactive)
REMARK    1  A    between atoms: C_1  and  C_2
REMARK    2  A    between atoms: C_5  and  C_8
REMARK    3  A    between atoms: C_9  and  S_10
REMARK    4  A    between atoms: S_10  and  N_13
REMARK    5  A    between atoms: N_13  and  C_14
REMARK    6  A    between atoms: C_14  and  C_15
REMARK    7  A    between atoms: C_15  and  O_17
REMARK    8  A    between atoms: O_17  and  C_18
REMARK    9  A    between atoms: C_18  and  C_19
REMARK   10  A    between atoms: N_21  and  C_22
REMARK   11  A    between atoms: C_25  and  C_29
REMARK                            x       y       z     vdW  Elec       q    Type
REMARK                         _______ _______ _______ _____ _____    ______ ____
ROOT
ATOM      1  C   UNL     1       3.615   1.547   0.364  0.00  0.00    +0.323 C 
ATOM      2  O   UNL     1       3.776   2.737   0.224  0.00  0.00    -0.249 OA
ENDROOT
BRANCH   1   3
ATOM      3  C   UNL     1       4.806   0.643   0.552  0.00  0.00    +0.226 C 
BRANCH   3   4
ATOM      4  N   UNL     1       6.034   1.442   0.528  0.00  0.00    -0.180 NA
ATOM      5  H   UNL     1       6.014   2.352   0.193  0.00  0.00    +0.149 HD
BRANCH   4   6
ATOM      6  S   UNL     1       7.456   0.792   1.074  0.00  0.00    +0.052 S 
ATOM      7  O   UNL     1       8.453   1.789   0.898  0.00  0.00    -0.154 OA
ATOM      8  O   UNL     1       7.177   0.208   2.339  0.00  0.00    -0.154 OA
BRANCH   6  10
ATOM      9  C   UNL     1       8.963  -0.458  -0.760  0.00  0.00    +0.028 C 
ATOM     10  C   UNL     1       7.873  -0.533  -0.010  0.00  0.00    +0.153 C 
BRANCH   9  15
ATOM     11  C   UNL     1      10.323  -4.784  -4.302  0.00  0.00    +0.044 C 
ATOM     12  C   UNL     1       9.967  -3.651  -3.375  0.00  0.00    -0.050 A 
ATOM     13  C   UNL     1      10.780  -2.534  -3.308  0.00  0.00    +0.004 A 
ATOM     14  C   UNL     1      10.460  -1.493  -2.461  0.00  0.00    +0.008 A 
ATOM     15  C   UNL     1       9.313  -1.569  -1.670  0.00  0.00    -0.024 A 
ATOM     16  C   UNL     1       8.500  -2.702  -1.737  0.00  0.00    +0.008 A 
ATOM     17  C   UNL     1       8.829  -3.733  -2.593  0.00  0.00    +0.004 A 
ENDBRANCH   9  15
ENDBRANCH   6  10
ENDBRANCH   4   6
ENDBRANCH   3   4
ENDBRANCH   1   3
BRANCH   1  18
ATOM     18  O   UNL     1       2.377   1.031   0.352  0.00  0.00    -0.454 OA
BRANCH  18  19
ATOM     19  C   UNL     1       1.277   1.961   0.166  0.00  0.00    +0.328 C 
BRANCH  19  20
ATOM     20  C   UNL     1      -0.027   1.206   0.179  0.00  0.00    +0.255 C 
ATOM     21  O   UNL     1      -0.030   0.002   0.331  0.00  0.00    -0.272 OA
ATOM     22  N   UNL     1      -1.191   1.867   0.018  0.00  0.00    -0.283 N 
ATOM     23  H   UNL     1      -1.196   2.836  -0.026  0.00  0.00    +0.155 HD
BRANCH  22  24
ATOM     24  C   UNL     1      -2.388   1.157  -0.086  0.00  0.00    +0.035 A 
ATOM     25  C   UNL     1      -2.405  -0.089  -0.705  0.00  0.00    +0.024 A 
ATOM     26  C   UNL     1      -3.582  -0.794  -0.805  0.00  0.00    +0.022 A 
ATOM     27  C   UNL     1      -4.765  -0.254  -0.293  0.00  0.00    +0.070 A 
ATOM     28  C   UNL     1      -4.746   1.001   0.325  0.00  0.00    +0.060 A 
ATOM     29  C   UNL     1      -3.561   1.699   0.425  0.00  0.00    +0.044 A 
ATOM     30 CL   UNL     1      -6.212   1.679   0.962  0.00  0.00    -0.082 Cl
BRANCH  27  31
ATOM     31  C   UNL     1      -5.993  -0.983  -0.400  0.00  0.00    +0.101 C 
ATOM     32  N   UNL     1      -6.967  -1.561  -0.484  0.00  0.00    -0.191 NA
ENDBRANCH  27  31
ENDBRANCH  22  24
ENDBRANCH  19  20
ENDBRANCH  18  19
ENDBRANCH   1  18
TORSDOF 10
