REMARK  Name = ZINC12027706
REMARK  6 active torsions:
REMARK  status: ('A' for Active; 'I' for Inactive)
REMARK    1  A    between atoms: C_3  and  C_6
REMARK    2  A    between atoms: C_13  and  C_32
REMARK    3  A    between atoms: C_14  and  C_17
REMARK    4  A    between atoms: N_19  and  C_20
REMARK    5  A    between atoms: C_20  and  C_21
REMARK    6  A    between atoms: C_21  and  N_67
REMARK                            x       y       z     vdW  Elec       q    Type
REMARK                         _______ _______ _______ _____ _____    ______ ____
ROOT
ATOM      1  C   UNL     1      -1.314   0.488   4.833  0.00  0.00    +0.083 A 
ATOM      2  C   UNL     1      -2.315   0.243   3.884  0.00  0.00    +0.049 A 
ATOM      3  C   UNL     1      -1.989   0.343   2.545  0.00  0.00    +0.117 A 
ATOM      4  N   UNL     1      -0.750   0.664   2.202  0.00  0.00    -0.219 NA
ATOM      5  C   UNL     1       0.176   0.890   3.119  0.00  0.00    +0.252 A 
ATOM      6  N   UNL     1      -0.088   0.802   4.412  0.00  0.00    -0.210 NA
ATOM      7  N   UNL     1       1.468   1.226   2.712  0.00  0.00    -0.201 N 
ATOM      8  C   UNL     1       1.865   1.429   1.441  0.00  0.00    +0.063 A 
ATOM      9  C   UNL     1       3.208   1.743   1.475  0.00  0.00    +0.078 A 
ATOM     10  C   UNL     1       3.610   1.715   2.830  0.00  0.00    +0.148 A 
ATOM     11  N   UNL     1       2.571   1.405   3.555  0.00  0.00    -0.171 NA
ENDROOT
BRANCH   1  14
ATOM     12  C   UNL     1      -1.278   0.451   8.615  0.00  0.00    +0.008 A 
ATOM     13  C   UNL     1      -0.773   0.596   7.344  0.00  0.00    +0.017 A 
ATOM     14  C   UNL     1      -1.609   0.395   6.276  0.00  0.00    +0.038 A 
ATOM     15  S   UNL     1      -3.151  -0.002   7.085  0.00  0.00    -0.095 S 
ATOM     16  C   UNL     1      -2.586   0.114   8.774  0.00  0.00    +0.046 A 
ENDBRANCH   1  14
BRANCH   9  17
ATOM     17  C   UNL     1       4.064   2.049   0.314  0.00  0.00    +0.247 C 
ATOM     18  O   UNL     1       3.594   2.039  -0.807  0.00  0.00    -0.270 OA
ATOM     19  N   UNL     1       5.367   2.341   0.497  0.00  0.00    -0.313 N 
ATOM     20  H   UNL     1       5.742   2.348   1.391  0.00  0.00    +0.149 HD
BRANCH  19  21
ATOM     21  C   UNL     1       6.218   2.645  -0.656  0.00  0.00    +0.092 C 
BRANCH  21  22
ATOM     22  C   UNL     1       7.672   2.773  -0.198  0.00  0.00    -0.049 C 
ATOM     23  C   UNL     1       7.754   3.763   0.966  0.00  0.00    -0.010 C 
ATOM     24  C   UNL     1       7.241   5.130   0.510  0.00  0.00    -0.001 C 
ATOM     25  C   UNL     1       8.099   5.636  -0.651  0.00  0.00    -0.000 C 
ATOM     26  C   UNL     1       8.017   4.646  -1.815  0.00  0.00    -0.001 C 
ATOM     27  C   UNL     1       8.530   3.279  -1.359  0.00  0.00    -0.010 C 
BRANCH  22  33
ATOM     28  C   UNL     1       8.062   0.471  -0.843  0.00  0.00    -0.049 C 
ATOM     29  C   UNL     1       8.639  -0.863  -0.364  0.00  0.00    +0.141 C 
ATOM     30  O   UNL     1       7.949  -1.279   0.818  0.00  0.00    -0.383 OA
ATOM     31  C   UNL     1       8.030  -0.340   1.893  0.00  0.00    +0.141 C 
ATOM     32  C   UNL     1       7.446   1.000   1.437  0.00  0.00    -0.049 C 
ATOM     33  N   UNL     1       8.191   1.462   0.247  0.00  0.00    +0.387 N 
ATOM     34  H   UNL     1       9.183   1.561   0.492  0.00  0.00    -0.081 HD
ENDBRANCH  22  33
ENDBRANCH  21  22
ENDBRANCH  19  21
ENDBRANCH   9  17
BRANCH   8  35
ATOM     35  C   UNL     1       1.000   1.336   0.210  0.00  0.00    +0.039 C 
ATOM     36  C   UNL     1       0.368  -0.020  -0.109  0.00  0.00    +0.010 C 
ATOM     37  C   UNL     1       1.526   0.504  -0.961  0.00  0.00    +0.010 C 
ENDBRANCH   8  35
TORSDOF 6
