REMARK  Name = ZINC39164169
REMARK  9 active torsions:
REMARK  status: ('A' for Active; 'I' for Inactive)
REMARK    1  A    between atoms: C_1  and  C_2
REMARK    2  A    between atoms: C_6  and  C_7
REMARK    3  A    between atoms: C_10  and  S_15
REMARK    4  A    between atoms: N_11  and  C_12
REMARK    5  A    between atoms: C_12  and  C_13
REMARK    6  A    between atoms: S_15  and  C_16
REMARK    7  A    between atoms: C_16  and  C_17
REMARK    8  A    between atoms: C_17  and  C_19
REMARK    9  A    between atoms: C_27  and  C_29
REMARK                            x       y       z     vdW  Elec       q    Type
REMARK                         _______ _______ _______ _____ _____    ______ ____
ROOT
ATOM      1  S   UNL     1       0.083  -0.843   6.380  0.00  0.00    -0.078 S 
ENDROOT
BRANCH   1   5
ATOM      2  C   UNL     1       0.031  -0.391   2.497  0.00  0.00    +0.201 A 
ATOM      3  N   UNL     1       0.012   0.850   2.934  0.00  0.00    -0.125 NA
ATOM      4  N   UNL     1       0.026   0.862   4.219  0.00  0.00    -0.122 NA
ATOM      5  C   UNL     1       0.054  -0.367   4.683  0.00  0.00    +0.193 A 
ATOM      6  N   UNL     1       0.052  -1.208   3.606  0.00  0.00    -0.296 N 
BRANCH   2  12
ATOM      7  C   UNL     1      -0.018   1.503   0.010  0.00  0.00    +0.048 C 
ATOM      8  C   UNL     1       0.002  -0.004   0.002  0.00  0.00    -0.002 A 
ATOM      9  C   UNL     1       0.009  -0.838  -1.133  0.00  0.00    +0.045 A 
ATOM     10  C   UNL     1       0.029  -2.111  -0.688  0.00  0.00    +0.196 A 
ATOM     11  O   UNL     1       0.035  -2.098   0.655  0.00  0.00    -0.460 OA
ATOM     12  C   UNL     1       0.024  -0.823   1.091  0.00  0.00    +0.175 A 
ENDBRANCH   2  12
BRANCH   6  13
ATOM     13  C   UNL     1       0.072  -2.673   3.626  0.00  0.00    +0.152 C 
BRANCH  13  14
ATOM     14  C   UNL     1       1.500  -3.156   3.619  0.00  0.00    -0.013 C 
ATOM     15  C   UNL     1       1.920  -3.970   4.555  0.00  0.00    +0.005 C 
ENDBRANCH  13  14
ENDBRANCH   6  13
ENDBRANCH   1   5
BRANCH   1  16
ATOM     16  C   UNL     1       0.063   0.733   7.278  0.00  0.00    +0.156 C 
BRANCH  16  17
ATOM     17  C   UNL     1       0.085   0.466   8.761  0.00  0.00    +0.172 C 
ATOM     18  O   UNL     1       0.111  -0.676   9.172  0.00  0.00    -0.291 OA
BRANCH  17  19
ATOM     19  C   UNL     1       0.074   1.544   9.671  0.00  0.00    +0.027 C 
ATOM     20  C   UNL     1       0.039   2.893   9.370  0.00  0.00    +0.006 A 
ATOM     21  C   UNL     1       0.005   3.606   8.149  0.00  0.00    +0.010 A 
ATOM     22  C   UNL     1      -0.026   4.958   8.149  0.00  0.00    +0.001 A 
ATOM     23  C   UNL     1      -0.025   5.711   9.334  0.00  0.00    +0.002 A 
ATOM     24  C   UNL     1       0.007   5.129  10.552  0.00  0.00    +0.026 A 
ATOM     25  C   UNL     1       0.041   3.659  10.641  0.00  0.00    +0.043 A 
ATOM     26  N   UNL     1       0.075   2.851  11.662  0.00  0.00    -0.377 N 
ATOM     27  C   UNL     1       0.093   1.465  11.182  0.00  0.00    +0.111 C 
ATOM     28  C   UNL     1       1.367   0.764  11.657  0.00  0.00    +0.035 C 
ATOM     29  H   UNL     1       0.083   3.123  12.593  0.00  0.00    +0.160 HD
ENDBRANCH  17  19
ENDBRANCH  16  17
ENDBRANCH   1  16
TORSDOF 7
