REMARK  Name = ZINC41037466
REMARK  4 active torsions:
REMARK  status: ('A' for Active; 'I' for Inactive)
REMARK    1  A    between atoms: C_1  and  C_2
REMARK    2  A    between atoms: C_8  and  C_9
REMARK    3  A    between atoms: C_8  and  N_12
REMARK    4  A    between atoms: C_13  and  C_15
REMARK                            x       y       z     vdW  Elec       q    Type
REMARK                         _______ _______ _______ _____ _____    ______ ____
ROOT
ATOM      1  N   UNL     1       0.056  -0.038   2.447  0.00  0.00    -0.294 N 
ATOM      2  C   UNL     1       0.533  -0.364   3.665  0.00  0.00    +0.261 C 
ATOM      3  O   UNL     1       1.533  -1.051   3.763  0.00  0.00    -0.269 OA
ATOM      4  H   UNL     1      -0.741   0.509   2.368  0.00  0.00    +0.150 HD
ENDROOT
BRANCH   2   5
ATOM      5  C   UNL     1      -0.153   0.108   4.870  0.00  0.00    +0.104 A 
ATOM      6  C   UNL     1       0.224  -0.142   6.174  0.00  0.00    +0.053 A 
ATOM      7  C   UNL     1      -0.706   0.495   7.001  0.00  0.00    +0.078 A 
ATOM      8  C   UNL     1      -1.617   1.111   6.206  0.00  0.00    +0.126 A 
ATOM      9  N   UNL     1      -1.288   0.888   4.909  0.00  0.00    -0.341 N 
ATOM     10  H   UNL     1      -1.773   1.221   4.137  0.00  0.00    +0.167 HD
ATOM     11 CL   UNL     1      -2.977   2.039   6.758  0.00  0.00    -0.063 Cl
ATOM     12 CL   UNL     1      -0.697   0.497   8.737  0.00  0.00    -0.080 Cl
ENDBRANCH   2   5
BRANCH   1  19
ATOM     13  C   UNL     1      -0.019   1.526   0.010  0.00  0.00    +0.010 C 
ATOM     14  C   UNL     1       0.002  -0.004   0.002  0.00  0.00    +0.020 C 
ATOM     15  C   UNL     1      -1.433  -0.534   0.013  0.00  0.00    +0.006 C 
ATOM     16  C   UNL     1      -1.413  -2.063   0.004  0.00  0.00    +0.000 C 
ATOM     17  C   UNL     1      -0.673  -2.570   1.244  0.00  0.00    +0.003 C 
ATOM     18  C   UNL     1       0.763  -2.041   1.233  0.00  0.00    +0.038 C 
ATOM     19  C   UNL     1       0.742  -0.511   1.242  0.00  0.00    +0.139 C 
BRANCH  19  20
ATOM     20  C   UNL     1       2.156   0.011   1.231  0.00  0.00    +0.379 C 
ATOM     21  O   UNL     1       2.554   0.712   2.145  0.00  0.00    -0.244 OA
ATOM     22  O   UNL     1       2.902  -0.269   0.308  0.00  0.00    -0.244 OA
ENDBRANCH  19  20
ENDBRANCH   1  19
TORSDOF 3
