REMARK  Name = ZINC66619850
REMARK  10 active torsions:
REMARK  status: ('A' for Active; 'I' for Inactive)
REMARK    1  A    between atoms: C_1  and  C_2
REMARK    2  A    between atoms: N_7  and  C_9
REMARK    3  A    between atoms: C_9  and  C_10
REMARK    4  A    between atoms: C_16  and  C_18
REMARK    5  A    between atoms: C_18  and  C_20
REMARK    6  A    between atoms: C_18  and  N_23
REMARK    7  A    between atoms: C_20  and  C_21
REMARK    8  A    between atoms: C_20  and  C_22
REMARK    9  A    between atoms: C_24  and  O_26
REMARK   10  A    between atoms: O_26  and  C_27
REMARK                            x       y       z     vdW  Elec       q    Type
REMARK                         _______ _______ _______ _____ _____    ______ ____
ROOT
ATOM      1  C   UNL     1       0.753  -3.825   2.060  0.00  0.00    +0.034 A 
ATOM      2  C   UNL     1       1.907  -4.505   1.847  0.00  0.00    +0.070 A 
ATOM      3  S   UNL     1       1.425  -6.146   2.358  0.00  0.00    -0.060 S 
ATOM      4  C   UNL     1      -0.166  -5.800   2.782  0.00  0.00    +0.165 A 
ATOM      5  N   UNL     1      -0.268  -4.512   2.537  0.00  0.00    -0.231 NA
ATOM      6  N   UNL     1      -1.136  -6.665   3.276  0.00  0.00    -0.263 N 
ATOM      7  C   UNL     1      -0.843  -7.966   3.470  0.00  0.00    +0.239 C 
ATOM      8  O   UNL     1       0.239  -8.400   3.136  0.00  0.00    -0.273 OA
ATOM      9  H   UNL     1      -2.024  -6.332   3.482  0.00  0.00    +0.157 HD
ENDROOT
BRANCH   1  10
ATOM     10  C   UNL     1       0.644  -2.350   1.771  0.00  0.00    -0.022 C 
BRANCH  10  16
ATOM     11  C   UNL     1      -1.034   0.973  -1.408  0.00  0.00    +0.005 C 
ATOM     12  C   UNL     1      -0.802  -0.520  -1.169  0.00  0.00    -0.031 C 
ATOM     13  C   UNL     1       0.117  -1.076  -2.261  0.00  0.00    -0.001 C 
ATOM     14  C   UNL     1       0.406  -2.551  -1.969  0.00  0.00    -0.018 C 
ATOM     15  C   UNL     1       1.020  -2.679  -0.573  0.00  0.00    -0.078 C 
ATOM     16  N   UNL     1       0.083  -2.155   0.427  0.00  0.00    +0.384 N 
ATOM     17  C   UNL     1      -0.144  -0.723   0.197  0.00  0.00    -0.075 C 
ATOM     18  H   UNL     1      -0.794  -2.648   0.356  0.00  0.00    -0.081 HD
ENDBRANCH  10  16
ENDBRANCH   1  10
BRANCH   7  19
ATOM     19  C   UNL     1      -1.860  -8.882   4.101  0.00  0.00    +0.165 C 
BRANCH  19  20
ATOM     20  N   UNL     1      -1.641 -10.252   3.632  0.00  0.00    -0.270 N 
ATOM     21  C   UNL     1      -2.660 -11.134   3.628  0.00  0.00    +0.401 C 
ATOM     22  O   UNL     1      -3.761 -10.793   4.014  0.00  0.00    -0.226 OA
ATOM     23  H   UNL     1      -0.762 -10.525   3.325  0.00  0.00    +0.153 HD
BRANCH  21  24
ATOM     24  O   UNL     1      -2.458 -12.394   3.198  0.00  0.00    -0.454 OA
ATOM     25  C   UNL     1      -3.583 -13.275   3.221  0.00  0.00    +0.282 C 
ENDBRANCH  21  24
ENDBRANCH  19  20
BRANCH  19  26
ATOM     26  C   UNL     1      -1.714  -8.834   5.623  0.00  0.00    +0.012 C 
ATOM     27  C   UNL     1      -1.995  -7.414   6.118  0.00  0.00    +0.009 C 
ATOM     28  C   UNL     1      -2.711  -9.803   6.262  0.00  0.00    +0.009 C 
ENDBRANCH  19  26
ENDBRANCH   7  19
TORSDOF 6
