REMARK  Name = ZINC36773524
REMARK  9 active torsions:
REMARK  status: ('A' for Active; 'I' for Inactive)
REMARK    1  A    between atoms: C_1  and  C_2
REMARK    2  A    between atoms: C_2  and  N_3
REMARK    3  A    between atoms: N_3  and  C_4
REMARK    4  A    between atoms: N_3  and  C_6
REMARK    5  A    between atoms: C_4  and  C_5
REMARK    6  A    between atoms: C_9  and  S_27
REMARK    7  A    between atoms: C_11  and  N_12
REMARK    8  A    between atoms: C_13  and  C_15
REMARK    9  A    between atoms: S_27  and  N_30
REMARK                            x       y       z     vdW  Elec       q    Type
REMARK                         _______ _______ _______ _____ _____    ______ ____
ROOT
ATOM      1  C   UNL     1      -0.056  -0.711  -2.375  0.00  0.00    +0.051 A 
ATOM      2  C   UNL     1      -0.243   0.306  -3.300  0.00  0.00    +0.027 A 
ATOM      3  C   UNL     1      -0.969   0.067  -4.452  0.00  0.00    +0.030 A 
ATOM      4  C   UNL     1      -1.509  -1.184  -4.687  0.00  0.00    +0.107 A 
ATOM      5  C   UNL     1      -1.328  -2.203  -3.770  0.00  0.00    +0.053 A 
ATOM      6  C   UNL     1      -0.597  -1.974  -2.614  0.00  0.00    +0.057 A 
ENDROOT
BRANCH   6   7
ATOM      7  N   UNL     1      -0.407  -3.007  -1.686  0.00  0.00    -0.281 N 
ATOM      8  C   UNL     1      -0.468  -4.292  -2.087  0.00  0.00    +0.258 C 
ATOM      9  O   UNL     1      -0.587  -4.555  -3.265  0.00  0.00    -0.271 OA
ATOM     10  H   UNL     1      -0.232  -2.797  -0.756  0.00  0.00    +0.155 HD
BRANCH   8  11
ATOM     11  C   UNL     1      -0.389  -5.403  -1.071  0.00  0.00    +0.266 C 
ATOM     12  C   UNL     1       0.988  -5.389  -0.408  0.00  0.00    +0.090 C 
ATOM     13  C   UNL     1       1.175  -6.627   0.430  0.00  0.00    -0.029 A 
ATOM     14  C   UNL     1       2.115  -6.644   1.441  0.00  0.00    +0.004 A 
ATOM     15  C   UNL     1       2.288  -7.782   2.208  0.00  0.00    +0.000 A 
ATOM     16  C   UNL     1       1.524  -8.911   1.971  0.00  0.00    +0.001 A 
ATOM     17  C   UNL     1       0.580  -8.909   0.964  0.00  0.00    +0.015 A 
ATOM     18  C   UNL     1       0.401  -7.764   0.190  0.00  0.00    +0.062 A 
ATOM     19  C   UNL     1      -0.611  -7.734  -0.891  0.00  0.00    +0.340 C 
ATOM     20  O   UNL     1      -1.422  -8.628  -1.025  0.00  0.00    -0.245 OA
ATOM     21  O   UNL     1      -0.592  -6.663  -1.724  0.00  0.00    -0.448 OA
ENDBRANCH   8  11
ENDBRANCH   6   7
BRANCH   4  22
ATOM     22  S   UNL     1      -2.433  -1.480  -6.158  0.00  0.00    +0.061 S 
ATOM     23  O   UNL     1      -3.294  -2.576  -5.883  0.00  0.00    -0.153 OA
ATOM     24  O   UNL     1      -2.921  -0.218  -6.591  0.00  0.00    -0.153 OA
BRANCH  22  25
ATOM     25  N   UNL     1      -1.363  -1.996  -7.312  0.00  0.00    -0.172 NA
ATOM     26  C   UNL     1      -0.681  -1.037  -8.195  0.00  0.00    +0.137 C 
ATOM     27  C   UNL     1       0.823  -1.335  -8.162  0.00  0.00    +0.177 C 
ATOM     28  O   UNL     1       1.034  -2.720  -8.445  0.00  0.00    -0.377 OA
ATOM     29  C   UNL     1       0.455  -3.609  -7.487  0.00  0.00    +0.177 C 
ATOM     30  C   UNL     1      -1.063  -3.426  -7.481  0.00  0.00    +0.137 C 
ENDBRANCH  22  25
ENDBRANCH   4  22
BRANCH   1  31
ATOM     31  N   UNL     1       0.678  -0.471  -1.208  0.00  0.00    -0.329 N 
BRANCH  31  33
ATOM     32  C   UNL     1      -0.031   1.526   0.012  0.00  0.00    +0.024 C 
ATOM     33  C   UNL     1      -0.003  -0.004   0.002  0.00  0.00    +0.102 C 
ENDBRANCH  31  33
BRANCH  31  34
ATOM     34  C   UNL     1       2.126  -0.688  -1.197  0.00  0.00    +0.102 C 
ATOM     35  C   UNL     1       2.423  -2.131  -0.781  0.00  0.00    +0.024 C 
ENDBRANCH  31  34
ENDBRANCH   1  31
TORSDOF 7
