REMARK  Name = ZINC38981234
REMARK  8 active torsions:
REMARK  status: ('A' for Active; 'I' for Inactive)
REMARK    1  A    between atoms: C_1  and  C_2
REMARK    2  A    between atoms: C_2  and  C_3
REMARK    3  A    between atoms: C_3  and  C_4
REMARK    4  A    between atoms: C_4  and  C_5
REMARK    5  A    between atoms: C_8  and  N_11
REMARK    6  A    between atoms: N_11  and  C_12
REMARK    7  A    between atoms: N_15  and  S_16
REMARK    8  A    between atoms: S_16  and  C_19
REMARK                            x       y       z     vdW  Elec       q    Type
REMARK                         _______ _______ _______ _____ _____    ______ ____
ROOT
ATOM      1  C   UNL     1      -7.468  -4.175  -1.214  0.00  0.00    +0.237 C 
ATOM      2  C   UNL     1      -8.772  -3.422  -1.078  0.00  0.00    +0.192 C 
ATOM      3  N   UNL     1      -8.774  -2.151  -0.801  0.00  0.00    -0.110 NA
ATOM      4  N   UNL     1      -9.927  -4.083  -1.248  0.00  0.00    -0.226 NA
ATOM      5  C   UNL     1      -9.952  -5.370  -1.528  0.00  0.00    +0.089 A 
ATOM      6  C   UNL     1     -11.191  -6.037  -1.701  0.00  0.00    +0.030 A 
ATOM      7  C   UNL     1     -11.222  -7.356  -1.989  0.00  0.00    +0.002 A 
ATOM      8  C   UNL     1     -10.059  -8.130  -2.132  0.00  0.00    +0.002 A 
ATOM      9  C   UNL     1      -8.827  -7.594  -1.988  0.00  0.00    +0.027 A 
ATOM     10  C   UNL     1      -8.707  -6.163  -1.674  0.00  0.00    +0.063 A 
ATOM     11  N   UNL     1      -7.535  -5.611  -1.528  0.00  0.00    -0.359 N 
ATOM     12  H   UNL     1      -6.725  -6.136  -1.624  0.00  0.00    +0.162 HD
ENDROOT
BRANCH   3  13
ATOM     13  S   UNL     1     -10.208  -1.337  -0.655  0.00  0.00    +0.100 S 
ATOM     14  O   UNL     1     -10.809  -1.338  -1.943  0.00  0.00    -0.146 OA
ATOM     15  O   UNL     1     -10.861  -1.868   0.490  0.00  0.00    -0.146 OA
BRANCH  13  16
ATOM     16  C   UNL     1      -9.820   0.340  -0.281  0.00  0.00    +0.113 A 
ATOM     17  C   UNL     1      -9.688   0.742   1.035  0.00  0.00    +0.032 A 
ATOM     18  C   UNL     1      -9.383   2.057   1.329  0.00  0.00    +0.040 A 
ATOM     19  C   UNL     1      -9.211   2.973   0.305  0.00  0.00    +0.124 A 
ATOM     20  C   UNL     1      -9.343   2.570  -1.013  0.00  0.00    +0.040 A 
ATOM     21  C   UNL     1      -9.643   1.252  -1.305  0.00  0.00    +0.032 A 
ATOM     22  F   UNL     1      -8.913   4.259   0.592  0.00  0.00    -0.205 F 
ENDBRANCH  13  16
ENDBRANCH   3  13
BRANCH   1  23
ATOM     23  N   UNL     1      -6.732  -4.027   0.045  0.00  0.00    -0.318 N 
ATOM     24  H   UNL     1      -7.167  -4.230   0.888  0.00  0.00    +0.148 HD
BRANCH  23  28
ATOM     25  C   UNL     1      -2.776  -2.730   0.003  0.00  0.00    -0.047 A 
ATOM     26  C   UNL     1      -3.416  -3.030  -1.186  0.00  0.00    +0.005 A 
ATOM     27  C   UNL     1      -4.728  -3.461  -1.175  0.00  0.00    +0.023 A 
ATOM     28  C   UNL     1      -5.405  -3.592   0.031  0.00  0.00    +0.029 A 
ATOM     29  C   UNL     1      -4.759  -3.289   1.222  0.00  0.00    +0.023 A 
ATOM     30  C   UNL     1      -3.445  -2.864   1.205  0.00  0.00    +0.005 A 
BRANCH  25  31
ATOM     31  C   UNL     1      -1.344  -2.260  -0.013  0.00  0.00    +0.035 C 
BRANCH  31  32
ATOM     32  C   UNL     1      -0.410  -3.468   0.079  0.00  0.00    +0.004 C 
BRANCH  32  34
ATOM     33  C   UNL     1       1.978  -4.200   0.155  0.00  0.00    +0.004 C 
ATOM     34  C   UNL     1       1.044  -2.991   0.064  0.00  0.00    -0.003 C 
ENDBRANCH  32  34
ENDBRANCH  31  32
ENDBRANCH  25  31
ENDBRANCH  23  28
ENDBRANCH   1  23
TORSDOF 7
