REMARK  Name = ZINC14264652
REMARK  16 active torsions:
REMARK  status: ('A' for Active; 'I' for Inactive)
REMARK    1  A    between atoms: C_1  and  C_2
REMARK    2  A    between atoms: C_2  and  C_3
REMARK    3  A    between atoms: C_3  and  N_4
REMARK    4  A    between atoms: N_4  and  C_5
REMARK    5  A    between atoms: N_4  and  C_27
REMARK    6  A    between atoms: C_5  and  N_6
REMARK    7  A    between atoms: C_10  and  C_12
REMARK    8  A    between atoms: C_14  and  O_24
REMARK    9  A    between atoms: C_15  and  O_21
REMARK   10  A    between atoms: C_16  and  O_18
REMARK   11  A    between atoms: O_18  and  C_19
REMARK   12  A    between atoms: C_19  and  C_20
REMARK   13  A    between atoms: O_21  and  C_22
REMARK   14  A    between atoms: C_22  and  C_23
REMARK   15  A    between atoms: O_24  and  C_25
REMARK   16  A    between atoms: C_25  and  C_26
REMARK                            x       y       z     vdW  Elec       q    Type
REMARK                         _______ _______ _______ _____ _____    ______ ____
ROOT
ATOM      1  N   UNL     1      -0.875   1.420   3.852  0.00  0.00    -0.209 N 
ATOM      2  C   UNL     1      -0.558   2.472   4.637  0.00  0.00    +0.268 A 
ATOM      3  S   UNL     1       0.791   3.508   4.447  0.00  0.00    +0.011 S 
ATOM      4  O   UNL     1      -1.500   2.559   5.593  0.00  0.00    -0.412 OA
ATOM      5  C   UNL     1      -2.396   1.564   5.415  0.00  0.00    +0.247 A 
ATOM      6  N   UNL     1      -2.049   0.860   4.376  0.00  0.00    -0.128 NA
ENDROOT
BRANCH   5   7
ATOM      7  C   UNL     1      -3.580   1.315   6.264  0.00  0.00    +0.046 A 
ATOM      8  C   UNL     1      -4.438   0.253   5.972  0.00  0.00    +0.063 A 
ATOM      9  C   UNL     1      -5.543   0.019   6.771  0.00  0.00    +0.166 A 
ATOM     10  C   UNL     1      -5.805   0.847   7.858  0.00  0.00    +0.204 A 
ATOM     11  C   UNL     1      -4.955   1.909   8.147  0.00  0.00    +0.166 A 
ATOM     12  C   UNL     1      -3.846   2.144   7.354  0.00  0.00    +0.063 A 
BRANCH  11  13
ATOM     13  O   UNL     1      -5.214   2.716   9.210  0.00  0.00    -0.488 OA
BRANCH  13  14
ATOM     14  C   UNL     1      -4.299   3.788   9.449  0.00  0.00    +0.226 C 
ATOM     15  C   UNL     1      -4.751   4.580  10.677  0.00  0.00    +0.048 C 
ENDBRANCH  13  14
ENDBRANCH  11  13
BRANCH  10  16
ATOM     16  O   UNL     1      -6.895   0.617   8.639  0.00  0.00    -0.485 OA
BRANCH  16  17
ATOM     17  C   UNL     1      -8.111   1.268   8.264  0.00  0.00    +0.226 C 
ATOM     18  C   UNL     1      -9.217   0.893   9.252  0.00  0.00    +0.048 C 
ENDBRANCH  16  17
ENDBRANCH  10  16
BRANCH   9  19
ATOM     19  O   UNL     1      -6.377  -1.018   6.490  0.00  0.00    -0.488 OA
BRANCH  19  20
ATOM     20  C   UNL     1      -6.047  -1.828   5.360  0.00  0.00    +0.226 C 
ATOM     21  C   UNL     1      -7.091  -2.935   5.204  0.00  0.00    +0.048 C 
ENDBRANCH  19  20
ENDBRANCH   9  19
ENDBRANCH   5   7
BRANCH   1  22
ATOM     22  C   UNL     1      -0.130   0.949   2.682  0.00  0.00    +0.235 C 
BRANCH  22  23
ATOM     23  N   UNL     1      -0.547   1.712   1.497  0.00  0.00    -0.279 NA
BRANCH  23  24
ATOM     24  C   UNL     1       0.261   1.348   0.326  0.00  0.00    +0.081 C 
ATOM     25  C   UNL     1      -0.130   2.244  -0.861  0.00  0.00    +0.043 C 
ATOM     26  C   UNL     1       0.937   2.061  -1.978  0.00  0.00    +0.167 C 
ATOM     27  S   UNL     1       2.477   2.013  -0.969  0.00  0.00    -0.029 S 
ATOM     28  O   UNL     1       3.008   3.328  -0.872  0.00  0.00    -0.174 OA
ATOM     29  O   UNL     1       3.304   0.957  -1.437  0.00  0.00    -0.174 OA
ATOM     30  C   UNL     1       1.761   1.536   0.657  0.00  0.00    +0.184 C 
ENDBRANCH  23  24
BRANCH  23  31
ATOM     31  C   UNL     1      -1.979   1.526   1.228  0.00  0.00    +0.086 C 
BRANCH  31  33
ATOM     32  C   UNL     1      -3.745  -0.149   0.665  0.00  0.00    +0.005 C 
ATOM     33  C   UNL     1      -2.244   0.062   0.869  0.00  0.00    +0.012 C 
ENDBRANCH  31  33
ENDBRANCH  23  31
ENDBRANCH  22  23
ENDBRANCH   1  22
TORSDOF 12
