REMARK  Name = ZINC36065629
REMARK  16 active torsions:
REMARK  status: ('A' for Active; 'I' for Inactive)
REMARK    1  A    between atoms: C_1  and  C_2
REMARK    2  A    between atoms: C_2  and  O_3
REMARK    3  A    between atoms: O_3  and  C_4
REMARK    4  A    between atoms: C_4  and  C_6
REMARK    5  A    between atoms: C_13  and  C_15
REMARK    6  A    between atoms: C_18  and  C_20
REMARK    7  A    between atoms: C_20  and  N_21
REMARK    8  A    between atoms: N_21  and  C_22
REMARK    9  A    between atoms: N_21  and  C_31
REMARK   10  A    between atoms: C_22  and  C_23
REMARK   11  A    between atoms: C_26  and  C_30
REMARK   12  A    between atoms: C_28  and  C_29
REMARK   13  A    between atoms: C_31  and  C_33
REMARK   14  A    between atoms: C_31  and  C_34
REMARK   15  A    between atoms: C_34  and  C_35
REMARK   16  A    between atoms: C_34  and  C_36
REMARK                            x       y       z     vdW  Elec       q    Type
REMARK                         _______ _______ _______ _____ _____    ______ ____
ROOT
ATOM      1  C   UNL     1       1.169  -3.607   7.306  0.00  0.00    +0.164 A 
ATOM      2  C   UNL     1       1.535  -2.856   8.381  0.00  0.00    +0.230 A 
ATOM      3  O   UNL     1       2.361  -3.610   9.123  0.00  0.00    -0.449 OA
ATOM      4  C   UNL     1       2.501  -4.798   8.518  0.00  0.00    +0.179 A 
ATOM      5  N   UNL     1       1.788  -4.812   7.431  0.00  0.00    -0.210 NA
ENDROOT
BRANCH   1  12
ATOM      6  C   UNL     1      -0.726  -6.448   5.273  0.00  0.00    +0.115 C 
ATOM      7  C   UNL     1      -1.647  -6.142   4.089  0.00  0.00    +0.018 C 
ATOM      8  C   UNL     1      -2.221  -4.731   4.239  0.00  0.00    +0.020 C 
ATOM      9  C   UNL     1      -1.075  -3.715   4.236  0.00  0.00    +0.108 C 
ATOM     10  N   UNL     1      -0.110  -4.087   5.279  0.00  0.00    -0.295 N 
ATOM     11  C   UNL     1       0.437  -5.451   5.282  0.00  0.00    +0.122 C 
ATOM     12  C   UNL     1       0.268  -3.194   6.215  0.00  0.00    +0.268 C 
ATOM     13  O   UNL     1      -0.136  -2.048   6.160  0.00  0.00    -0.268 OA
BRANCH   6  14
ATOM     14  C   UNL     1      -0.186  -7.849   5.141  0.00  0.00    +0.312 C 
ATOM     15  O   UNL     1      -0.506  -8.533   4.199  0.00  0.00    -0.250 OA
BRANCH  14  16
ATOM     16  O   UNL     1       0.649  -8.336   6.072  0.00  0.00    -0.465 OA
BRANCH  16  18
ATOM     17  C   UNL     1       2.055 -10.049   7.036  0.00  0.00    +0.048 C 
ATOM     18  C   UNL     1       1.122  -9.672   5.884  0.00  0.00    +0.229 C 
ENDBRANCH  16  18
ENDBRANCH  14  16
ENDBRANCH   6  14
ENDBRANCH   1  12
BRANCH   4  19
ATOM     19  C   UNL     1       3.346  -5.940   9.021  0.00  0.00    +0.020 C 
BRANCH  19  20
ATOM     20  N   UNL     1       4.762  -5.657   8.751  0.00  0.00    +0.390 N 
ATOM     21  H   UNL     1       5.000  -4.748   9.120  0.00  0.00    -0.080 HD
BRANCH  20  22
ATOM     22  C   UNL     1       4.996  -5.673   7.301  0.00  0.00    -0.068 C 
ATOM     23  C   UNL     1       4.203  -6.819   6.669  0.00  0.00    -0.013 C 
BRANCH  22  24
ATOM     24  C   UNL     1       4.541  -4.344   6.695  0.00  0.00    -0.031 C 
ATOM     25  C   UNL     1       5.400  -3.208   7.256  0.00  0.00    +0.005 C 
ATOM     26  C   UNL     1       4.696  -4.397   5.174  0.00  0.00    +0.005 C 
ENDBRANCH  22  24
ENDBRANCH  20  22
BRANCH  20  27
ATOM     27  C   UNL     1       5.597  -6.680   9.394  0.00  0.00    -0.042 C 
BRANCH  27  28
ATOM     28  C   UNL     1       7.051  -6.326   9.215  0.00  0.00    -0.061 A 
ATOM     29  C   UNL     1       7.795  -6.940   8.224  0.00  0.00    +0.002 A 
ATOM     30  C   UNL     1       9.129  -6.615   8.060  0.00  0.00    +0.003 A 
ATOM     31  C   UNL     1       9.719  -5.677   8.887  0.00  0.00    -0.050 A 
ATOM     32  C   UNL     1       8.975  -5.064   9.877  0.00  0.00    +0.007 A 
ATOM     33  C   UNL     1       7.640  -5.385  10.038  0.00  0.00    -0.049 A 
ATOM     34  C   UNL     1       6.827  -4.712  11.115  0.00  0.00    +0.044 C 
ATOM     35  C   UNL     1      11.173  -5.324   8.709  0.00  0.00    +0.044 C 
ENDBRANCH  27  28
ENDBRANCH  20  27
ENDBRANCH  19  20
ENDBRANCH   4  19
TORSDOF 10
