REMARK  Name = ZINC63479942
REMARK  6 active torsions:
REMARK  status: ('A' for Active; 'I' for Inactive)
REMARK    1  A    between atoms: C_1  and  C_2
REMARK    2  A    between atoms: C_2  and  O_3
REMARK    3  A    between atoms: O_3  and  C_4
REMARK    4  A    between atoms: C_4  and  C_6
REMARK    5  A    between atoms: C_13  and  C_15
REMARK    6  A    between atoms: C_17  and  C_26
REMARK                            x       y       z     vdW  Elec       q    Type
REMARK                         _______ _______ _______ _____ _____    ______ ____
ROOT
ATOM      1  C   UNL     1      -0.862  -2.409  -2.054  0.00  0.00    +0.115 C 
ATOM      2  C   UNL     1       0.166  -1.275  -2.060  0.00  0.00    +0.018 C 
ATOM      3  C   UNL     1       0.963  -1.315  -3.367  0.00  0.00    +0.020 C 
ATOM      4  C   UNL     1       1.711  -2.647  -3.464  0.00  0.00    +0.108 C 
ATOM      5  N   UNL     1       0.746  -3.744  -3.313  0.00  0.00    -0.299 N 
ATOM      6  C   UNL     1      -0.135  -3.754  -2.136  0.00  0.00    +0.122 C 
ATOM      7  C   UNL     1       0.668  -4.723  -4.236  0.00  0.00    +0.242 C 
ATOM      8  O   UNL     1       1.340  -4.661  -5.244  0.00  0.00    -0.273 OA
ENDROOT
BRANCH   7   9
ATOM      9  C   UNL     1      -0.253  -5.896  -4.016  0.00  0.00    +0.193 C 
ATOM     10  C   UNL     1       0.394  -6.900  -3.088  0.00  0.00    -0.033 C 
ATOM     11  C   UNL     1       0.503  -8.047  -3.796  0.00  0.00    +0.000 A 
ATOM     12  C   UNL     1       1.039  -9.373  -3.465  0.00  0.00    +0.025 A 
ATOM     13  C   UNL     1       1.010 -10.346  -4.404  0.00  0.00    +0.019 A 
ATOM     14  C   UNL     1       0.482 -10.120  -5.684  0.00  0.00    +0.017 A 
ATOM     15  C   UNL     1      -0.028  -8.929  -6.062  0.00  0.00    +0.027 A 
ATOM     16  C   UNL     1      -0.048  -7.835  -5.154  0.00  0.00    +0.043 A 
ATOM     17  N   UNL     1      -0.482  -6.603  -5.280  0.00  0.00    -0.370 N 
ATOM     18 BR   UNL     1       1.700 -12.056  -3.981  0.00  0.00    -0.050 Br
ATOM     19  C   UNL     1       0.829  -6.669  -1.664  0.00  0.00    +0.042 C 
ATOM     20  H   UNL     1      -0.887  -6.223  -6.076  0.00  0.00    +0.161 HD
ENDBRANCH   7   9
BRANCH   1  21
ATOM     21  C   UNL     1      -1.667  -2.349  -0.781  0.00  0.00    +0.312 C 
ATOM     22  O   UNL     1      -1.662  -3.287  -0.019  0.00  0.00    -0.250 OA
BRANCH  21  23
ATOM     23  O   UNL     1      -2.391  -1.256  -0.495  0.00  0.00    -0.465 OA
BRANCH  23  25
ATOM     24  C   UNL     1      -3.886   0.053   0.881  0.00  0.00    +0.048 C 
ATOM     25  C   UNL     1      -3.130  -1.268   0.728  0.00  0.00    +0.229 C 
ENDBRANCH  23  25
ENDBRANCH  21  23
ENDBRANCH   1  21
TORSDOF 4
