REMARK  Name = ZINC04520290
REMARK  6 active torsions:
REMARK  status: ('A' for Active; 'I' for Inactive)
REMARK    1  A    between atoms: C_1  and  C_2
REMARK    2  A    between atoms: C_14  and  C_25
REMARK    3  A    between atoms: C_16  and  C_17
REMARK    4  A    between atoms: C_16  and  N_51
REMARK    5  A    between atoms: N_27  and  C_28
REMARK    6  A    between atoms: C_28  and  C_29
REMARK                            x       y       z     vdW  Elec       q    Type
REMARK                         _______ _______ _______ _____ _____    ______ ____
ROOT
ATOM      1  C   UNL     1      -5.030   4.094  -7.747  0.00  0.00    +0.047 C 
ATOM      2  C   UNL     1      -5.064   4.579  -6.321  0.00  0.00    -0.007 A 
ATOM      3  C   UNL     1      -5.961   5.533  -5.942  0.00  0.00    +0.008 A 
ATOM      4  C   UNL     1      -5.978   5.976  -4.612  0.00  0.00    +0.019 A 
ATOM      5  C   UNL     1      -5.109   5.460  -3.714  0.00  0.00    +0.096 A 
ATOM      6  N   UNL     1      -4.207   4.508  -4.084  0.00  0.00    -0.267 N 
ATOM      7  C   UNL     1      -4.169   4.051  -5.372  0.00  0.00    +0.145 A 
ATOM      8  N   UNL     1      -3.303   3.111  -5.755  0.00  0.00    -0.211 NA
ATOM      9  C   UNL     1      -2.436   2.585  -4.904  0.00  0.00    +0.147 A 
ATOM     10  C   UNL     1      -2.408   3.036  -3.564  0.00  0.00    +0.083 A 
ATOM     11  C   UNL     1      -3.346   4.022  -3.162  0.00  0.00    +0.268 A 
ATOM     12  O   UNL     1      -3.375   4.422  -2.012  0.00  0.00    -0.267 OA
ATOM     13  C   UNL     1      -1.469   2.522  -2.657  0.00  0.00    +0.033 A 
ATOM     14  C   UNL     1      -0.447   1.705  -3.131  0.00  0.00    +0.078 A 
ATOM     15  C   UNL     1      -0.381   1.456  -4.586  0.00  0.00    +0.119 A 
ATOM     16  N   UNL     1      -1.567   1.591  -5.303  0.00  0.00    -0.325 N 
ATOM     17  H   UNL     1      -1.772   1.013  -6.054  0.00  0.00    +0.169 HD
ATOM     18  N   UNL     1       0.798   1.113  -5.133  0.00  0.00    -0.366 N 
ATOM     19  H   UNL     1       1.633   1.029  -4.541  0.00  0.00    +0.161 HD
ENDROOT
BRANCH  14  20
ATOM     20  C   UNL     1       0.537   1.116  -2.216  0.00  0.00    +0.248 C 
ATOM     21  O   UNL     1       1.423   0.404  -2.651  0.00  0.00    -0.270 OA
ATOM     22  N   UNL     1       0.460   1.363  -0.893  0.00  0.00    -0.308 N 
ATOM     23  H   UNL     1      -0.246   1.930  -0.546  0.00  0.00    +0.149 HD
BRANCH  22  24
ATOM     24  C   UNL     1       1.443   0.774   0.021  0.00  0.00    +0.131 C 
BRANCH  24  25
ATOM     25  C   UNL     1       1.135   1.202   1.432  0.00  0.00    -0.016 C 
ATOM     26  C   UNL     1       0.966   0.300   2.368  0.00  0.00    +0.005 C 
ENDBRANCH  24  25
ENDBRANCH  22  24
ENDBRANCH  14  20
BRANCH  18  27
ATOM     27  C   UNL     1       0.895   0.854  -6.610  0.00  0.00    +0.149 C 
BRANCH  27  28
ATOM     28  C   UNL     1       1.895   1.818  -7.196  0.00  0.00    -0.028 A 
ATOM     29  C   UNL     1       1.469   3.030  -7.705  0.00  0.00    +0.005 A 
ATOM     30  C   UNL     1       2.386   3.917  -8.238  0.00  0.00    +0.000 A 
ATOM     31  C   UNL     1       3.728   3.587  -8.270  0.00  0.00    +0.000 A 
ATOM     32  C   UNL     1       4.154   2.373  -7.765  0.00  0.00    +0.000 A 
ATOM     33  C   UNL     1       3.237   1.488  -7.228  0.00  0.00    +0.005 A 
ENDBRANCH  27  28
ENDBRANCH  18  27
TORSDOF 5
