REMARK  Name = ZINC20706064
REMARK  6 active torsions:
REMARK  status: ('A' for Active; 'I' for Inactive)
REMARK    1  A    between atoms: C_1  and  N_2
REMARK    2  A    between atoms: N_2  and  C_3
REMARK    3  A    between atoms: C_3  and  C_4
REMARK    4  A    between atoms: C_10  and  C_12
REMARK    5  A    between atoms: C_19  and  C_28
REMARK    6  A    between atoms: C_30  and  N_35
REMARK                            x       y       z     vdW  Elec       q    Type
REMARK                         _______ _______ _______ _____ _____    ______ ____
ROOT
ATOM      1  C   UNL     1      -1.418   3.733  -0.447  0.00  0.00    +0.058 A 
ATOM      2  C   UNL     1      -0.249   4.458  -0.681  0.00  0.00    +0.015 A 
ATOM      3  C   UNL     1      -0.284   5.834  -0.650  0.00  0.00    +0.001 A 
ATOM      4  C   UNL     1      -1.467   6.495  -0.375  0.00  0.00    +0.006 A 
ATOM      5  C   UNL     1      -2.638   5.793  -0.131  0.00  0.00    -0.019 A 
ATOM      6  C   UNL     1      -2.622   4.409  -0.167  0.00  0.00    +0.044 A 
ATOM      7  N   UNL     1      -3.757   3.647   0.064  0.00  0.00    -0.336 N 
ATOM      8  C   UNL     1      -4.732   4.345   0.902  0.00  0.00    +0.106 C 
ATOM      9  C   UNL     1      -5.125   5.665   0.236  0.00  0.00    +0.029 C 
ATOM     10  C   UNL     1      -3.882   6.579   0.166  0.00  0.00    +0.049 C 
ATOM     11  C   UNL     1      -3.803   7.200   1.542  0.00  0.00    -0.023 C 
ATOM     12  C   UNL     1      -4.965   7.136   2.141  0.00  0.00    -0.030 C 
ATOM     13  C   UNL     1      -5.990   6.470   1.245  0.00  0.00    +0.033 C 
ATOM     14  H   UNL     1      -3.973   2.634  -0.304  0.00  0.00    +0.147 HD
ENDROOT
BRANCH   8  15
ATOM     15  C   UNL     1      -5.957   3.483   1.071  0.00  0.00    -0.007 A 
ATOM     16  C   UNL     1      -7.098   3.753   0.338  0.00  0.00    +0.039 A 
ATOM     17  C   UNL     1      -8.220   2.960   0.489  0.00  0.00    +0.127 A 
ATOM     18  C   UNL     1      -8.205   1.903   1.381  0.00  0.00    +0.034 A 
ATOM     19  C   UNL     1      -7.067   1.636   2.118  0.00  0.00    +0.022 A 
ATOM     20  C   UNL     1      -5.942   2.426   1.963  0.00  0.00    +0.046 A 
ATOM     21 CL   UNL     1      -4.512   2.092   2.889  0.00  0.00    -0.083 Cl
BRANCH  17  22
ATOM     22  N   UNL     1      -9.439   3.246  -0.300  0.00  0.00    +0.056 N 
ATOM     23  O   UNL     1     -10.430   2.550  -0.163  0.00  0.00    -0.126 OA
ATOM     24  O   UNL     1      -9.452   4.176  -1.085  0.00  0.00    -0.126 OA
ENDBRANCH  17  22
ENDBRANCH   8  15
BRANCH   1  27
ATOM     25  C   UNL     1       0.968   2.342   0.110  0.00  0.00    +0.132 C 
ATOM     26  N   UNL     1      -0.244   1.599  -0.241  0.00  0.00    -0.296 N 
ATOM     27  C   UNL     1      -1.393   2.260  -0.488  0.00  0.00    +0.248 C 
ATOM     28  O   UNL     1      -2.408   1.641  -0.744  0.00  0.00    -0.270 OA
BRANCH  26  29
ATOM     29  C   UNL     1      -0.207   0.137  -0.331  0.00  0.00    +0.142 C 
BRANCH  29  30
ATOM     30  C   UNL     1      -0.536  -0.457   1.015  0.00  0.00    -0.030 A 
ATOM     31  C   UNL     1       0.475  -0.723   1.919  0.00  0.00    +0.005 A 
ATOM     32  C   UNL     1       0.173  -1.263   3.155  0.00  0.00    +0.000 A 
ATOM     33  C   UNL     1      -1.139  -1.548   3.482  0.00  0.00    +0.000 A 
ATOM     34  C   UNL     1      -2.150  -1.287   2.576  0.00  0.00    +0.000 A 
ATOM     35  C   UNL     1      -1.848  -0.742   1.342  0.00  0.00    +0.005 A 
ENDBRANCH  29  30
ENDBRANCH  26  29
ENDBRANCH   1  27
TORSDOF 5
