REMARK  Name = ZINC09661677
REMARK  12 active torsions:
REMARK  status: ('A' for Active; 'I' for Inactive)
REMARK    1  A    between atoms: C_1  and  C_2
REMARK    2  A    between atoms: C_2  and  C_3
REMARK    3  A    between atoms: C_3  and  C_5
REMARK    4  A    between atoms: C_3  and  N_70
REMARK    5  A    between atoms: C_8  and  S_17
REMARK    6  A    between atoms: N_9  and  C_10
REMARK    7  A    between atoms: C_10  and  C_11
REMARK    8  A    between atoms: S_17  and  C_18
REMARK    9  A    between atoms: C_18  and  C_19
REMARK   10  A    between atoms: N_21  and  C_22
REMARK   11  A    between atoms: C_32  and  N_70
REMARK   12  A    between atoms: C_33  and  N_70
REMARK                            x       y       z     vdW  Elec       q    Type
REMARK                         _______ _______ _______ _____ _____    ______ ____
ROOT
ATOM      1  C   UNL     1      -0.067   0.012  -0.162  0.00  0.00    +0.121 A 
ATOM      2  N   UNL     1      -0.130   1.292  -0.402  0.00  0.00    -0.135 NA
ATOM      3  N   UNL     1       1.055   1.786  -0.472  0.00  0.00    -0.123 NA
ATOM      4  C   UNL     1       1.945   0.840  -0.279  0.00  0.00    +0.192 A 
ATOM      5  N   UNL     1       1.256  -0.321  -0.075  0.00  0.00    -0.303 N 
ENDROOT
BRANCH   1   6
ATOM      6  C   UNL     1      -1.236  -0.926  -0.010  0.00  0.00    +0.000 C 
BRANCH   6   9
ATOM      7  C   UNL     1      -1.471  -0.501   2.362  0.00  0.00    -0.096 C 
ATOM      8  C   UNL     1      -2.581   0.935   0.760  0.00  0.00    -0.096 C 
ATOM      9  N   UNL     1      -2.149  -0.449   1.050  0.00  0.00    +0.383 N 
ATOM     10  H   UNL     1      -2.976  -1.057   1.077  0.00  0.00    -0.082 HD
ENDBRANCH   6   9
BRANCH   6  12
ATOM     11  C   UNL     1      -3.154  -2.002  -1.196  0.00  0.00    +0.002 C 
ATOM     12  C   UNL     1      -2.006  -0.999  -1.330  0.00  0.00    -0.011 C 
ENDBRANCH   6  12
ENDBRANCH   1   6
BRANCH   5  13
ATOM     13  C   UNL     1       1.819  -1.649   0.184  0.00  0.00    +0.160 C 
BRANCH  13  14
ATOM     14  C   UNL     1       2.038  -2.365  -1.124  0.00  0.00    -0.028 A 
ATOM     15  C   UNL     1       1.035  -3.154  -1.656  0.00  0.00    +0.005 A 
ATOM     16  C   UNL     1       1.235  -3.807  -2.858  0.00  0.00    +0.000 A 
ATOM     17  C   UNL     1       2.440  -3.680  -3.522  0.00  0.00    +0.000 A 
ATOM     18  C   UNL     1       3.445  -2.896  -2.987  0.00  0.00    +0.000 A 
ATOM     19  C   UNL     1       3.244  -2.238  -1.788  0.00  0.00    +0.005 A 
ENDBRANCH  13  14
ENDBRANCH   5  13
BRANCH   4  20
ATOM     20  S   UNL     1       3.696   1.034  -0.282  0.00  0.00    -0.077 S 
BRANCH  20  21
ATOM     21  C   UNL     1       3.816   2.809  -0.611  0.00  0.00    +0.173 C 
BRANCH  21  22
ATOM     22  C   UNL     1       5.266   3.215  -0.659  0.00  0.00    +0.224 C 
ATOM     23  O   UNL     1       6.134   2.385  -0.488  0.00  0.00    -0.275 OA
ATOM     24  N   UNL     1       5.600   4.500  -0.893  0.00  0.00    -0.309 N 
ATOM     25  H   UNL     1       4.906   5.164  -1.029  0.00  0.00    +0.149 HD
BRANCH  24  26
ATOM     26  C   UNL     1       7.010   4.894  -0.940  0.00  0.00    +0.035 C 
ATOM     27  C   UNL     1       7.673   4.578   0.402  0.00  0.00    +0.029 C 
ATOM     28  C   UNL     1       9.146   4.989   0.353  0.00  0.00    -0.008 C 
ATOM     29  C   UNL     1       9.247   6.490   0.075  0.00  0.00    +0.007 C 
ATOM     30  C   UNL     1       8.584   6.806  -1.267  0.00  0.00    -0.008 C 
ATOM     31  C   UNL     1       7.111   6.395  -1.218  0.00  0.00    +0.029 C 
ATOM     32  C   UNL     1       9.293   6.032  -2.381  0.00  0.00    +0.007 C 
ATOM     33  C   UNL     1       9.191   4.531  -2.103  0.00  0.00    -0.008 C 
ATOM     34  C   UNL     1       9.854   4.215  -0.760  0.00  0.00    +0.007 C 
ATOM     35  C   UNL     1       7.719   4.120  -2.053  0.00  0.00    +0.029 C 
ENDBRANCH  24  26
ENDBRANCH  21  22
ENDBRANCH  20  21
ENDBRANCH   4  20
TORSDOF 9
