REMARK  Name = ZINC40780434
REMARK  4 active torsions:
REMARK  status: ('A' for Active; 'I' for Inactive)
REMARK    1  A    between atoms: C_1  and  C_2
REMARK    2  A    between atoms: C_11  and  N_12
REMARK    3  A    between atoms: C_14  and  N_29
REMARK    4  A    between atoms: C_15  and  N_19
REMARK                            x       y       z     vdW  Elec       q    Type
REMARK                         _______ _______ _______ _____ _____    ______ ____
ROOT
ATOM      1  N   UNL     1       0.038  -4.888  -1.149  0.00  0.00    -0.299 N 
ATOM      2  C   UNL     1       0.176  -6.270  -1.090  0.00  0.00    +0.126 A 
ATOM      3  C   UNL     1       0.296  -7.021  -2.261  0.00  0.00    +0.104 A 
ATOM      4  C   UNL     1       0.432  -8.406  -2.145  0.00  0.00    +0.151 A 
ATOM      5  N   UNL     1       0.444  -8.953  -0.932  0.00  0.00    -0.220 NA
ATOM      6  C   UNL     1       0.328  -8.208   0.148  0.00  0.00    +0.200 A 
ATOM      7  N   UNL     1       0.203  -6.897   0.084  0.00  0.00    -0.333 N 
ATOM      8  H   UNL     1      -0.071  -4.447  -2.006  0.00  0.00    +0.154 HD
ATOM      9  H   UNL     1       0.125  -6.383   0.902  0.00  0.00    +0.168 HD
ENDROOT
BRANCH   1  20
ATOM     10  C   UNL     1       4.701  -3.598   3.180  0.00  0.00    +0.065 C 
ATOM     11  C   UNL     1       3.467  -3.749   2.327  0.00  0.00    +0.039 A 
ATOM     12  C   UNL     1       3.534  -4.520   1.169  0.00  0.00    +0.024 A 
ATOM     13  C   UNL     1       2.425  -4.668   0.384  0.00  0.00    +0.013 A 
ATOM     14  C   UNL     1       1.240  -4.027   0.782  0.00  0.00    +0.022 A 
ATOM     15  C   UNL     1       1.240  -3.258   1.972  0.00  0.00    +0.073 A 
ATOM     16  N   UNL     1       2.358  -3.157   2.698  0.00  0.00    -0.252 NA
ATOM     17  C   UNL     1       0.056  -2.616   2.373  0.00  0.00    +0.028 A 
ATOM     18  C   UNL     1      -1.074  -2.736   1.622  0.00  0.00    +0.004 A 
ATOM     19  C   UNL     1      -1.085  -3.488   0.453  0.00  0.00    +0.024 A 
ATOM     20  C   UNL     1       0.056  -4.136   0.023  0.00  0.00    +0.042 A 
ENDBRANCH   1  20
BRANCH   4  21
ATOM     21  N   UNL     1       0.555  -9.201  -3.279  0.00  0.00    -0.283 N 
ATOM     22  C   UNL     1       1.869  -9.424  -3.897  0.00  0.00    +0.113 C 
ATOM     23  C   UNL     1       1.707  -9.267  -5.414  0.00  0.00    +0.024 C 
ATOM     24  C   UNL     1       0.758 -10.352  -5.925  0.00  0.00    +0.038 C 
ATOM     25  C   UNL     1      -0.513 -10.362  -5.119  0.00  0.00    -0.026 A 
ATOM     26  C   UNL     1      -0.572  -9.806  -3.848  0.00  0.00    +0.038 A 
ATOM     27  C   UNL     1      -1.760  -9.841  -3.126  0.00  0.00    +0.024 A 
ATOM     28  C   UNL     1      -2.883 -10.431  -3.671  0.00  0.00    +0.002 A 
ATOM     29  C   UNL     1      -2.825 -10.987  -4.936  0.00  0.00    +0.000 A 
ATOM     30  C   UNL     1      -1.646 -10.946  -5.661  0.00  0.00    +0.005 A 
ENDBRANCH   4  21
BRANCH   3  31
ATOM     31  N   UNL     1       0.279  -6.401  -3.520  0.00  0.00    -0.353 N 
ATOM     32  H   UNL     1       0.259  -5.434  -3.584  0.00  0.00    +0.143 HD
ATOM     33  H   UNL     1       0.287  -6.941  -4.327  0.00  0.00    +0.143 HD
ENDBRANCH   3  31
TORSDOF 3
