REMARK  Name = ZINC24453622
REMARK  8 active torsions:
REMARK  status: ('A' for Active; 'I' for Inactive)
REMARK    1  A    between atoms: C_1  and  C_2
REMARK    2  A    between atoms: C_5  and  C_8
REMARK    3  A    between atoms: C_8  and  C_33
REMARK    4  A    between atoms: N_11  and  C_15
REMARK    5  A    between atoms: C_15  and  C_16
REMARK    6  A    between atoms: N_18  and  N_19
REMARK    7  A    between atoms: C_20  and  C_22
REMARK    8  A    between atoms: C_22  and  C_23
REMARK                            x       y       z     vdW  Elec       q    Type
REMARK                         _______ _______ _______ _____ _____    ______ ____
ROOT
ATOM      1  C   UNL     1       3.913  -5.224  -2.018  0.00  0.00    +0.247 C 
ATOM      2  O   UNL     1       3.907  -4.093  -1.580  0.00  0.00    -0.273 OA
ATOM      3  N   UNL     1       4.923  -5.635  -2.810  0.00  0.00    -0.233 N 
ATOM      4  H   UNL     1       4.928  -6.660  -3.208  0.00  0.00    +0.173 HD
ENDROOT
BRANCH   3   5
ATOM      5  N   UNL     1       5.967  -4.755  -3.127  0.00  0.00    -0.234 N 
ATOM      6  C   UNL     1       6.977  -5.166  -3.919  0.00  0.00    +0.233 C 
ATOM      7  O   UNL     1       6.982  -6.297  -4.358  0.00  0.00    -0.274 OA
ATOM      8  H   UNL     1       5.962  -3.730  -2.729  0.00  0.00    +0.173 HD
BRANCH   6   9
ATOM      9  C   UNL     1       8.100  -4.220  -4.260  0.00  0.00    +0.134 C 
BRANCH   9  10
ATOM     10  C   UNL     1       9.093  -4.920  -5.152  0.00  0.00    -0.014 A 
ATOM     11  C   UNL     1      10.214  -5.546  -4.762  0.00  0.00    +0.087 A 
ATOM     12  N   UNL     1      10.863  -6.063  -5.850  0.00  0.00    -0.360 N 
ATOM     13  H   UNL     1      11.806  -6.613  -5.718  0.00  0.00    +0.165 HD
ATOM     14  C   UNL     1      10.156  -5.774  -6.996  0.00  0.00    +0.047 A 
ATOM     15  C   UNL     1       9.014  -5.051  -6.609  0.00  0.00    +0.003 A 
ATOM     16  C   UNL     1       8.099  -4.624  -7.573  0.00  0.00    +0.010 A 
ATOM     17  C   UNL     1       8.317  -4.915  -8.890  0.00  0.00    +0.001 A 
ATOM     18  C   UNL     1       9.441  -5.631  -9.278  0.00  0.00    +0.002 A 
ATOM     19  C   UNL     1      10.360  -6.056  -8.343  0.00  0.00    +0.026 A 
ENDBRANCH   9  10
ENDBRANCH   6   9
ENDBRANCH   3   5
BRANCH   1  20
ATOM     20  C   UNL     1       2.790  -6.170  -1.678  0.00  0.00    +0.215 C 
BRANCH  20  24
ATOM     21  C   UNL     1       0.058  -4.275  -0.021  0.00  0.00    +0.135 C 
ATOM     22  C   UNL     1       0.763  -4.793  -1.260  0.00  0.00    +0.251 C 
ATOM     23  O   UNL     1       0.438  -4.617  -2.414  0.00  0.00    -0.272 OA
ATOM     24  N   UNL     1       1.825  -5.490  -0.810  0.00  0.00    -0.215 N 
ATOM     25  C   UNL     1       1.889  -5.485   0.526  0.00  0.00    +0.310 C 
ATOM     26  O   UNL     1       2.758  -6.046   1.163  0.00  0.00    -0.252 OA
ATOM     27  N   UNL     1       0.883  -4.789   1.086  0.00  0.00    -0.281 N 
ATOM     28  C   UNL     1      -1.365  -4.831   0.060  0.00  0.00    +0.047 C 
ATOM     29  H   UNL     1       0.606  -4.566   2.127  0.00  0.00    +0.152 HD
BRANCH  21  34
ATOM     30  C   UNL     1      -0.018   1.503   0.010  0.00  0.00    +0.044 C 
ATOM     31  C   UNL     1       0.002  -0.004   0.002  0.00  0.00    -0.050 A 
ATOM     32  C   UNL     1      -0.006  -0.689  -1.199  0.00  0.00    +0.004 A 
ATOM     33  C   UNL     1       0.018  -2.071  -1.206  0.00  0.00    +0.006 A 
ATOM     34  C   UNL     1       0.039  -2.768  -0.013  0.00  0.00    -0.015 A 
ATOM     35  C   UNL     1       0.041  -2.084   1.188  0.00  0.00    +0.006 A 
ATOM     36  C   UNL     1       0.023  -0.702   1.195  0.00  0.00    +0.004 A 
ENDBRANCH  21  34
ENDBRANCH  20  24
ENDBRANCH   1  20
TORSDOF 6
