REMARK  Name = ZINC09606531
REMARK  6 active torsions:
REMARK  status: ('A' for Active; 'I' for Inactive)
REMARK    1  A    between atoms: C_3  and  C_6
REMARK    2  A    between atoms: C_6  and  N_7
REMARK    3  A    between atoms: C_11  and  C_13
REMARK    4  A    between atoms: C_13  and  O_14
REMARK    5  A    between atoms: O_14  and  C_15
REMARK    6  A    between atoms: C_15  and  C_17
REMARK                            x       y       z     vdW  Elec       q    Type
REMARK                         _______ _______ _______ _____ _____    ______ ____
ROOT
ATOM      1  N   UNL     1      10.536   1.971  -0.088  0.00  0.00    -0.292 N 
ATOM      2  C   UNL     1       9.205   2.180  -0.074  0.00  0.00    +0.306 C 
ATOM      3  O   UNL     1       8.768   3.314  -0.064  0.00  0.00    -0.252 OA
ATOM      4  N   UNL     1       8.358   1.131  -0.072  0.00  0.00    -0.237 N 
ATOM      5  C   UNL     1       7.027   1.340  -0.058  0.00  0.00    +0.258 C 
ATOM      6  O   UNL     1       6.591   2.471  -0.048  0.00  0.00    -0.272 OA
ATOM      7  H   UNL     1      10.885   1.066  -0.096  0.00  0.00    +0.151 HD
ATOM      8  H   UNL     1       8.707   0.226  -0.080  0.00  0.00    +0.159 HD
ENDROOT
BRANCH   1   9
ATOM      9  C   UNL     1      11.457   3.111  -0.091  0.00  0.00    +0.180 C 
BRANCH   9  12
ATOM     10  C   UNL     1      14.874   1.905  -0.762  0.00  0.00    +0.041 A 
ATOM     11  C   UNL     1      13.609   2.353  -1.206  0.00  0.00    +0.046 A 
ATOM     12  C   UNL     1      12.878   2.609  -0.107  0.00  0.00    +0.122 A 
ATOM     13  O   UNL     1      13.631   2.347   0.974  0.00  0.00    -0.466 OA
ATOM     14  C   UNL     1      14.840   1.914   0.583  0.00  0.00    +0.195 A 
ENDBRANCH   9  12
ENDBRANCH   1   9
BRANCH   5  15
ATOM     15  C   UNL     1       6.080   0.168  -0.055  0.00  0.00    +0.328 C 
BRANCH  15  16
ATOM     16  O   UNL     1       4.733   0.644  -0.040  0.00  0.00    -0.451 OA
BRANCH  16  17
ATOM     17  C   UNL     1       3.755  -0.286  -0.035  0.00  0.00    +0.346 C 
ATOM     18  O   UNL     1       4.040  -1.468  -0.044  0.00  0.00    -0.244 OA
BRANCH  17  19
ATOM     19  C   UNL     1       2.352   0.129  -0.020  0.00  0.00    +0.097 A 
ATOM     20  C   UNL     1       1.208  -0.657  -0.013  0.00  0.00    +0.024 A 
ATOM     21  C   UNL     1       0.002  -0.004   0.002  0.00  0.00    +0.024 A 
ATOM     22  C   UNL     1      -0.016   1.357   0.009  0.00  0.00    +0.056 A 
ATOM     23  S   UNL     1       1.666   1.775  -0.004  0.00  0.00    -0.075 S 
ATOM     24 BR   UNL     1      -1.514   2.511   0.023  0.00  0.00    -0.043 Br
ENDBRANCH  17  19
ENDBRANCH  16  17
ENDBRANCH  15  16
ENDBRANCH   5  15
TORSDOF 6
