REMARK  Name = ZINC14544744
REMARK  2 active torsions:
REMARK  status: ('A' for Active; 'I' for Inactive)
REMARK    1  A    between atoms: C_7  and  C_11
REMARK    2  A    between atoms: C_21  and  N_28
REMARK                            x       y       z     vdW  Elec       q    Type
REMARK                         _______ _______ _______ _____ _____    ______ ____
ROOT
ATOM      1  C   UNL     1      -1.994   0.678  -1.449  0.00  0.00    +0.107 C 
ATOM      2  C   UNL     1      -0.861   1.680  -1.220  0.00  0.00    +0.029 C 
ATOM      3  C   UNL     1      -0.040   1.197   0.010  0.00  0.00    +0.033 C 
ATOM      4  C   UNL     1      -0.833   1.711   1.195  0.00  0.00    -0.030 C 
ATOM      5  C   UNL     1      -1.613   2.700   0.830  0.00  0.00    -0.023 C 
ATOM      6  C   UNL     1      -1.453   2.985  -0.646  0.00  0.00    +0.051 C 
ATOM      7  C   UNL     1      -2.772   3.316  -1.280  0.00  0.00    +0.014 A 
ATOM      8  C   UNL     1      -3.351   4.542  -0.975  0.00  0.00    +0.132 A 
ATOM      9  C   UNL     1      -4.564   4.903  -1.522  0.00  0.00    +0.036 A 
ATOM     10  C   UNL     1      -5.219   4.042  -2.385  0.00  0.00    +0.042 A 
ATOM     11  C   UNL     1      -4.652   2.822  -2.695  0.00  0.00    +0.145 A 
ATOM     12  C   UNL     1      -3.423   2.455  -2.144  0.00  0.00    +0.069 A 
ATOM     13  N   UNL     1      -2.893   1.212  -2.494  0.00  0.00    -0.334 N 
ATOM     14  F   UNL     1      -5.289   1.980  -3.538  0.00  0.00    -0.204 F 
ATOM     15  H   UNL     1      -3.627   0.553  -2.707  0.00  0.00    +0.147 HD
ENDROOT
BRANCH   1  22
ATOM     16  C   UNL     1      -1.409  -2.223   2.187  0.00  0.00    +0.001 A 
ATOM     17  C   UNL     1      -2.371  -2.054   3.173  0.00  0.00    +0.002 A 
ATOM     18  C   UNL     1      -3.366  -1.113   3.031  0.00  0.00    +0.026 A 
ATOM     19  C   UNL     1      -3.410  -0.321   1.888  0.00  0.00    +0.047 A 
ATOM     20  C   UNL     1      -2.433  -0.495   0.891  0.00  0.00    +0.005 A 
ATOM     21  C   UNL     1      -1.433  -1.456   1.056  0.00  0.00    +0.010 A 
ATOM     22  C   UNL     1      -2.751   0.472  -0.162  0.00  0.00    -0.002 A 
ATOM     23  C   UNL     1      -3.842   1.144   0.239  0.00  0.00    +0.089 A 
ATOM     24  N   UNL     1      -4.253   0.680   1.459  0.00  0.00    -0.360 N 
ATOM     25  H   UNL     1      -5.021   1.010   1.951  0.00  0.00    +0.165 HD
ENDBRANCH   1  22
BRANCH   8  26
ATOM     26  N   UNL     1      -2.659   5.470  -0.052  0.00  0.00    +0.057 N 
ATOM     27  O   UNL     1      -3.161   6.546   0.219  0.00  0.00    -0.126 OA
ATOM     28  O   UNL     1      -1.587   5.157   0.435  0.00  0.00    -0.126 OA
ENDBRANCH   8  26
TORSDOF 2
