REMARK  Name = ZINC32883920
REMARK  10 active torsions:
REMARK  status: ('A' for Active; 'I' for Inactive)
REMARK    1  A    between atoms: C_1  and  C_2
REMARK    2  A    between atoms: C_5  and  C_37
REMARK    3  A    between atoms: C_13  and  S_21
REMARK    4  A    between atoms: N_14  and  C_15
REMARK    5  A    between atoms: C_15  and  C_16
REMARK    6  A    between atoms: S_21  and  C_22
REMARK    7  A    between atoms: C_22  and  C_24
REMARK    8  A    between atoms: C_22  and  C_25
REMARK    9  A    between atoms: N_27  and  C_28
REMARK   10  A    between atoms: N_27  and  C_29
REMARK                            x       y       z     vdW  Elec       q    Type
REMARK                         _______ _______ _______ _____ _____    ______ ____
ROOT
ATOM      1  C   UNL     1       6.561   6.152  -2.682  0.00  0.00    +0.009 C 
ATOM      2  C   UNL     1       5.824   6.029  -1.346  0.00  0.00    +0.004 C 
ATOM      3  C   UNL     1       6.841   6.027  -0.200  0.00  0.00    +0.009 C 
ATOM      4  C   UNL     1       6.101   5.843   1.127  0.00  0.00    +0.004 C 
ATOM      5  C   UNL     1       5.297   4.542   1.083  0.00  0.00    +0.111 C 
ATOM      6  N   UNL     1       4.339   4.594  -0.029  0.00  0.00    -0.299 N 
ATOM      7  C   UNL     1       5.029   4.722  -1.319  0.00  0.00    +0.111 C 
ATOM      8  C   UNL     1       3.504   3.485  -0.019  0.00  0.00    +0.221 A 
ATOM      9  N   UNL     1       3.888   2.232  -0.022  0.00  0.00    -0.112 NA
ATOM     10  N   UNL     1       2.741   1.427  -0.004  0.00  0.00    -0.121 NA
ATOM     11  C   UNL     1       1.694   2.215   0.001  0.00  0.00    +0.194 A 
ATOM     12  N   UNL     1       2.138   3.508  -0.004  0.00  0.00    -0.283 N 
ATOM     13  C   UNL     1       5.151   7.022   1.350  0.00  0.00    +0.009 C 
ENDROOT
BRANCH  12  14
ATOM     14  C   UNL     1       1.297   4.707   0.003  0.00  0.00    +0.201 C 
BRANCH  14  15
ATOM     15  C   UNL     1       0.916   5.044   1.422  0.00  0.00    +0.125 A 
ATOM     16  C   UNL     1       1.610   5.840   2.255  0.00  0.00    +0.046 A 
ATOM     17  C   UNL     1       0.894   5.880   3.474  0.00  0.00    +0.041 A 
ATOM     18  C   UNL     1      -0.191   5.100   3.315  0.00  0.00    +0.195 A 
ATOM     19  O   UNL     1      -0.172   4.597   2.070  0.00  0.00    -0.466 OA
ENDBRANCH  14  15
ENDBRANCH  12  14
BRANCH  11  20
ATOM     20  S   UNL     1       0.009   1.699   0.020  0.00  0.00    -0.073 S 
BRANCH  20  21
ATOM     21  C   UNL     1       0.105  -0.112   0.021  0.00  0.00    +0.137 C 
ATOM     22  C   UNL     1       0.755  -0.588   1.321  0.00  0.00    +0.029 C 
BRANCH  21  23
ATOM     23  C   UNL     1      -1.283  -0.689  -0.088  0.00  0.00    +0.229 C 
ATOM     24  O   UNL     1      -2.246  -0.011   0.202  0.00  0.00    -0.274 OA
ATOM     25  N   UNL     1      -1.455  -1.959  -0.506  0.00  0.00    -0.299 N 
ATOM     26  C   UNL     1      -0.292  -2.778  -0.855  0.00  0.00    +0.132 C 
BRANCH  25  27
ATOM     27  C   UNL     1      -2.804  -2.519  -0.611  0.00  0.00    +0.098 C 
ATOM     28  C   UNL     1      -2.920  -3.765   0.283  0.00  0.00    +0.046 C 
ATOM     29  C   UNL     1      -4.214  -4.542  -0.060  0.00  0.00    +0.168 C 
ATOM     30  S   UNL     1      -4.482  -4.120  -1.830  0.00  0.00    -0.029 S 
ATOM     31  O   UNL     1      -5.706  -3.410  -1.956  0.00  0.00    -0.174 OA
ATOM     32  O   UNL     1      -4.262  -5.280  -2.620  0.00  0.00    -0.174 OA
ATOM     33  C   UNL     1      -3.081  -2.950  -2.080  0.00  0.00    +0.188 C 
ENDBRANCH  25  27
ENDBRANCH  21  23
ENDBRANCH  20  21
ENDBRANCH  11  20
TORSDOF 6
