REMARK  Name = ZINC48809387
REMARK  11 active torsions:
REMARK  status: ('A' for Active; 'I' for Inactive)
REMARK    1  A    between atoms: C_1  and  C_2
REMARK    2  A    between atoms: N_8  and  C_9
REMARK    3  A    between atoms: C_9  and  C_10
REMARK    4  A    between atoms: C_13  and  C_16
REMARK    5  A    between atoms: C_16  and  N_17
REMARK    6  A    between atoms: N_20  and  C_21
REMARK    7  A    between atoms: C_21  and  C_22
REMARK    8  A    between atoms: C_22  and  C_23
REMARK    9  A    between atoms: C_23  and  N_24
REMARK   10  A    between atoms: N_24  and  S_25
REMARK   11  A    between atoms: S_25  and  C_28
REMARK                            x       y       z     vdW  Elec       q    Type
REMARK                         _______ _______ _______ _____ _____    ______ ____
ROOT
ATOM      1  C   UNL     1       3.126  -1.471   7.059  0.00  0.00    +0.141 C 
ENDROOT
BRANCH   1   5
ATOM      2  C   UNL     1       0.865  -0.347   3.613  0.00  0.00    -0.064 A 
ATOM      3  C   UNL     1       0.585  -1.532   4.268  0.00  0.00    +0.002 A 
ATOM      4  C   UNL     1       1.316  -1.895   5.383  0.00  0.00    +0.005 A 
ATOM      5  C   UNL     1       2.329  -1.075   5.843  0.00  0.00    -0.030 A 
ATOM      6  C   UNL     1       2.610   0.110   5.187  0.00  0.00    +0.005 A 
ATOM      7  C   UNL     1       1.881   0.471   4.070  0.00  0.00    +0.002 A 
BRANCH   2   8
ATOM      8  C   UNL     1       0.067   0.050   2.397  0.00  0.00    -0.043 C 
BRANCH   8  15
ATOM      9  C   UNL     1      -0.019   1.526   0.010  0.00  0.00    -0.013 C 
ATOM     10  C   UNL     1       0.002  -0.004   0.002  0.00  0.00    -0.071 C 
ATOM     11  C   UNL     1       0.717  -0.497  -1.258  0.00  0.00    -0.016 C 
ATOM     12  C   UNL     1       0.735  -2.028  -1.262  0.00  0.00    -0.003 C 
ATOM     13  C   UNL     1       1.410  -2.524   0.020  0.00  0.00    -0.019 C 
ATOM     14  C   UNL     1       0.669  -1.956   1.232  0.00  0.00    -0.078 C 
ATOM     15  N   UNL     1       0.711  -0.490   1.192  0.00  0.00    +0.384 N 
ATOM     16  H   UNL     1       1.671  -0.182   1.159  0.00  0.00    -0.081 HD
ENDBRANCH   8  15
ENDBRANCH   2   8
ENDBRANCH   1   5
BRANCH   1  17
ATOM     17  N   UNL     1       4.288  -2.261   6.645  0.00  0.00    -0.295 N 
ATOM     18  C   UNL     1       5.150  -2.728   7.570  0.00  0.00    +0.300 C 
ATOM     19  O   UNL     1       4.963  -2.492   8.748  0.00  0.00    -0.253 OA
ATOM     20  N   UNL     1       6.219  -3.455   7.189  0.00  0.00    -0.299 N 
ATOM     21  H   UNL     1       4.437  -2.449   5.705  0.00  0.00    +0.151 HD
ATOM     22  H   UNL     1       6.368  -3.642   6.249  0.00  0.00    +0.150 HD
BRANCH  20  23
ATOM     23  C   UNL     1       7.156  -3.962   8.195  0.00  0.00    +0.107 C 
BRANCH  23  24
ATOM     24  C   UNL     1       8.271  -4.749   7.502  0.00  0.00    +0.035 C 
BRANCH  24  25
ATOM     25  C   UNL     1       9.249  -5.278   8.553  0.00  0.00    +0.107 C 
BRANCH  25  26
ATOM     26  N   UNL     1      10.316  -6.032   7.890  0.00  0.00    -0.195 NA
ATOM     27  H   UNL     1      10.211  -6.313   6.968  0.00  0.00    +0.148 HD
BRANCH  26  28
ATOM     28  S   UNL     1      11.703  -6.403   8.715  0.00  0.00    +0.027 S 
ATOM     29  O   UNL     1      12.508  -7.101   7.775  0.00  0.00    -0.158 OA
ATOM     30  O   UNL     1      12.139  -5.168   9.266  0.00  0.00    -0.158 OA
ATOM     31  C   UNL     1      11.172  -7.525  10.038  0.00  0.00    +0.214 C 
ENDBRANCH  26  28
ENDBRANCH  25  26
ENDBRANCH  24  25
ENDBRANCH  23  24
ENDBRANCH  20  23
ENDBRANCH   1  17
TORSDOF 9
