REMARK  Name = ZINC08770184
REMARK  16 active torsions:
REMARK  status: ('A' for Active; 'I' for Inactive)
REMARK    1  A    between atoms: C_1  and  C_2
REMARK    2  A    between atoms: C_2  and  C_3
REMARK    3  A    between atoms: C_3  and  O_5
REMARK    4  A    between atoms: O_5  and  C_6
REMARK    5  A    between atoms: C_10  and  C_45
REMARK    6  A    between atoms: C_15  and  C_44
REMARK    7  A    between atoms: C_25  and  C_42
REMARK    8  A    between atoms: C_28  and  C_41
REMARK    9  A    between atoms: C_29  and  C_31
REMARK   10  A    between atoms: C_31  and  C_32
REMARK   11  A    between atoms: C_32  and  C_33
REMARK   12  A    between atoms: C_33  and  C_35
REMARK   13  A    between atoms: C_33  and  C_36
REMARK   14  A    between atoms: C_36  and  N_37
REMARK   15  A    between atoms: C_38  and  C_40
REMARK   16  A    between atoms: C_42  and  C_43
REMARK                            x       y       z     vdW  Elec       q    Type
REMARK                         _______ _______ _______ _____ _____    ______ ____
ROOT
ATOM      1  C   UNL     1      -2.331  -4.726   7.036  0.00  0.00    +0.180 C 
ATOM      2  C   UNL     1      -1.325  -5.438   6.129  0.00  0.00    +0.046 C 
ATOM      3  C   UNL     1      -0.657  -4.406   5.224  0.00  0.00    +0.015 C 
ATOM      4  C   UNL     1      -1.679  -3.735   4.303  0.00  0.00    -0.008 C 
ATOM      5  C   UNL     1      -0.983  -2.595   3.561  0.00  0.00    +0.003 C 
ATOM      6  C   UNL     1       0.088  -1.943   4.423  0.00  0.00    +0.005 C 
ATOM      7  C   UNL     1       0.817  -0.807   3.683  0.00  0.00    +0.008 C 
ATOM      8  C   UNL     1      -0.219   0.188   3.233  0.00  0.00    -0.019 C 
ATOM      9  C   UNL     1      -1.196  -0.517   2.251  0.00  0.00    +0.003 C 
ATOM     10  C   UNL     1      -1.962  -1.633   2.901  0.00  0.00    +0.000 C 
ATOM     11  C   UNL     1      -3.167  -1.237   3.703  0.00  0.00    +0.031 C 
ATOM     12  C   UNL     1      -3.522  -2.188   4.794  0.00  0.00    -0.027 C 
ATOM     13  C   UNL     1      -2.887  -3.293   5.064  0.00  0.00    -0.064 C 
ATOM     14  C   UNL     1      -3.455  -4.149   6.179  0.00  0.00    +0.075 C 
ATOM     15  C   UNL     1      -1.984   0.686   1.664  0.00  0.00    +0.053 C 
ATOM     16  C   UNL     1      -0.770   1.545   1.254  0.00  0.00    +0.117 C 
ATOM     17  C   UNL     1       0.067   1.464   2.599  0.00  0.00    +0.068 C 
ATOM     18  C   UNL     1       1.131   2.402   2.291  0.00  0.00    -0.028 C 
ATOM     19  C   UNL     1       0.501   3.319   1.521  0.00  0.00    +0.098 C 
ATOM     20  O   UNL     1      -0.830   2.977   1.315  0.00  0.00    -0.489 OA
ATOM     21  C   UNL     1       2.571   2.382   2.732  0.00  0.00    +0.043 C 
ATOM     22  C   UNL     1      -0.967   0.609   4.494  0.00  0.00    +0.012 C 
ATOM     23  C   UNL     1      -2.122  -4.768   3.255  0.00  0.00    +0.016 C 
ENDROOT
BRANCH  16  24
ATOM     24  C   UNL     1      -0.052   1.051  -0.004  0.00  0.00    +0.045 C 
ATOM     25  C   UNL     1      -0.810   1.528  -1.244  0.00  0.00    +0.008 C 
ENDBRANCH  16  24
BRANCH   1  26
ATOM     26  O   UNL     1      -1.669  -3.661   7.765  0.00  0.00    -0.461 OA
BRANCH  26  27
ATOM     27  C   UNL     1      -2.156  -3.357   8.978  0.00  0.00    +0.307 C 
ATOM     28  O   UNL     1      -3.106  -3.963   9.416  0.00  0.00    -0.251 OA
BRANCH  27  30
ATOM     29  C   UNL     1      -2.261  -2.120  11.125  0.00  0.00    +0.015 C 
ATOM     30  C   UNL     1      -1.519  -2.262   9.794  0.00  0.00    +0.117 C 
ENDBRANCH  27  30
ENDBRANCH  26  27
ENDBRANCH   1  26
BRANCH  19  31
ATOM     31  C   UNL     1       1.159   4.553   0.961  0.00  0.00    +0.074 C 
BRANCH  31  32
ATOM     32  C   UNL     1       1.644   4.271  -0.463  0.00  0.00    +0.012 C 
BRANCH  32  33
ATOM     33  C   UNL     1       2.312   5.525  -1.031  0.00  0.00    +0.003 C 
ATOM     34  C   UNL     1       3.575   5.839  -0.228  0.00  0.00    +0.009 C 
BRANCH  33  35
ATOM     35  C   UNL     1       2.685   5.284  -2.495  0.00  0.00    +0.107 C 
BRANCH  35  36
ATOM     36  N   UNL     1       3.215   6.521  -3.074  0.00  0.00    -0.315 N 
ATOM     37  C   UNL     1       3.611   6.547  -4.362  0.00  0.00    +0.210 C 
ATOM     38  O   UNL     1       3.529   5.546  -5.042  0.00  0.00    -0.276 OA
ATOM     39  C   UNL     1       4.156   7.820  -4.957  0.00  0.00    +0.109 C 
ATOM     40  H   UNL     1       3.280   7.322  -2.530  0.00  0.00    +0.149 HD
ENDBRANCH  35  36
ENDBRANCH  33  35
ENDBRANCH  32  33
ENDBRANCH  31  32
ENDBRANCH  19  31
TORSDOF 9
