REMARK  Name = ZINC12036259
REMARK  10 active torsions:
REMARK  status: ('A' for Active; 'I' for Inactive)
REMARK    1  A    between atoms: C_1  and  C_2
REMARK    2  A    between atoms: C_2  and  C_3
REMARK    3  A    between atoms: C_3  and  C_4
REMARK    4  A    between atoms: C_4  and  C_19
REMARK    5  A    between atoms: N_7  and  C_11
REMARK    6  A    between atoms: C_11  and  C_12
REMARK    7  A    between atoms: C_12  and  C_13
REMARK    8  A    between atoms: C_18  and  N_71
REMARK    9  A    between atoms: C_25  and  C_27
REMARK   10  A    between atoms: C_27  and  C_28
REMARK                            x       y       z     vdW  Elec       q    Type
REMARK                         _______ _______ _______ _____ _____    ______ ____
ROOT
ATOM      1  C   UNL     1      -1.091  -2.005  -0.730  0.00  0.00    +0.115 C 
ATOM      2  C   UNL     1      -1.360  -0.516  -0.808  0.00  0.00    +0.247 C 
ATOM      3  O   UNL     1      -2.334   0.029  -1.282  0.00  0.00    -0.273 OA
ATOM      4  N   UNL     1      -0.291   0.078  -0.241  0.00  0.00    -0.224 N 
ATOM      5  C   UNL     1       0.609  -0.820   0.176  0.00  0.00    +0.309 C 
ATOM      6  O   UNL     1       1.658  -0.526   0.715  0.00  0.00    -0.252 OA
ATOM      7  N   UNL     1       0.221  -2.086  -0.065  0.00  0.00    -0.285 N 
ATOM      8  H   UNL     1       0.712  -2.894   0.152  0.00  0.00    +0.151 HD
ENDROOT
BRANCH   1   9
ATOM      9  C   UNL     1      -1.023  -2.615  -2.131  0.00  0.00    +0.024 C 
ATOM     10  C   UNL     1      -0.734  -4.114  -2.022  0.00  0.00    +0.025 C 
ATOM     11  C   UNL     1      -0.702  -4.727  -3.426  0.00  0.00    +0.108 C 
ATOM     12  N   UNL     1       0.267  -3.984  -4.244  0.00  0.00    -0.301 N 
ATOM     13  C   UNL     1       0.136  -2.524  -4.343  0.00  0.00    +0.108 C 
ATOM     14  C   UNL     1       0.093  -1.936  -2.929  0.00  0.00    +0.025 C 
ATOM     15  C   UNL     1       1.258  -4.630  -4.890  0.00  0.00    +0.220 C 
ATOM     16  O   UNL     1       2.051  -4.005  -5.562  0.00  0.00    -0.275 OA
BRANCH  15  17
ATOM     17  C   UNL     1       1.380  -6.128  -4.779  0.00  0.00    +0.136 C 
BRANCH  17  18
ATOM     18  C   UNL     1       2.560  -6.597  -5.589  0.00  0.00    +0.032 A 
ATOM     19  C   UNL     1       2.393  -6.947  -6.918  0.00  0.00    +0.130 A 
ATOM     20  C   UNL     1       3.479  -7.374  -7.663  0.00  0.00    +0.039 A 
ATOM     21  C   UNL     1       4.728  -7.460  -7.078  0.00  0.00    +0.006 A 
ATOM     22  C   UNL     1       4.896  -7.116  -5.750  0.00  0.00    +0.039 A 
ATOM     23  C   UNL     1       3.812  -6.684  -5.004  0.00  0.00    +0.130 A 
ATOM     24  F   UNL     1       3.976  -6.348  -3.706  0.00  0.00    -0.205 F 
ATOM     25  F   UNL     1       1.171  -6.869  -7.489  0.00  0.00    -0.205 F 
ENDBRANCH  17  18
ENDBRANCH  15  17
ENDBRANCH   1   9
BRANCH   1  26
ATOM     26  C   UNL     1      -2.165  -2.703   0.107  0.00  0.00    +0.035 C 
BRANCH  26  28
ATOM     27  C   UNL     1      -3.251  -2.809   2.355  0.00  0.00    +0.004 C 
ATOM     28  C   UNL     1      -2.176  -2.112   1.518  0.00  0.00    -0.001 C 
ENDBRANCH  26  28
ENDBRANCH   1  26
BRANCH   4  29
ATOM     29  C   UNL     1      -0.131   1.528  -0.104  0.00  0.00    +0.116 C 
BRANCH  29  30
ATOM     30  C   UNL     1      -0.729   1.983   1.228  0.00  0.00    +0.004 C 
BRANCH  30  31
ATOM     31  C   UNL     1      -0.644   3.507   1.332  0.00  0.00    -0.068 C 
ATOM     32  C   UNL     1       0.831   3.961   1.394  0.00  0.00    -0.017 C 
ATOM     33  C   UNL     1       0.844   5.147   2.379  0.00  0.00    -0.020 C 
ATOM     34  C   UNL     1      -0.624   5.311   2.830  0.00  0.00    -0.079 C 
ATOM     35  C   UNL     1      -2.698   4.072   2.510  0.00  0.00    -0.096 C 
ATOM     36  N   UNL     1      -1.205   3.990   2.598  0.00  0.00    +0.380 N 
ATOM     37  H   UNL     1      -0.947   3.354   3.362  0.00  0.00    -0.082 HD
ENDBRANCH  30  31
ENDBRANCH  29  30
ENDBRANCH   4  29
TORSDOF 8
