REMARK  Name = ZINC63467914
REMARK  8 active torsions:
REMARK  status: ('A' for Active; 'I' for Inactive)
REMARK    1  A    between atoms: C_1  and  C_2
REMARK    2  A    between atoms: C_10  and  O_13
REMARK    3  A    between atoms: O_13  and  C_14
REMARK    4  A    between atoms: N_18  and  C_19
REMARK    5  A    between atoms: C_23  and  C_25
REMARK    6  A    between atoms: N_27  and  C_28
REMARK    7  A    between atoms: C_28  and  C_29
REMARK    8  A    between atoms: C_29  and  C_30
REMARK                            x       y       z     vdW  Elec       q    Type
REMARK                         _______ _______ _______ _____ _____    ______ ____
ROOT
ATOM      1  C   UNL     1       1.698   0.080  -1.858  0.00  0.00    +0.042 A 
ATOM      2  C   UNL     1       2.321   1.128  -1.190  0.00  0.00    +0.024 A 
ATOM      3  C   UNL     1       3.410   1.763  -1.756  0.00  0.00    +0.003 A 
ATOM      4  C   UNL     1       3.886   1.362  -2.988  0.00  0.00    +0.013 A 
ATOM      5  C   UNL     1       3.267   0.311  -3.666  0.00  0.00    +0.038 A 
ATOM      6  C   UNL     1       2.171  -0.334  -3.093  0.00  0.00    +0.036 A 
ENDROOT
BRANCH   1  21
ATOM      7  C   UNL     1      -0.841   0.609  -2.870  0.00  0.00    +0.079 C 
ATOM      8  C   UNL     1      -0.734   0.016  -1.463  0.00  0.00    +0.185 C 
ATOM      9  C   UNL     1      -1.788  -1.088  -1.294  0.00  0.00    +0.096 C 
ATOM     10  C   UNL     1      -1.543  -1.730   0.081  0.00  0.00    +0.114 C 
ATOM     11  C   UNL     1      -1.568  -0.637   1.126  0.00  0.00    +0.018 A 
ATOM     12  C   UNL     1      -1.867  -0.969   2.436  0.00  0.00    +0.009 A 
ATOM     13  C   UNL     1      -1.892   0.007   3.414  0.00  0.00    +0.004 A 
ATOM     14  C   UNL     1      -1.615   1.321   3.085  0.00  0.00    +0.049 A 
ATOM     15  C   UNL     1      -1.317   1.659   1.776  0.00  0.00    +0.162 A 
ATOM     16  C   UNL     1      -1.295   0.674   0.787  0.00  0.00    +0.170 A 
ATOM     17  O   UNL     1      -0.983   1.036  -0.500  0.00  0.00    -0.464 OA
ATOM     18  N   UNL     1      -0.192  -2.315   0.064  0.00  0.00    -0.292 N 
ATOM     19  C   UNL     1       0.800  -1.682  -0.584  0.00  0.00    +0.310 C 
ATOM     20  O   UNL     1       1.923  -2.146  -0.534  0.00  0.00    -0.252 OA
ATOM     21  N   UNL     1       0.595  -0.560  -1.280  0.00  0.00    -0.216 N 
ATOM     22  H   UNL     1      -0.019  -3.154   0.519  0.00  0.00    +0.151 HD
BRANCH  15  23
ATOM     23  O   UNL     1      -1.045   2.952   1.454  0.00  0.00    -0.491 OA
ATOM     24  C   UNL     1      -1.085   3.907   2.516  0.00  0.00    +0.277 C 
ENDBRANCH  15  23
ENDBRANCH   1  21
BRANCH   5  25
ATOM     25  C   UNL     1       3.774  -0.121  -4.986  0.00  0.00    +0.244 C 
ATOM     26  O   UNL     1       3.233  -1.037  -5.575  0.00  0.00    -0.270 OA
ATOM     27  N   UNL     1       4.836   0.500  -5.536  0.00  0.00    -0.311 N 
ATOM     28  H   UNL     1       5.268   1.230  -5.066  0.00  0.00    +0.149 HD
BRANCH  27  29
ATOM     29  C   UNL     1       5.339   0.072  -6.844  0.00  0.00    +0.109 C 
BRANCH  29  30
ATOM     30  C   UNL     1       6.540   0.934  -7.236  0.00  0.00    +0.052 C 
BRANCH  30  31
ATOM     31  C   UNL     1       7.058   0.493  -8.581  0.00  0.00    -0.040 C 
ATOM     32  C   UNL     1       6.748   1.026  -9.785  0.00  0.00    -0.001 A 
ATOM     33  C   UNL     1       5.870   2.131 -10.188  0.00  0.00    +0.010 A 
ATOM     34  C   UNL     1       5.760   2.437 -11.501  0.00  0.00    +0.001 A 
ATOM     35  C   UNL     1       6.462   1.726 -12.484  0.00  0.00    +0.002 A 
ATOM     36  C   UNL     1       7.288   0.699 -12.192  0.00  0.00    +0.026 A 
ATOM     37  C   UNL     1       7.479   0.291 -10.843  0.00  0.00    +0.043 A 
ATOM     38  N   UNL     1       8.211  -0.658 -10.313  0.00  0.00    -0.380 N 
ATOM     39  C   UNL     1       8.033  -0.629  -8.857  0.00  0.00    +0.144 C 
ATOM     40  H   UNL     1       8.780  -1.274 -10.802  0.00  0.00    +0.160 HD
ENDBRANCH  30  31
ENDBRANCH  29  30
ENDBRANCH  27  29
ENDBRANCH   5  25
TORSDOF 6
