REMARK  Name = ZINC33263115
REMARK  11 active torsions:
REMARK  status: ('A' for Active; 'I' for Inactive)
REMARK    1  A    between atoms: C_1  and  C_2
REMARK    2  A    between atoms: C_2  and  C_3
REMARK    3  A    between atoms: C_3  and  N_4
REMARK    4  A    between atoms: C_8  and  S_13
REMARK    5  A    between atoms: S_13  and  N_16
REMARK    6  A    between atoms: C_21  and  C_23
REMARK    7  A    between atoms: N_25  and  C_26
REMARK    8  A    between atoms: C_26  and  C_27
REMARK    9  A    between atoms: C_30  and  N_33
REMARK   10  A    between atoms: N_33  and  C_34
REMARK   11  A    between atoms: N_33  and  C_35
REMARK                            x       y       z     vdW  Elec       q    Type
REMARK                         _______ _______ _______ _____ _____    ______ ____
ROOT
ATOM      1  N   UNL     1       1.265  -6.725  -2.846  0.00  0.00    -0.165 NA
ATOM      2  C   UNL     1       1.150  -7.975  -3.609  0.00  0.00    +0.110 C 
ATOM      3  C   UNL     1      -0.085  -7.890  -4.512  0.00  0.00    +0.017 C 
ATOM      4  C   UNL     1       0.007  -6.631  -5.378  0.00  0.00    +0.003 C 
ATOM      5  C   UNL     1       0.036  -5.393  -4.480  0.00  0.00    +0.030 C 
ATOM      6  C   UNL     1       1.272  -5.450  -3.577  0.00  0.00    +0.165 C 
ENDROOT
BRANCH   6   7
ATOM      7  C   UNL     1       1.235  -4.306  -2.597  0.00  0.00    +0.232 C 
ATOM      8  O   UNL     1       0.305  -4.198  -1.826  0.00  0.00    -0.274 OA
ATOM      9  N   UNL     1       2.235  -3.403  -2.577  0.00  0.00    -0.310 N 
ATOM     10  H   UNL     1       3.079  -3.501  -3.276  0.00  0.00    +0.149 HD
BRANCH   9  11
ATOM     11  C   UNL     1       2.199  -2.291  -1.624  0.00  0.00    +0.139 C 
BRANCH  11  12
ATOM     12  C   UNL     1       3.424  -1.433  -1.806  0.00  0.00    -0.030 A 
ATOM     13  C   UNL     1       3.398  -0.371  -2.692  0.00  0.00    +0.007 A 
ATOM     14  C   UNL     1       4.519   0.417  -2.862  0.00  0.00    +0.023 A 
ATOM     15  C   UNL     1       5.674   0.143  -2.142  0.00  0.00    +0.029 A 
ATOM     16  C   UNL     1       5.697  -0.924  -1.252  0.00  0.00    +0.023 A 
ATOM     17  C   UNL     1       4.573  -1.708  -1.087  0.00  0.00    +0.007 A 
BRANCH  15  18
ATOM     18  N   UNL     1       6.810   0.938  -2.311  0.00  0.00    -0.336 N 
ATOM     19  C   UNL     1       6.801   2.029  -3.288  0.00  0.00    +0.129 C 
ATOM     20  C   UNL     1       8.010   0.681  -1.511  0.00  0.00    +0.129 C 
ENDBRANCH  15  18
ENDBRANCH  11  12
ENDBRANCH   9  11
ENDBRANCH   6   7
BRANCH   1  21
ATOM     21  S   UNL     1       1.385  -6.752  -1.195  0.00  0.00    +0.062 S 
ATOM     22  O   UNL     1       1.879  -8.037  -0.845  0.00  0.00    -0.153 OA
ATOM     23  O   UNL     1       2.048  -5.553  -0.816  0.00  0.00    -0.153 OA
BRANCH  21  28
ATOM     24  N   UNL     1      -4.008  -6.150   1.046  0.00  0.00    -0.244 N 
ATOM     25  C   UNL     1      -2.826  -6.517   0.446  0.00  0.00    +0.089 A 
ATOM     26  C   UNL     1      -2.401  -7.652  -0.235  0.00  0.00    +0.031 A 
ATOM     27  C   UNL     1      -1.127  -7.712  -0.727  0.00  0.00    +0.031 A 
ATOM     28  C   UNL     1      -0.252  -6.647  -0.552  0.00  0.00    +0.108 A 
ATOM     29  C   UNL     1      -0.643  -5.525   0.117  0.00  0.00    +0.060 A 
ATOM     30  C   UNL     1      -1.946  -5.436   0.626  0.00  0.00    +0.115 A 
ATOM     31  N   UNL     1      -2.606  -4.480   1.309  0.00  0.00    -0.129 NA
ATOM     32  N   UNL     1      -3.806  -4.863   1.568  0.00  0.00    -0.065 NA
BRANCH  24  33
ATOM     33  C   UNL     1      -5.235  -6.945   1.125  0.00  0.00    +0.145 C 
BRANCH  33  35
ATOM     34  C   UNL     1      -6.493  -8.628   2.477  0.00  0.00    +0.005 C 
ATOM     35  C   UNL     1      -5.210  -7.798   2.395  0.00  0.00    +0.020 C 
ENDBRANCH  33  35
ENDBRANCH  24  33
ENDBRANCH  21  28
ENDBRANCH   1  21
TORSDOF 8
