REMARK  Name = ZINC38660611
REMARK  16 active torsions:
REMARK  status: ('A' for Active; 'I' for Inactive)
REMARK    1  A    between atoms: C_1  and  C_2
REMARK    2  A    between atoms: C_2  and  C_3
REMARK    3  A    between atoms: C_3  and  O_4
REMARK    4  A    between atoms: O_4  and  C_5
REMARK    5  A    between atoms: C_9  and  C_11
REMARK    6  A    between atoms: C_11  and  O_13
REMARK    7  A    between atoms: O_13  and  C_14
REMARK    8  A    between atoms: C_21  and  N_39
REMARK    9  A    between atoms: C_22  and  C_37
REMARK   10  A    between atoms: C_23  and  C_25
REMARK   11  A    between atoms: C_27  and  O_35
REMARK   12  A    between atoms: C_28  and  O_33
REMARK   13  A    between atoms: C_29  and  O_31
REMARK   14  A    between atoms: O_31  and  C_32
REMARK   15  A    between atoms: O_33  and  C_34
REMARK   16  A    between atoms: O_35  and  C_36
REMARK                            x       y       z     vdW  Elec       q    Type
REMARK                         _______ _______ _______ _____ _____    ______ ____
ROOT
ATOM      1  C   UNL     1      -5.280  -8.077  -0.007  0.00  0.00    +0.135 A 
ATOM      2  C   UNL     1      -4.141  -8.870   0.026  0.00  0.00    +0.047 A 
ATOM      3  C   UNL     1      -4.256 -10.245  -0.009  0.00  0.00    +0.012 A 
ATOM      4  C   UNL     1      -5.504 -10.838  -0.078  0.00  0.00    +0.008 A 
ATOM      5  C   UNL     1      -6.645 -10.052  -0.111  0.00  0.00    +0.138 A 
ATOM      6  C   UNL     1      -6.531  -8.668  -0.070  0.00  0.00    +0.093 A 
ATOM      7  O   UNL     1      -7.877 -10.615  -0.178  0.00  0.00    -0.441 OA
ATOM      8  C   UNL     1      -8.011 -11.885  -0.595  0.00  0.00    +0.199 C 
ATOM      9  C   UNL     1      -6.973 -12.754  -0.590  0.00  0.00    +0.098 C 
ATOM     10  C   UNL     1      -5.609 -12.340  -0.115  0.00  0.00    +0.098 C 
ENDROOT
BRANCH  10  11
ATOM     11  C   UNL     1      -5.373 -12.892   1.268  0.00  0.00    -0.028 A 
ATOM     12  C   UNL     1      -6.208 -12.526   2.307  0.00  0.00    +0.054 A 
ATOM     13  C   UNL     1      -5.995 -13.031   3.581  0.00  0.00    +0.165 A 
ATOM     14  C   UNL     1      -4.940 -13.905   3.812  0.00  0.00    +0.204 A 
ATOM     15  C   UNL     1      -4.103 -14.271   2.764  0.00  0.00    +0.165 A 
ATOM     16  C   UNL     1      -4.327 -13.766   1.492  0.00  0.00    +0.054 A 
BRANCH  15  17
ATOM     17  O   UNL     1      -3.069 -15.127   2.985  0.00  0.00    -0.491 OA
ATOM     18  C   UNL     1      -2.250 -15.458   1.862  0.00  0.00    +0.277 C 
ENDBRANCH  15  17
BRANCH  14  19
ATOM     19  O   UNL     1      -4.727 -14.403   5.060  0.00  0.00    -0.488 OA
ATOM     20  C   UNL     1      -5.386 -15.626   5.393  0.00  0.00    +0.277 C 
ENDBRANCH  14  19
BRANCH  13  21
ATOM     21  O   UNL     1      -6.816 -12.670   4.603  0.00  0.00    -0.491 OA
ATOM     22  C   UNL     1      -7.879 -11.767   4.293  0.00  0.00    +0.277 C 
ENDBRANCH  13  21
ENDBRANCH  10  11
BRANCH   8  23
ATOM     23  N   UNL     1      -9.238 -12.314  -1.037  0.00  0.00    -0.328 N 
ATOM     24  H   UNL     1      -9.991 -11.703  -1.046  0.00  0.00    +0.145 HD
ATOM     25  H   UNL     1      -9.351 -13.228  -1.341  0.00  0.00    +0.145 HD
ENDBRANCH   8  23
BRANCH   9  26
ATOM     26  C   UNL     1      -7.180 -14.095  -1.048  0.00  0.00    +0.101 C 
ATOM     27  N   UNL     1      -7.343 -15.159  -1.410  0.00  0.00    -0.191 NA
ENDBRANCH   9  26
BRANCH   1  28
ATOM     28  O   UNL     1      -5.168  -6.723   0.028  0.00  0.00    -0.422 OA
BRANCH  28  29
ATOM     29  C   UNL     1      -4.801  -6.089  -1.104  0.00  0.00    +0.345 C 
ATOM     30  O   UNL     1      -4.496  -6.732  -2.088  0.00  0.00    -0.245 OA
BRANCH  29  35
ATOM     31  C   UNL     1      -4.366  -2.571  -2.351  0.00  0.00    +0.121 A 
ATOM     32  C   UNL     1      -4.717  -1.842  -1.222  0.00  0.00    +0.046 A 
ATOM     33  C   UNL     1      -5.093  -2.493  -0.062  0.00  0.00    +0.004 A 
ATOM     34  C   UNL     1      -5.122  -3.872  -0.017  0.00  0.00    +0.015 A 
ATOM     35  C   UNL     1      -4.771  -4.613  -1.147  0.00  0.00    +0.063 A 
ATOM     36  C   UNL     1      -4.397  -3.954  -2.320  0.00  0.00    +0.060 A 
BRANCH  31  37
ATOM     37  O   UNL     1      -3.997  -1.925  -3.488  0.00  0.00    -0.492 OA
BRANCH  37  38
ATOM     38  C   UNL     1      -3.988  -0.496  -3.450  0.00  0.00    +0.229 C 
BRANCH  38  40
ATOM     39  C   UNL     1      -3.539   1.577  -4.770  0.00  0.00    +0.007 C 
ATOM     40  C   UNL     1      -3.550   0.048  -4.811  0.00  0.00    +0.038 C 
ENDBRANCH  38  40
ENDBRANCH  37  38
ENDBRANCH  31  37
ENDBRANCH  29  35
ENDBRANCH  28  29
ENDBRANCH   1  28
TORSDOF 12
