REMARK  Name = ZINC38576967
REMARK  8 active torsions:
REMARK  status: ('A' for Active; 'I' for Inactive)
REMARK    1  A    between atoms: C_1  and  C_2
REMARK    2  A    between atoms: C_4  and  C_34
REMARK    3  A    between atoms: C_5  and  O_33
REMARK    4  A    between atoms: C_6  and  C_8
REMARK    5  A    between atoms: C_11  and  C_13
REMARK    6  A    between atoms: N_15  and  C_16
REMARK    7  A    between atoms: C_18  and  C_29
REMARK    8  A    between atoms: N_31  and  C_32
REMARK                            x       y       z     vdW  Elec       q    Type
REMARK                         _______ _______ _______ _____ _____    ______ ____
ROOT
ATOM      1  C   UNL     1       0.075  -3.645   6.157  0.00  0.00    +0.261 C 
ATOM      2  O   UNL     1       0.058  -2.637   6.838  0.00  0.00    -0.269 OA
ATOM      3  N   UNL     1       0.098  -4.857   6.747  0.00  0.00    -0.298 N 
ATOM      4  H   UNL     1       0.112  -5.660   6.203  0.00  0.00    +0.150 HD
ENDROOT
BRANCH   3   5
ATOM      5  C   UNL     1       0.103  -4.961   8.208  0.00  0.00    +0.144 C 
ATOM      6  C   UNL     1      -0.954  -5.977   8.696  0.00  0.00    +0.109 C 
ATOM      7  C   UNL     1      -1.733  -5.515   9.934  0.00  0.00    +0.016 C 
ATOM      8  C   UNL     1      -3.215  -5.598   9.618  0.00  0.00    +0.005 C 
ATOM      9  C   UNL     1      -4.077  -4.814  10.596  0.00  0.00    +0.000 C 
ATOM     10  C   UNL     1      -3.637  -3.345  10.545  0.00  0.00    +0.001 C 
ATOM     11  C   UNL     1      -2.235  -3.265  11.139  0.00  0.00    +0.014 C 
ATOM     12  C   UNL     1      -1.266  -4.172  10.467  0.00  0.00    +0.052 C 
ATOM     13  S   UNL     1      -0.505  -3.399   8.986  0.00  0.00    -0.134 S 
BRANCH   6  14
ATOM     14  C   UNL     1      -0.260  -7.273   9.025  0.00  0.00    +0.219 C 
ATOM     15  O   UNL     1      -0.296  -7.711  10.155  0.00  0.00    -0.275 OA
ATOM     16  N   UNL     1       0.402  -7.947   8.062  0.00  0.00    -0.318 N 
ATOM     17  C   UNL     1       1.077  -9.207   8.382  0.00  0.00    +0.128 C 
ATOM     18  H   UNL     1       0.430  -7.597   7.158  0.00  0.00    +0.148 HD
ENDBRANCH   6  14
ENDBRANCH   3   5
BRANCH   1  22
ATOM     19  C   UNL     1       0.052  -2.840   2.447  0.00  0.00    +0.080 C 
ATOM     20  N   UNL     1       0.076  -4.144   2.609  0.00  0.00    -0.153 NA
ATOM     21  N   UNL     1       0.086  -4.520   3.827  0.00  0.00    -0.148 NA
ATOM     22  C   UNL     1       0.070  -3.542   4.695  0.00  0.00    +0.131 C 
ATOM     23  C   UNL     1       0.052  -2.273   3.857  0.00  0.00    +0.120 C 
BRANCH  19  29
ATOM     24  C   UNL     1      -0.018   1.503   0.010  0.00  0.00    +0.044 C 
ATOM     25  C   UNL     1       0.002  -0.004   0.002  0.00  0.00    -0.049 A 
ATOM     26  C   UNL     1       0.006  -0.687  -1.205  0.00  0.00    +0.010 A 
ATOM     27  C   UNL     1       0.024  -2.068  -1.229  0.00  0.00    -0.008 A 
ATOM     28  C   UNL     1       0.040  -2.784  -0.042  0.00  0.00    +0.129 A 
ATOM     29  C   UNL     1       0.036  -2.097   1.185  0.00  0.00    +0.040 A 
ATOM     30  C   UNL     1       0.023  -0.695   1.192  0.00  0.00    +0.016 A 
ATOM     31  C   UNL     1       0.028  -2.797  -2.547  0.00  0.00    +0.047 C 
BRANCH  28  32
ATOM     32  O   UNL     1       0.057  -4.140  -0.064  0.00  0.00    -0.506 OA
ATOM     33  H   UNL     1       0.945  -4.522  -0.075  0.00  0.00    +0.292 HD
ENDBRANCH  28  32
ENDBRANCH  19  29
ENDBRANCH   1  22
TORSDOF 5
