REMARK  Name = ZINC65918860
REMARK  7 active torsions:
REMARK  status: ('A' for Active; 'I' for Inactive)
REMARK    1  A    between atoms: C_1  and  C_2
REMARK    2  A    between atoms: C_4  and  C_27
REMARK    3  A    between atoms: C_4  and  C_28
REMARK    4  A    between atoms: N_10  and  C_14
REMARK    5  A    between atoms: C_14  and  C_15
REMARK    6  A    between atoms: N_17  and  N_18
REMARK    7  A    between atoms: N_21  and  C_22
REMARK                            x       y       z     vdW  Elec       q    Type
REMARK                         _______ _______ _______ _____ _____    ______ ____
ROOT
ATOM      1  C   UNL     1       0.003   1.471   0.164  0.00  0.00    +0.007 C 
ATOM      2  C   UNL     1       0.022  -0.057   0.093  0.00  0.00    -0.011 C 
ATOM      3  C   UNL     1       0.721  -0.500  -1.194  0.00  0.00    +0.009 C 
ATOM      4  C   UNL     1       0.733  -2.028  -1.271  0.00  0.00    -0.032 C 
ATOM      5  C   UNL     1       1.494  -2.592  -0.069  0.00  0.00    +0.041 C 
ATOM      6  C   UNL     1       0.819  -2.136   1.221  0.00  0.00    +0.113 C 
ATOM      7  C   UNL     1       0.780  -0.614   1.301  0.00  0.00    +0.038 C 
ATOM      8  C   UNL     1       1.533  -2.711   2.422  0.00  0.00    +0.247 C 
ATOM      9  O   UNL     1       2.685  -2.522   2.751  0.00  0.00    -0.273 OA
ATOM     10  N   UNL     1       0.619  -3.477   3.053  0.00  0.00    -0.215 N 
ATOM     11  C   UNL     1      -0.559  -3.462   2.418  0.00  0.00    +0.310 C 
ATOM     12  O   UNL     1      -1.538  -4.076   2.795  0.00  0.00    -0.252 OA
ATOM     13  N   UNL     1      -0.538  -2.690   1.314  0.00  0.00    -0.285 N 
ATOM     14  C   UNL     1       1.423  -2.468  -2.564  0.00  0.00    +0.011 C 
ATOM     15  C   UNL     1      -0.705  -2.551  -1.257  0.00  0.00    +0.011 C 
ATOM     16  H   UNL     1      -1.274  -2.532   0.702  0.00  0.00    +0.151 HD
ENDROOT
BRANCH  10  17
ATOM     17  C   UNL     1       0.883  -4.231   4.280  0.00  0.00    +0.215 C 
BRANCH  17  18
ATOM     18  C   UNL     1       0.570  -3.370   5.477  0.00  0.00    +0.247 C 
ATOM     19  O   UNL     1       0.166  -2.238   5.319  0.00  0.00    -0.273 OA
ATOM     20  N   UNL     1       0.739  -3.859   6.721  0.00  0.00    -0.232 N 
ATOM     21  H   UNL     1       1.062  -4.765   6.847  0.00  0.00    +0.173 HD
BRANCH  20  22
ATOM     22  N   UNL     1       0.448  -3.058   7.834  0.00  0.00    -0.218 N 
ATOM     23  C   UNL     1       0.617  -3.546   9.078  0.00  0.00    +0.316 C 
ATOM     24  O   UNL     1       0.364  -2.852  10.043  0.00  0.00    -0.251 OA
ATOM     25  N   UNL     1       1.066  -4.805   9.253  0.00  0.00    -0.295 N 
ATOM     26  H   UNL     1       0.125  -2.152   7.708  0.00  0.00    +0.174 HD
ATOM     27  H   UNL     1       1.268  -5.359   8.483  0.00  0.00    +0.151 HD
BRANCH  25  28
ATOM     28  C   UNL     1       1.250  -5.336  10.606  0.00  0.00    +0.074 C 
ATOM     29  C   UNL     1       2.663  -4.993  11.121  0.00  0.00    +0.022 C 
ATOM     30  C   UNL     1       3.085  -6.242  11.932  0.00  0.00    +0.002 C 
ATOM     31  C   UNL     1       2.505  -7.407  11.093  0.00  0.00    +0.002 C 
ATOM     32  C   UNL     1       1.150  -6.872  10.588  0.00  0.00    +0.022 C 
ENDBRANCH  25  28
ENDBRANCH  20  22
ENDBRANCH  17  18
ENDBRANCH  10  17
TORSDOF 4
