REMARK  Name = ZINC09202592
REMARK  8 active torsions:
REMARK  status: ('A' for Active; 'I' for Inactive)
REMARK    1  A    between atoms: C_1  and  C_2
REMARK    2  A    between atoms: C_7  and  C_8
REMARK    3  A    between atoms: N_10  and  N_11
REMARK    4  A    between atoms: C_12  and  C_13
REMARK    5  A    between atoms: C_14  and  C_31
REMARK    6  A    between atoms: N_15  and  C_22
REMARK    7  A    between atoms: C_22  and  C_23
REMARK    8  A    between atoms: C_26  and  C_29
REMARK                            x       y       z     vdW  Elec       q    Type
REMARK                         _______ _______ _______ _____ _____    ______ ____
ROOT
ATOM      1  C   UNL     1       2.428   3.767   1.408  0.00  0.00    +0.023 A 
ATOM      2  C   UNL     1       3.171   2.647   1.626  0.00  0.00    +0.026 A 
ATOM      3  N   UNL     1       2.346   1.579   1.819  0.00  0.00    -0.339 N 
ATOM      4  C   UNL     1       1.027   1.973   1.732  0.00  0.00    +0.050 A 
ATOM      5  C   UNL     1       1.015   3.353   1.472  0.00  0.00    +0.009 A 
ATOM      6  C   UNL     1      -0.196   4.027   1.333  0.00  0.00    +0.010 A 
ATOM      7  C   UNL     1      -1.380   3.333   1.453  0.00  0.00    +0.001 A 
ATOM      8  C   UNL     1      -1.370   1.968   1.705  0.00  0.00    +0.002 A 
ATOM      9  C   UNL     1      -0.179   1.290   1.850  0.00  0.00    +0.026 A 
ATOM     10  C   UNL     1       4.676   2.596   1.650  0.00  0.00    +0.064 C 
ENDROOT
BRANCH   1  12
ATOM     11  N   UNL     1       2.106   6.104   0.964  0.00  0.00    -0.187 NA
ATOM     12  C   UNL     1       2.937   5.124   1.156  0.00  0.00    +0.140 C 
BRANCH  11  15
ATOM     13  C   UNL     1       1.729   8.413   0.525  0.00  0.00    +0.264 C 
ATOM     14  O   UNL     1       0.530   8.209   0.552  0.00  0.00    -0.268 OA
ATOM     15  N   UNL     1       2.591   7.397   0.724  0.00  0.00    -0.203 N 
ATOM     16  H   UNL     1       3.547   7.560   0.702  0.00  0.00    +0.178 HD
BRANCH  13  23
ATOM     17  C   UNL     1      -0.121  10.530  -0.160  0.00  0.00    +0.044 C 
ATOM     18  C   UNL     1       1.357  10.806  -0.059  0.00  0.00    -0.038 A 
ATOM     19  C   UNL     1       1.841  12.077  -0.293  0.00  0.00    +0.004 A 
ATOM     20  C   UNL     1       3.197  12.332  -0.200  0.00  0.00    +0.000 A 
ATOM     21  C   UNL     1       4.078  11.316   0.128  0.00  0.00    +0.001 A 
ATOM     22  C   UNL     1       3.607  10.042   0.369  0.00  0.00    +0.013 A 
ATOM     23  C   UNL     1       2.240   9.777   0.272  0.00  0.00    +0.041 A 
ENDBRANCH  13  23
ENDBRANCH  11  15
ENDBRANCH   1  12
BRANCH   3  24
ATOM     24  C   UNL     1       2.796   0.210   2.082  0.00  0.00    +0.157 C 
BRANCH  24  25
ATOM     25  C   UNL     1       2.963  -0.523   0.776  0.00  0.00    -0.028 A 
ATOM     26  C   UNL     1       1.899  -1.227   0.240  0.00  0.00    +0.006 A 
ATOM     27  C   UNL     1       2.044  -1.896  -0.958  0.00  0.00    +0.019 A 
ATOM     28  C   UNL     1       3.271  -1.870  -1.624  0.00  0.00    +0.052 A 
ATOM     29  C   UNL     1       4.342  -1.162  -1.075  0.00  0.00    +0.019 A 
ATOM     30  C   UNL     1       4.182  -0.493   0.121  0.00  0.00    +0.006 A 
BRANCH  28  31
ATOM     31  C   UNL     1       3.430  -2.567  -2.865  0.00  0.00    +0.099 C 
ATOM     32  N   UNL     1       3.556  -3.120  -3.849  0.00  0.00    -0.191 NA
ENDBRANCH  28  31
ENDBRANCH  24  25
ENDBRANCH   3  24
TORSDOF 6
