REMARK  Name = ZINC57556752
REMARK  6 active torsions:
REMARK  status: ('A' for Active; 'I' for Inactive)
REMARK    1  A    between atoms: N_8  and  N_11
REMARK    2  A    between atoms: C_12  and  C_14
REMARK    3  A    between atoms: C_14  and  O_15
REMARK    4  A    between atoms: O_15  and  C_16
REMARK    5  A    between atoms: C_19  and  C_22
REMARK    6  A    between atoms: C_25  and  C_28
REMARK                            x       y       z     vdW  Elec       q    Type
REMARK                         _______ _______ _______ _____ _____    ______ ____
ROOT
ATOM      1  N   UNL     1       3.783  -3.396  -0.053  0.00  0.00    -0.230 N 
ATOM      2  C   UNL     1       4.391  -3.792  -1.189  0.00  0.00    +0.267 C 
ATOM      3  O   UNL     1       4.280  -3.129  -2.199  0.00  0.00    -0.271 OA
ATOM      4  H   UNL     1       3.872  -3.925   0.755  0.00  0.00    +0.173 HD
ENDROOT
BRANCH   1  12
ATOM      5  C   UNL     1      -0.017   1.380   0.010  0.00  0.00    +0.000 A 
ATOM      6  C   UNL     1       1.170   2.092   0.002  0.00  0.00    +0.001 A 
ATOM      7  C   UNL     1       2.379   1.427  -0.013  0.00  0.00    +0.011 A 
ATOM      8  C   UNL     1       2.405   0.032  -0.021  0.00  0.00    +0.019 A 
ATOM      9  C   UNL     1       1.204  -0.676  -0.013  0.00  0.00    -0.018 A 
ATOM     10  C   UNL     1       0.002  -0.004   0.002  0.00  0.00    +0.006 A 
ATOM     11  C   UNL     1       1.558  -2.143  -0.024  0.00  0.00    +0.165 C 
ATOM     12  N   UNL     1       3.023  -2.219  -0.039  0.00  0.00    -0.231 N 
ATOM     13  C   UNL     1       3.522  -0.937  -0.037  0.00  0.00    +0.117 C 
ATOM     14  N   UNL     1       4.786  -0.625  -0.049  0.00  0.00    -0.385 N 
ATOM     15  H   UNL     1       5.055   0.307  -0.046  0.00  0.00    +0.157 HD
ATOM     16  H   UNL     1       5.458  -1.324  -0.059  0.00  0.00    +0.157 HD
ENDBRANCH   1  12
BRANCH   2  17
ATOM     17  C   UNL     1       5.209  -5.057  -1.204  0.00  0.00    +0.326 C 
BRANCH  17  18
ATOM     18  O   UNL     1       5.748  -5.261  -2.511  0.00  0.00    -0.483 OA
BRANCH  18  19
ATOM     19  C   UNL     1       6.516  -6.366  -2.697  0.00  0.00    +0.121 A 
ATOM     20  C   UNL     1       6.740  -7.239  -1.640  0.00  0.00    +0.046 A 
ATOM     21  C   UNL     1       7.519  -8.362  -1.825  0.00  0.00    +0.012 A 
ATOM     22  C   UNL     1       8.081  -8.620  -3.075  0.00  0.00    -0.018 A 
ATOM     23  C   UNL     1       7.853  -7.742  -4.134  0.00  0.00    +0.012 A 
ATOM     24  C   UNL     1       7.070  -6.624  -3.944  0.00  0.00    +0.046 A 
BRANCH  22  25
ATOM     25  C   UNL     1       8.919  -9.826  -3.277  0.00  0.00    -0.018 A 
ATOM     26  C   UNL     1       9.141 -10.707  -2.218  0.00  0.00    +0.010 A 
ATOM     27  C   UNL     1       9.919 -11.826  -2.404  0.00  0.00    +0.019 A 
ATOM     28  C   UNL     1      10.487 -12.082  -3.656  0.00  0.00    +0.052 A 
ATOM     29  C   UNL     1      10.263 -11.199  -4.717  0.00  0.00    +0.019 A 
ATOM     30  C   UNL     1       9.480 -10.083  -4.529  0.00  0.00    +0.010 A 
BRANCH  28  31
ATOM     31  C   UNL     1      11.297 -13.246  -3.851  0.00  0.00    +0.099 C 
ATOM     32  N   UNL     1      11.940 -14.170  -4.006  0.00  0.00    -0.191 NA
ENDBRANCH  28  31
ENDBRANCH  22  25
ENDBRANCH  18  19
ENDBRANCH  17  18
ENDBRANCH   2  17
TORSDOF 6
