REMARK  Name = ZINC34836446
REMARK  14 active torsions:
REMARK  status: ('A' for Active; 'I' for Inactive)
REMARK    1  A    between atoms: C_1  and  C_2
REMARK    2  A    between atoms: C_2  and  N_3
REMARK    3  A    between atoms: N_6  and  C_9
REMARK    4  A    between atoms: C_10  and  C_22
REMARK    5  A    between atoms: C_11  and  C_21
REMARK    6  A    between atoms: N_13  and  C_14
REMARK    7  A    between atoms: C_22  and  N_23
REMARK    8  A    between atoms: N_23  and  C_24
REMARK    9  A    between atoms: N_23  and  C_28
REMARK   10  A    between atoms: C_24  and  C_25
REMARK   11  A    between atoms: C_25  and  O_26
REMARK   12  A    between atoms: O_26  and  C_27
REMARK   13  A    between atoms: C_28  and  C_29
REMARK   14  A    between atoms: C_34  and  O_35
REMARK                            x       y       z     vdW  Elec       q    Type
REMARK                         _______ _______ _______ _____ _____    ______ ____
ROOT
ATOM      1  C   UNL     1       3.556  -2.581  -3.447  0.00  0.00    +0.126 A 
ATOM      2  C   UNL     1       3.565  -3.909  -3.146  0.00  0.00    -0.001 A 
ATOM      3  C   UNL     1       4.856  -4.392  -3.378  0.00  0.00    +0.064 A 
ATOM      4  N   UNL     1       5.600  -3.402  -3.801  0.00  0.00    -0.170 NA
ATOM      5  N   UNL     1       4.808  -2.248  -3.861  0.00  0.00    -0.218 N 
ATOM      6  C   UNL     1       5.314  -5.814  -3.174  0.00  0.00    +0.068 C 
ENDROOT
BRANCH   1  10
ATOM      7  N   UNL     1      -0.114  -0.805  -2.786  0.00  0.00    +0.382 N 
ATOM      8  C   UNL     1       0.807  -1.095  -1.680  0.00  0.00    -0.060 C 
ATOM      9  C   UNL     1       2.251  -0.899  -2.153  0.00  0.00    +0.088 C 
ATOM     10  N   UNL     1       2.464  -1.723  -3.353  0.00  0.00    -0.318 N 
ATOM     11  C   UNL     1       1.490  -1.615  -4.450  0.00  0.00    +0.088 C 
ATOM     12  C   UNL     1       0.082  -1.778  -3.868  0.00  0.00    -0.060 C 
ATOM     13  H   UNL     1       0.065   0.125  -3.135  0.00  0.00    -0.082 HD
BRANCH   7  15
ATOM     14  C   UNL     1      -1.741   0.210  -1.262  0.00  0.00    -0.017 C 
ATOM     15  C   UNL     1      -1.499  -0.886  -2.302  0.00  0.00    -0.082 C 
ENDBRANCH   7  15
ENDBRANCH   1  10
BRANCH   5  16
ATOM     16  C   UNL     1       5.232  -0.976  -4.272  0.00  0.00    +0.068 A 
ATOM     17  C   UNL     1       4.413  -0.198  -5.080  0.00  0.00    +0.030 A 
ATOM     18  C   UNL     1       4.832   1.054  -5.484  0.00  0.00    +0.040 A 
ATOM     19  C   UNL     1       6.068   1.535  -5.083  0.00  0.00    +0.124 A 
ATOM     20  C   UNL     1       6.886   0.760  -4.277  0.00  0.00    +0.040 A 
ATOM     21  C   UNL     1       6.468  -0.490  -3.867  0.00  0.00    +0.030 A 
ATOM     22  F   UNL     1       6.476   2.760  -5.479  0.00  0.00    -0.205 F 
ENDBRANCH   5  16
BRANCH   2  23
ATOM     23  C   UNL     1       2.392  -4.715  -2.650  0.00  0.00    -0.037 C 
BRANCH  23  24
ATOM     24  N   UNL     1       1.571  -5.138  -3.792  0.00  0.00    +0.387 N 
ATOM     25  H   UNL     1       1.304  -4.329  -4.332  0.00  0.00    -0.081 HD
BRANCH  24  26
ATOM     26  C   UNL     1       2.344  -6.057  -4.638  0.00  0.00    -0.049 C 
BRANCH  26  27
ATOM     27  C   UNL     1       1.543  -6.386  -5.899  0.00  0.00    +0.141 C 
BRANCH  27  28
ATOM     28  O   UNL     1       1.347  -5.195  -6.663  0.00  0.00    -0.385 OA
ATOM     29  C   UNL     1       0.605  -5.393  -7.869  0.00  0.00    +0.193 C 
ENDBRANCH  27  28
ENDBRANCH  26  27
ENDBRANCH  24  26
BRANCH  24  30
ATOM     30  C   UNL     1       0.365  -5.820  -3.303  0.00  0.00    -0.039 C 
BRANCH  30  31
ATOM     31  C   UNL     1       0.765  -7.024  -2.489  0.00  0.00    -0.020 A 
ATOM     32  C   UNL     1       0.809  -8.273  -3.078  0.00  0.00    +0.005 A 
ATOM     33  C   UNL     1       1.175  -9.378  -2.333  0.00  0.00    +0.003 A 
ATOM     34  C   UNL     1       1.498  -9.238  -0.996  0.00  0.00    +0.042 A 
ATOM     35  C   UNL     1       1.456  -7.990  -0.401  0.00  0.00    +0.165 A 
ATOM     36  C   UNL     1       1.093  -6.878  -1.150  0.00  0.00    +0.153 A 
ATOM     37  F   UNL     1       1.771  -7.853   0.906  0.00  0.00    -0.202 F 
BRANCH  36  38
ATOM     38  O   UNL     1       1.056  -5.649  -0.570  0.00  0.00    -0.504 OA
ATOM     39  H   UNL     1       0.200  -5.424  -0.180  0.00  0.00    +0.292 HD
ENDBRANCH  36  38
ENDBRANCH  30  31
ENDBRANCH  24  30
ENDBRANCH  23  24
ENDBRANCH   2  23
TORSDOF 11
