REMARK  Name = ZINC09953328
REMARK  13 active torsions:
REMARK  status: ('A' for Active; 'I' for Inactive)
REMARK    1  A    between atoms: C_1  and  C_2
REMARK    2  A    between atoms: C_7  and  N_12
REMARK    3  A    between atoms: C_9  and  C_11
REMARK    4  A    between atoms: C_13  and  C_15
REMARK    5  A    between atoms: C_15  and  C_17
REMARK    6  A    between atoms: C_15  and  S_18
REMARK    7  A    between atoms: S_18  and  C_19
REMARK    8  A    between atoms: C_22  and  C_31
REMARK    9  A    between atoms: N_23  and  C_24
REMARK   10  A    between atoms: C_31  and  C_33
REMARK   11  A    between atoms: C_31  and  N_65
REMARK   12  A    between atoms: C_34  and  N_65
REMARK   13  A    between atoms: C_35  and  N_65
REMARK                            x       y       z     vdW  Elec       q    Type
REMARK                         _______ _______ _______ _____ _____    ______ ____
ROOT
ATOM      1  C   UNL     1       4.134  -1.459   0.944  0.00  0.00    +0.197 A 
ATOM      2  N   UNL     1       5.296  -1.895   0.518  0.00  0.00    -0.122 NA
ATOM      3  N   UNL     1       5.545  -1.412  -0.646  0.00  0.00    -0.135 NA
ATOM      4  C   UNL     1       4.562  -0.648  -1.035  0.00  0.00    +0.125 A 
ATOM      5  N   UNL     1       3.624  -0.653  -0.037  0.00  0.00    -0.275 N 
ENDROOT
BRANCH   5   6
ATOM      6  C   UNL     1       2.399   0.031  -0.021  0.00  0.00    +0.050 A 
ATOM      7  C   UNL     1       1.207  -0.679  -0.014  0.00  0.00    +0.029 A 
ATOM      8  C   UNL     1       0.002  -0.004   0.002  0.00  0.00    +0.040 A 
ATOM      9  C   UNL     1      -0.017   1.381   0.010  0.00  0.00    +0.124 A 
ATOM     10  C   UNL     1       1.172   2.091   0.002  0.00  0.00    +0.040 A 
ATOM     11  C   UNL     1       2.379   1.419  -0.013  0.00  0.00    +0.029 A 
ATOM     12  F   UNL     1      -1.196   2.039   0.019  0.00  0.00    -0.205 F 
ENDBRANCH   5   6
BRANCH   4  13
ATOM     13  C   UNL     1       4.475   0.101  -2.339  0.00  0.00    -0.003 C 
ATOM     14  C   UNL     1       5.401   1.318  -2.292  0.00  0.00    -0.005 C 
BRANCH  13  17
ATOM     15  C   UNL     1       4.076  -2.009  -3.458  0.00  0.00    -0.096 C 
ATOM     16  C   UNL     1       4.811  -0.084  -4.730  0.00  0.00    -0.096 C 
ATOM     17  N   UNL     1       4.911  -0.790  -3.435  0.00  0.00    +0.382 N 
ATOM     18  H   UNL     1       5.889  -1.059  -3.277  0.00  0.00    -0.082 HD
ENDBRANCH  13  17
ENDBRANCH   4  13
BRANCH   1  19
ATOM     19  S   UNL     1       3.372  -1.842   2.486  0.00  0.00    -0.073 S 
BRANCH  19  20
ATOM     20  C   UNL     1       4.631  -2.929   3.198  0.00  0.00    +0.137 C 
ATOM     21  C   UNL     1       4.745  -4.200   2.353  0.00  0.00    +0.029 C 
BRANCH  20  23
ATOM     22  N   UNL     1       5.188  -3.650   5.498  0.00  0.00    -0.311 N 
ATOM     23  C   UNL     1       4.241  -3.296   4.606  0.00  0.00    +0.226 C 
ATOM     24  O   UNL     1       3.075  -3.273   4.938  0.00  0.00    -0.275 OA
ATOM     25  H   UNL     1       6.121  -3.668   5.232  0.00  0.00    +0.149 HD
BRANCH  22  31
ATOM     26  C   UNL     1       6.543  -6.217   9.500  0.00  0.00    +0.008 C 
ATOM     27  C   UNL     1       5.478  -5.298   8.899  0.00  0.00    -0.009 C 
ATOM     28  C   UNL     1       5.364  -4.027   9.743  0.00  0.00    +0.003 C 
ATOM     29  C   UNL     1       4.300  -3.108   9.142  0.00  0.00    +0.002 C 
ATOM     30  C   UNL     1       4.696  -2.736   7.712  0.00  0.00    +0.022 C 
ATOM     31  C   UNL     1       4.809  -4.006   6.867  0.00  0.00    +0.076 C 
ATOM     32  C   UNL     1       5.874  -4.925   7.468  0.00  0.00    +0.009 C 
ATOM     33  C   UNL     1       5.987  -6.196   6.623  0.00  0.00    +0.009 C 
ENDBRANCH  22  31
ENDBRANCH  20  23
ENDBRANCH  19  20
ENDBRANCH   1  19
TORSDOF 7
