REMARK  Name = ZINC64612746
REMARK  4 active torsions:
REMARK  status: ('A' for Active; 'I' for Inactive)
REMARK    1  A    between atoms: C_4  and  C_7
REMARK    2  A    between atoms: C_10  and  C_13
REMARK    3  A    between atoms: C_15  and  S_19
REMARK    4  A    between atoms: S_19  and  N_22
REMARK                            x       y       z     vdW  Elec       q    Type
REMARK                         _______ _______ _______ _____ _____    ______ ____
ROOT
ATOM      1  C   UNL     1       5.395  -3.674   1.002  0.00  0.00    +0.099 C 
ATOM      2  C   UNL     1       6.191  -4.737   1.040  0.00  0.00    +0.035 C 
ATOM      3  C   UNL     1       6.371  -5.045   2.515  0.00  0.00    +0.214 C 
ATOM      4  C   UNL     1       5.541  -3.969   3.188  0.00  0.00    +0.116 C 
ATOM      5  N   UNL     1       5.042  -3.252   2.238  0.00  0.00    -0.257 NA
ENDROOT
BRANCH   1   9
ATOM      6  C   UNL     1       3.176  -1.613  -0.372  0.00  0.00    +0.239 C 
ATOM      7  N   UNL     1       4.214  -0.844  -0.371  0.00  0.00    -0.145 NA
ATOM      8  N   UNL     1       5.388  -1.608  -0.312  0.00  0.00    -0.223 N 
ATOM      9  C   UNL     1       4.941  -3.011  -0.273  0.00  0.00    +0.327 C 
ATOM     10  O   UNL     1       3.509  -2.925  -0.309  0.00  0.00    -0.446 OA
ATOM     11  H   UNL     1       6.302  -1.282  -0.299  0.00  0.00    +0.172 HD
BRANCH   6  15
ATOM     12  C   UNL     1      -0.822  -0.192  -0.534  0.00  0.00    +0.000 A 
ATOM     13  C   UNL     1       0.229   0.707  -0.543  0.00  0.00    +0.001 A 
ATOM     14  C   UNL     1       1.530   0.252  -0.491  0.00  0.00    +0.013 A 
ATOM     15  C   UNL     1       1.785  -1.119  -0.428  0.00  0.00    +0.038 A 
ATOM     16  C   UNL     1       0.720  -2.021  -0.419  0.00  0.00    +0.013 A 
ATOM     17  C   UNL     1      -0.577  -1.553  -0.472  0.00  0.00    +0.001 A 
ENDBRANCH   6  15
ENDBRANCH   1   9
BRANCH   3  18
ATOM     18  S   UNL     1       8.116  -4.908   2.991  0.00  0.00    +0.044 S 
ATOM     19  O   UNL     1       8.866  -5.968   2.413  0.00  0.00    -0.157 OA
ATOM     20  O   UNL     1       8.553  -3.561   2.869  0.00  0.00    -0.157 OA
BRANCH  18  21
ATOM     21  N   UNL     1       8.138  -5.213   4.619  0.00  0.00    -0.176 NA
ATOM     22  C   UNL     1       8.196  -6.589   5.139  0.00  0.00    +0.114 C 
ATOM     23  C   UNL     1       9.518  -6.752   5.888  0.00  0.00    +0.052 C 
ATOM     24  C   UNL     1       9.749  -5.596   6.826  0.00  0.00    -0.042 A 
ATOM     25  C   UNL     1      10.650  -5.782   7.867  0.00  0.00    +0.004 A 
ATOM     26  C   UNL     1      10.915  -4.761   8.756  0.00  0.00    +0.000 A 
ATOM     27  C   UNL     1      10.281  -3.541   8.611  0.00  0.00    +0.000 A 
ATOM     28  C   UNL     1       9.384  -3.355   7.579  0.00  0.00    +0.005 A 
ATOM     29  C   UNL     1       9.112  -4.384   6.688  0.00  0.00    -0.028 A 
ATOM     30  C   UNL     1       8.107  -4.122   5.599  0.00  0.00    +0.144 C 
ENDBRANCH  18  21
ENDBRANCH   3  18
TORSDOF 4
