REMARK  Name = ZINC36265947
REMARK  6 active torsions:
REMARK  status: ('A' for Active; 'I' for Inactive)
REMARK    1  A    between atoms: C_1  and  C_2
REMARK    2  A    between atoms: C_6  and  N_17
REMARK    3  A    between atoms: C_7  and  S_8
REMARK    4  A    between atoms: S_8  and  N_11
REMARK    5  A    between atoms: N_11  and  C_12
REMARK    6  A    between atoms: C_14  and  N_16
REMARK                            x       y       z     vdW  Elec       q    Type
REMARK                         _______ _______ _______ _____ _____    ______ ____
ROOT
ATOM      1  S   UNL     1       1.180   1.008   1.669  0.00  0.00    +0.061 S 
ATOM      2  O   UNL     1       2.411   0.560   2.219  0.00  0.00    -0.153 OA
ATOM      3  O   UNL     1       1.089   2.162   0.845  0.00  0.00    -0.153 OA
ENDROOT
BRANCH   1  10
ATOM      4  C   UNL     1       2.443  -1.737   1.529  0.00  0.00    +0.046 C 
ATOM      5  C   UNL     1       1.179  -1.554   0.728  0.00  0.00    -0.022 A 
ATOM      6  C   UNL     1       0.666  -2.608  -0.004  0.00  0.00    +0.005 A 
ATOM      7  C   UNL     1      -0.493  -2.441  -0.739  0.00  0.00    +0.003 A 
ATOM      8  C   UNL     1      -1.139  -1.218  -0.741  0.00  0.00    +0.035 A 
ATOM      9  C   UNL     1      -0.626  -0.165  -0.008  0.00  0.00    +0.153 A 
ATOM     10  C   UNL     1       0.530  -0.334   0.730  0.00  0.00    +0.138 A 
BRANCH   9  11
ATOM     11  N   UNL     1      -1.318   1.144  -0.011  0.00  0.00    +0.058 N 
ATOM     12  O   UNL     1      -1.828   1.557  -1.026  0.00  0.00    -0.126 OA
ATOM     13  O   UNL     1      -1.374   1.800   1.003  0.00  0.00    -0.126 OA
ENDBRANCH   9  11
ENDBRANCH   1  10
BRANCH   1  14
ATOM     14  N   UNL     1       0.154   1.255   2.945  0.00  0.00    -0.187 NA
ATOM     15  H   UNL     1      -0.346   2.084   3.012  0.00  0.00    +0.148 HD
BRANCH  14  16
ATOM     16  C   UNL     1       0.001   0.222   3.973  0.00  0.00    +0.073 C 
ATOM     17  C   UNL     1      -1.425  -0.346   4.067  0.00  0.00    +0.004 C 
ATOM     18  C   UNL     1      -1.722   0.776   5.075  0.00  0.00    -0.072 C 
ATOM     19  C   UNL     1      -0.216   0.786   5.386  0.00  0.00    +0.004 C 
BRANCH  18  20
ATOM     20  N   UNL     1      -2.553   0.345   6.207  0.00  0.00    +0.380 N 
ATOM     21  H   UNL     1      -2.083  -0.393   6.708  0.00  0.00    -0.090 HD
ATOM     22  H   UNL     1      -2.708   1.127   6.827  0.00  0.00    -0.090 HD
ATOM     23  H   UNL     1      -3.440   0.008   5.864  0.00  0.00    -0.090 HD
ENDBRANCH  18  20
ENDBRANCH  14  16
ENDBRANCH   1  14
TORSDOF 5
