REMARK  Name = ZINC32689390
REMARK  9 active torsions:
REMARK  status: ('A' for Active; 'I' for Inactive)
REMARK    1  A    between atoms: C_1  and  C_2
REMARK    2  A    between atoms: C_4  and  N_10
REMARK    3  A    between atoms: C_7  and  C_8
REMARK    4  A    between atoms: C_11  and  C_13
REMARK    5  A    between atoms: C_13  and  O_14
REMARK    6  A    between atoms: O_14  and  C_15
REMARK    7  A    between atoms: C_18  and  C_21
REMARK    8  A    between atoms: C_22  and  C_23
REMARK    9  A    between atoms: C_24  and  N_32
REMARK                            x       y       z     vdW  Elec       q    Type
REMARK                         _______ _______ _______ _____ _____    ______ ____
ROOT
ATOM      1  C   UNL     1       1.022  -1.663  -7.944  0.00  0.00    +0.121 A 
ATOM      2  C   UNL     1       0.592  -2.970  -7.746  0.00  0.00    +0.046 A 
ATOM      3  C   UNL     1       0.101  -3.704  -8.803  0.00  0.00    +0.011 A 
ATOM      4  C   UNL     1       0.035  -3.131 -10.078  0.00  0.00    -0.025 A 
ATOM      5  C   UNL     1       0.469  -1.816 -10.272  0.00  0.00    +0.011 A 
ATOM      6  C   UNL     1       0.953  -1.088  -9.208  0.00  0.00    +0.046 A 
ENDROOT
BRANCH   4   7
ATOM      7  C   UNL     1      -0.488  -3.911 -11.211  0.00  0.00    +0.010 C 
ATOM      8  C   UNL     1      -1.303  -3.328 -12.111  0.00  0.00    +0.031 C 
BRANCH   8   9
ATOM      9  C   UNL     1      -1.951  -2.049 -11.793  0.00  0.00    +0.105 A 
ATOM     10  C   UNL     1      -2.674  -1.369 -12.770  0.00  0.00    +0.215 A 
ATOM     11  C   UNL     1      -3.278  -0.151 -12.430  0.00  0.00    +0.285 A 
ATOM     12  O   UNL     1      -3.921   0.475 -13.258  0.00  0.00    -0.265 OA
ATOM     13  N   UNL     1      -3.138   0.317 -11.172  0.00  0.00    -0.272 N 
ATOM     14  H   UNL     1      -3.550   1.159 -10.922  0.00  0.00    +0.174 HD
ATOM     15  C   UNL     1      -2.421  -0.385 -10.255  0.00  0.00    +0.349 A 
ATOM     16  O   UNL     1      -2.296   0.103  -9.003  0.00  0.00    -0.245 OA
ATOM     17  N   UNL     1      -1.854  -1.529 -10.557  0.00  0.00    -0.191 NA
BRANCH  10  18
ATOM     18  N   UNL     1      -2.801  -1.920 -14.138  0.00  0.00    +0.064 N 
ATOM     19  O   UNL     1      -2.372  -3.022 -14.388  0.00  0.00    -0.126 OA
ATOM     20  O   UNL     1      -3.334  -1.268 -15.005  0.00  0.00    -0.126 OA
ENDBRANCH  10  18
ENDBRANCH   8   9
ENDBRANCH   4   7
BRANCH   1  21
ATOM     21  O   UNL     1       1.505  -0.944  -6.899  0.00  0.00    -0.483 OA
BRANCH  21  22
ATOM     22  C   UNL     1       1.548  -1.595  -5.628  0.00  0.00    +0.324 C 
BRANCH  22  24
ATOM     23  N   UNL     1       2.244  -1.050  -3.318  0.00  0.00    -0.282 N 
ATOM     24  C   UNL     1       2.109  -0.650  -4.598  0.00  0.00    +0.255 C 
ATOM     25  O   UNL     1       2.440   0.472  -4.920  0.00  0.00    -0.272 OA
ATOM     26  H   UNL     1       2.071  -1.974  -3.078  0.00  0.00    +0.155 HD
BRANCH  23  30
ATOM     27  C   UNL     1       2.536   3.599  -1.747  0.00  0.00    +0.044 C 
ATOM     28  C   UNL     1       2.785   2.127  -1.547  0.00  0.00    -0.046 A 
ATOM     29  C   UNL     1       2.401   1.224  -2.519  0.00  0.00    +0.028 A 
ATOM     30  C   UNL     1       2.631  -0.133  -2.334  0.00  0.00    +0.048 A 
ATOM     31  C   UNL     1       3.247  -0.578  -1.171  0.00  0.00    +0.039 A 
ATOM     32  C   UNL     1       3.629   0.331  -0.202  0.00  0.00    +0.020 A 
ATOM     33  C   UNL     1       3.403   1.682  -0.393  0.00  0.00    -0.046 A 
ATOM     34  C   UNL     1       3.825   2.671   0.663  0.00  0.00    +0.044 C 
ATOM     35 BR   UNL     1       3.563  -2.425  -0.913  0.00  0.00    -0.048 Br
ENDBRANCH  23  30
ENDBRANCH  22  24
ENDBRANCH  21  22
ENDBRANCH   1  21
TORSDOF 7
