REMARK  Name = ZINC14250907
REMARK  7 active torsions:
REMARK  status: ('A' for Active; 'I' for Inactive)
REMARK    1  A    between atoms: C_1  and  C_2
REMARK    2  A    between atoms: C_5  and  C_8
REMARK    3  A    between atoms: C_8  and  C_32
REMARK    4  A    between atoms: N_11  and  C_15
REMARK    5  A    between atoms: C_15  and  C_16
REMARK    6  A    between atoms: C_22  and  C_24
REMARK    7  A    between atoms: C_24  and  C_25
REMARK                            x       y       z     vdW  Elec       q    Type
REMARK                         _______ _______ _______ _____ _____    ______ ____
ROOT
ATOM      1  C   UNL     1       1.720   3.289   0.002  0.00  0.00    +0.214 C 
ENDROOT
BRANCH   1   5
ATOM      2  C   UNL     1       0.002  -0.004   0.002  0.00  0.00    +0.135 C 
ATOM      3  C   UNL     1      -0.018   1.512   0.010  0.00  0.00    +0.251 C 
ATOM      4  O   UNL     1      -0.995   2.231   0.019  0.00  0.00    -0.272 OA
ATOM      5  N   UNL     1       1.274   1.894   0.000  0.00  0.00    -0.215 N 
ATOM      6  C   UNL     1       2.099   0.841  -0.013  0.00  0.00    +0.310 C 
ATOM      7  O   UNL     1       3.311   0.933  -0.025  0.00  0.00    -0.252 OA
ATOM      8  N   UNL     1       1.438  -0.331  -0.013  0.00  0.00    -0.281 N 
ATOM      9  C   UNL     1      -0.686  -0.545  -1.253  0.00  0.00    +0.047 C 
ATOM     10  H   UNL     1       1.831  -1.218  -0.022  0.00  0.00    +0.152 HD
BRANCH   2  15
ATOM     11  C   UNL     1      -2.508  -2.098   4.768  0.00  0.00    +0.044 C 
ATOM     12  C   UNL     1      -1.853  -1.552   3.525  0.00  0.00    -0.050 A 
ATOM     13  C   UNL     1      -0.840  -2.262   2.908  0.00  0.00    +0.004 A 
ATOM     14  C   UNL     1      -0.240  -1.761   1.768  0.00  0.00    +0.006 A 
ATOM     15  C   UNL     1      -0.652  -0.550   1.245  0.00  0.00    -0.015 A 
ATOM     16  C   UNL     1      -1.662   0.163   1.865  0.00  0.00    +0.006 A 
ATOM     17  C   UNL     1      -2.265  -0.340   3.002  0.00  0.00    +0.004 A 
ENDBRANCH   2  15
ENDBRANCH   1   5
BRANCH   1  18
ATOM     18  C   UNL     1       1.886   3.761   1.424  0.00  0.00    +0.237 C 
ATOM     19  O   UNL     1       1.655   3.006   2.344  0.00  0.00    -0.274 OA
ATOM     20  N   UNL     1       2.291   5.022   1.672  0.00  0.00    -0.263 N 
ATOM     21  C   UNL     1       2.444   5.457   2.983  0.00  0.00    +0.165 A 
ATOM     22  N   UNL     1       2.245   4.794   4.105  0.00  0.00    -0.233 NA
ATOM     23  C   UNL     1       2.439   5.362   5.279  0.00  0.00    +0.124 A 
ATOM     24  C   UNL     1       2.851   6.653   5.311  0.00  0.00    +0.015 A 
ATOM     25  S   UNL     1       2.955   7.013   3.564  0.00  0.00    -0.057 S 
ATOM     26  H   UNL     1       2.476   5.626   0.936  0.00  0.00    +0.157 HD
BRANCH  24  27
ATOM     27  C   UNL     1       3.147   7.539   6.494  0.00  0.00    +0.079 C 
BRANCH  27  28
ATOM     28  C   UNL     1       4.600   7.402   6.873  0.00  0.00    -0.042 A 
ATOM     29  C   UNL     1       4.987   6.446   7.792  0.00  0.00    +0.005 A 
ATOM     30  C   UNL     1       6.320   6.316   8.136  0.00  0.00    +0.020 A 
ATOM     31  C   UNL     1       7.264   7.152   7.567  0.00  0.00    +0.041 A 
ATOM     32  C   UNL     1       6.875   8.113   6.651  0.00  0.00    +0.020 A 
ATOM     33  C   UNL     1       5.543   8.238   6.305  0.00  0.00    +0.005 A 
ATOM     34 CL   UNL     1       8.937   6.994   8.003  0.00  0.00    -0.084 Cl
ENDBRANCH  27  28
ENDBRANCH  24  27
ENDBRANCH   1  18
TORSDOF 5
