REMARK  Name = ZINC20263074
REMARK  9 active torsions:
REMARK  status: ('A' for Active; 'I' for Inactive)
REMARK    1  A    between atoms: C_1  and  C_2
REMARK    2  A    between atoms: C_2  and  C_3
REMARK    3  A    between atoms: N_9  and  C_10
REMARK    4  A    between atoms: C_10  and  C_11
REMARK    5  A    between atoms: C_11  and  C_12
REMARK    6  A    between atoms: C_12  and  N_13
REMARK    7  A    between atoms: C_20  and  O_21
REMARK    8  A    between atoms: C_28  and  O_29
REMARK    9  A    between atoms: C_32  and  C_38
REMARK                            x       y       z     vdW  Elec       q    Type
REMARK                         _______ _______ _______ _____ _____    ______ ____
ROOT
ATOM      1  N   UNL     1      -0.484   8.021  -0.485  0.00  0.00    -0.384 N 
ATOM      2  C   UNL     1       0.669   7.264  -0.612  0.00  0.00    +0.050 A 
ATOM      3  C   UNL     1       1.914   7.894  -0.655  0.00  0.00    +0.074 A 
ATOM      4  C   UNL     1       3.071   7.152  -0.781  0.00  0.00    +0.156 A 
ATOM      5  C   UNL     1       3.005   5.749  -0.868  0.00  0.00    +0.118 A 
ATOM      6  C   UNL     1       1.769   5.104  -0.826  0.00  0.00    +0.059 A 
ATOM      7  C   UNL     1       0.585   5.869  -0.696  0.00  0.00    +0.053 A 
ATOM      8  C   UNL     1      -0.719   5.201  -0.652  0.00  0.00    +0.134 A 
ATOM      9  C   UNL     1      -0.798   3.729  -0.743  0.00  0.00    +0.028 A 
ATOM     10  C   UNL     1      -2.034   3.088  -0.700  0.00  0.00    +0.012 A 
ATOM     11  C   UNL     1      -2.098   1.710  -0.791  0.00  0.00    +0.001 A 
ATOM     12  C   UNL     1      -0.941   0.960  -0.912  0.00  0.00    +0.001 A 
ATOM     13  C   UNL     1       0.294   1.580  -0.956  0.00  0.00    +0.012 A 
ATOM     14  C   UNL     1       0.377   2.967  -0.871  0.00  0.00    +0.028 A 
ATOM     15  C   UNL     1       1.692   3.639  -0.916  0.00  0.00    +0.135 A 
ATOM     16  N   UNL     1       4.173   5.013  -0.995  0.00  0.00    -0.240 NA
ATOM     17  C   UNL     1       5.399   5.687  -1.034  0.00  0.00    +0.110 A 
ATOM     18  C   UNL     1       6.583   4.976  -1.160  0.00  0.00    -0.021 A 
ATOM     19  C   UNL     1       7.790   5.649  -1.198  0.00  0.00    +0.005 A 
ATOM     20  C   UNL     1       7.818   7.029  -1.111  0.00  0.00    +0.004 A 
ATOM     21  C   UNL     1       6.642   7.744  -0.986  0.00  0.00    +0.048 A 
ATOM     22  C   UNL     1       5.426   7.078  -0.946  0.00  0.00    +0.154 A 
ATOM     23  O   UNL     1       4.272   7.781  -0.822  0.00  0.00    -0.452 OA
ATOM     24  C   UNL     1       6.554   3.473  -1.255  0.00  0.00    +0.046 C 
ATOM     25  H   UNL     1      -1.470   7.537  -0.555  0.00  0.00    +0.160 HD
ENDROOT
BRANCH   8  26
ATOM     26  O   UNL     1      -1.737   5.860  -0.541  0.00  0.00    -0.505 OA
ATOM     27  H   UNL     1      -2.716   5.359  -0.508  0.00  0.00    +0.292 HD
ENDBRANCH   8  26
BRANCH  15  28
ATOM     28  O   UNL     1       2.709   2.981  -1.027  0.00  0.00    -0.505 OA
ATOM     29  H   UNL     1       2.650   1.884  -1.095  0.00  0.00    +0.292 HD
ENDBRANCH  15  28
BRANCH   1  30
ATOM     30  C   UNL     1      -0.392   9.465  -0.258  0.00  0.00    +0.111 C 
BRANCH  30  31
ATOM     31  C   UNL     1      -1.800  10.056  -0.156  0.00  0.00    +0.002 C 
BRANCH  31  32
ATOM     32  C   UNL     1      -1.704  11.565   0.081  0.00  0.00    -0.077 C 
BRANCH  32  38
ATOM     33  C   UNL     1      -3.002  13.563   0.505  0.00  0.00    -0.069 C 
ATOM     34  C   UNL     1      -4.415  14.151   0.456  0.00  0.00    -0.015 C 
ATOM     35  C   UNL     1      -5.305  13.412   1.459  0.00  0.00    -0.003 C 
ATOM     36  C   UNL     1      -5.304  11.918   1.126  0.00  0.00    -0.019 C 
ATOM     37  C   UNL     1      -3.866  11.394   1.156  0.00  0.00    -0.078 C 
ATOM     38  N   UNL     1      -3.055  12.132   0.179  0.00  0.00    +0.382 N 
ATOM     39  H   UNL     1      -3.538  12.030  -0.803  0.00  0.00    -0.081 HD
BRANCH  33  41
ATOM     40  C   UNL     1      -1.982  15.757  -0.116  0.00  0.00    +0.002 C 
ATOM     41  C   UNL     1      -2.114  14.285  -0.510  0.00  0.00    -0.019 C 
ENDBRANCH  33  41
ENDBRANCH  32  38
ENDBRANCH  31  32
ENDBRANCH  30  31
ENDBRANCH   1  30
TORSDOF 7
