REMARK  Name = ZINC58214513
REMARK  7 active torsions:
REMARK  status: ('A' for Active; 'I' for Inactive)
REMARK    1  A    between atoms: C_1  and  C_2
REMARK    2  A    between atoms: C_5  and  C_9
REMARK    3  A    between atoms: C_6  and  C_8
REMARK    4  A    between atoms: C_11  and  C_14
REMARK    5  A    between atoms: C_14  and  N_15
REMARK    6  A    between atoms: C_18  and  C_22
REMARK    7  A    between atoms: C_18  and  C_23
REMARK                            x       y       z     vdW  Elec       q    Type
REMARK                         _______ _______ _______ _____ _____    ______ ____
ROOT
ATOM      1  C   UNL     1       0.974  -7.540  -1.080  0.00  0.00    +0.176 C 
ENDROOT
BRANCH   1   2
ATOM      2  N   UNL     1      -0.333  -8.095  -1.442  0.00  0.00    -0.218 N 
ATOM      3  C   UNL     1      -1.016  -8.978  -0.686  0.00  0.00    +0.254 C 
ATOM      4  O   UNL     1      -0.678  -9.444   0.380  0.00  0.00    -0.272 OA
ATOM      5  C   UNL     1      -2.295  -9.264  -1.448  0.00  0.00    +0.168 C 
ATOM      6  N   UNL     1      -2.172  -8.432  -2.657  0.00  0.00    -0.279 N 
ATOM      7  C   UNL     1      -0.997  -7.784  -2.560  0.00  0.00    +0.310 C 
ATOM      8  O   UNL     1      -0.585  -7.005  -3.397  0.00  0.00    -0.252 OA
ATOM      9  C   UNL     1      -3.516  -8.844  -0.626  0.00  0.00    +0.050 C 
ATOM     10  H   UNL     1      -2.815  -8.363  -3.380  0.00  0.00    +0.152 HD
BRANCH   5  11
ATOM     11  C   UNL     1      -2.377 -10.724  -1.814  0.00  0.00    +0.137 A 
ATOM     12  C   UNL     1      -2.992 -11.229  -2.899  0.00  0.00    +0.047 A 
ATOM     13  C   UNL     1      -2.825 -12.632  -2.849  0.00  0.00    +0.041 A 
ATOM     14  C   UNL     1      -2.119 -12.900  -1.736  0.00  0.00    +0.195 A 
ATOM     15  O   UNL     1      -1.845 -11.741  -1.116  0.00  0.00    -0.465 OA
ENDBRANCH   5  11
ENDBRANCH   1   2
BRANCH   1  18
ATOM     16  C   UNL     1       0.459  -4.208   0.227  0.00  0.00    +0.228 A 
ATOM     17  N   UNL     1       0.589  -5.048  -0.773  0.00  0.00    -0.212 NA
ATOM     18  C   UNL     1       0.780  -6.280  -0.277  0.00  0.00    +0.098 A 
ATOM     19  C   UNL     1       0.766  -6.190   1.066  0.00  0.00    +0.222 A 
ATOM     20  O   UNL     1       0.571  -4.893   1.378  0.00  0.00    -0.443 OA
BRANCH  16  25
ATOM     21  C   UNL     1      -0.419   1.460  -0.240  0.00  0.00    +0.044 C 
ATOM     22  C   UNL     1      -0.189  -0.025  -0.118  0.00  0.00    -0.050 A 
ATOM     23  C   UNL     1       0.790  -0.635  -0.881  0.00  0.00    +0.004 A 
ATOM     24  C   UNL     1       1.006  -1.993  -0.774  0.00  0.00    +0.014 A 
ATOM     25  C   UNL     1       0.234  -2.752   0.107  0.00  0.00    +0.040 A 
ATOM     26  C   UNL     1      -0.752  -2.130   0.874  0.00  0.00    -0.038 A 
ATOM     27  C   UNL     1      -0.954  -0.770   0.761  0.00  0.00    +0.007 A 
ATOM     28  C   UNL     1      -1.591  -2.942   1.827  0.00  0.00    +0.044 C 
ENDBRANCH  16  25
ENDBRANCH   1  18
TORSDOF 4
