REMARK  Name = ZINC67500397
REMARK  9 active torsions:
REMARK  status: ('A' for Active; 'I' for Inactive)
REMARK    1  A    between atoms: C_1  and  C_2
REMARK    2  A    between atoms: C_2  and  C_4
REMARK    3  A    between atoms: C_2  and  C_22
REMARK    4  A    between atoms: C_4  and  N_5
REMARK    5  A    between atoms: N_5  and  C_6
REMARK    6  A    between atoms: C_6  and  C_7
REMARK    7  A    between atoms: N_9  and  C_21
REMARK    8  A    between atoms: C_11  and  C_12
REMARK    9  A    between atoms: C_22  and  N_23
REMARK                            x       y       z     vdW  Elec       q    Type
REMARK                         _______ _______ _______ _____ _____    ______ ____
ROOT
ATOM      1  C   UNL     1      -0.072  -0.244   4.874  0.00  0.00    -0.016 A 
ATOM      2  C   UNL     1       0.193   0.802   5.685  0.00  0.00    +0.110 A 
ATOM      3  N   UNL     1      -0.723   0.803   6.678  0.00  0.00    -0.274 N 
ATOM      4  N   UNL     1      -1.587  -0.281   6.478  0.00  0.00    -0.168 NA
ATOM      5  C   UNL     1      -1.202  -0.913   5.387  0.00  0.00    +0.129 A 
ATOM      6  C   UNL     1      -0.799   1.771   7.776  0.00  0.00    +0.172 C 
ENDROOT
BRANCH   5   7
ATOM      7  C   UNL     1      -1.841  -2.114   4.806  0.00  0.00    +0.156 A 
ATOM      8  C   UNL     1      -2.418  -3.110   5.519  0.00  0.00    +0.060 A 
ATOM      9  C   UNL     1      -2.913  -4.078   4.537  0.00  0.00    +0.021 A 
ATOM     10  C   UNL     1      -3.588  -5.297   4.626  0.00  0.00    +0.011 A 
ATOM     11  C   UNL     1      -3.916  -5.974   3.485  0.00  0.00    +0.001 A 
ATOM     12  C   UNL     1      -3.583  -5.458   2.241  0.00  0.00    +0.004 A 
ATOM     13  C   UNL     1      -2.916  -4.256   2.133  0.00  0.00    +0.047 A 
ATOM     14  C   UNL     1      -2.573  -3.550   3.279  0.00  0.00    +0.136 A 
ATOM     15  O   UNL     1      -1.941  -2.377   3.489  0.00  0.00    -0.453 OA
ENDBRANCH   5   7
BRANCH   1  16
ATOM     16  C   UNL     1       0.700  -0.626   3.637  0.00  0.00    -0.043 C 
BRANCH  16  17
ATOM     17  N   UNL     1      -0.010  -0.139   2.447  0.00  0.00    +0.382 N 
ATOM     18  H   UNL     1      -0.096   0.865   2.494  0.00  0.00    -0.085 HD
ATOM     19  H   UNL     1      -0.929  -0.554   2.411  0.00  0.00    -0.085 HD
BRANCH  17  20
ATOM     20  C   UNL     1       0.742  -0.511   1.242  0.00  0.00    -0.077 C 
BRANCH  20  22
ATOM     21  C   UNL     1      -0.019   1.526   0.010  0.00  0.00    +0.007 C 
ATOM     22  C   UNL     1       0.002  -0.004   0.002  0.00  0.00    -0.011 C 
BRANCH  22  23
ATOM     23  C   UNL     1       0.718  -0.497  -1.257  0.00  0.00    +0.124 C 
BRANCH  23  24
ATOM     24  N   UNL     1      -0.055  -0.114  -2.441  0.00  0.00    -0.338 N 
ATOM     25  C   UNL     1      -1.044  -0.848  -3.038  0.00  0.00    +0.104 A 
ATOM     26  C   UNL     1      -1.485  -0.128  -4.087  0.00  0.00    +0.101 A 
ATOM     27  N   UNL     1      -0.784   1.015  -4.129  0.00  0.00    -0.352 N 
ATOM     28  C   UNL     1       0.071   1.033  -3.143  0.00  0.00    +0.173 A 
ATOM     29  H   UNL     1      -0.897   1.719  -4.786  0.00  0.00    +0.166 HD
ENDBRANCH  23  24
ENDBRANCH  22  23
ENDBRANCH  20  22
ENDBRANCH  17  20
ENDBRANCH  16  17
ENDBRANCH   1  16
TORSDOF 7
