REMARK  Name = ZINC11669698
REMARK  9 active torsions:
REMARK  status: ('A' for Active; 'I' for Inactive)
REMARK    1  A    between atoms: C_1  and  C_2
REMARK    2  A    between atoms: C_2  and  C_4
REMARK    3  A    between atoms: C_2  and  S_20
REMARK    4  A    between atoms: N_6  and  C_7
REMARK    5  A    between atoms: C_7  and  C_8
REMARK    6  A    between atoms: C_7  and  C_14
REMARK    7  A    between atoms: S_20  and  C_21
REMARK    8  A    between atoms: C_24  and  C_27
REMARK    9  A    between atoms: N_25  and  N_26
REMARK                            x       y       z     vdW  Elec       q    Type
REMARK                         _______ _______ _______ _____ _____    ______ ____
ROOT
ATOM      1  C   UNL     1      -2.143   1.058   1.278  0.00  0.00    +0.227 C 
ATOM      2  O   UNL     1      -3.045   1.743   0.846  0.00  0.00    -0.275 OA
ATOM      3  N   UNL     1      -2.404  -0.171   1.767  0.00  0.00    -0.304 N 
ATOM      4  H   UNL     1      -1.682  -0.719   2.112  0.00  0.00    +0.150 HD
ENDROOT
BRANCH   1   6
ATOM      5  C   UNL     1      -0.013   1.086   0.008  0.00  0.00    +0.029 C 
ATOM      6  C   UNL     1      -0.729   1.579   1.267  0.00  0.00    +0.137 C 
BRANCH   6   7
ATOM      7  S   UNL     1      -0.753   3.389   1.277  0.00  0.00    -0.072 S 
BRANCH   7   8
ATOM      8  C   UNL     1       0.972   3.718   1.413  0.00  0.00    +0.209 A 
ATOM      9  N   UNL     1       1.932   2.823   1.488  0.00  0.00    -0.120 NA
ATOM     10  N   UNL     1       3.074   3.406   1.576  0.00  0.00    -0.123 NA
ATOM     11  C   UNL     1       2.913   4.711   1.571  0.00  0.00    +0.217 A 
ATOM     12  N   UNL     1       1.561   4.950   1.467  0.00  0.00    -0.221 N 
BRANCH  11  13
ATOM     13  C   UNL     1       3.977   5.724   1.661  0.00  0.00    +0.173 A 
ATOM     14  C   UNL     1       5.263   5.502   2.052  0.00  0.00    +0.053 A 
ATOM     15  C   UNL     1       5.927   6.742   1.986  0.00  0.00    +0.042 A 
ATOM     16  C   UNL     1       5.024   7.653   1.572  0.00  0.00    +0.196 A 
ATOM     17  O   UNL     1       3.847   7.035   1.377  0.00  0.00    -0.460 OA
ENDBRANCH  11  13
BRANCH  12  18
ATOM     18  N   UNL     1       0.938   6.165   1.426  0.00  0.00    -0.294 N 
ATOM     19  H   UNL     1       0.699   6.481   2.354  0.00  0.00    +0.163 HD
ATOM     20  H   UNL     1       1.506   6.847   0.948  0.00  0.00    +0.163 HD
ENDBRANCH  12  18
ENDBRANCH   7   8
ENDBRANCH   6   7
ENDBRANCH   1   6
BRANCH   3  21
ATOM     21  C   UNL     1      -3.779  -0.678   1.777  0.00  0.00    +0.134 C 
BRANCH  21  22
ATOM     22  C   UNL     1      -4.094  -1.300   0.442  0.00  0.00    -0.023 A 
ATOM     23  C   UNL     1      -3.140  -2.058  -0.211  0.00  0.00    +0.006 A 
ATOM     24  C   UNL     1      -3.431  -2.634  -1.433  0.00  0.00    +0.000 A 
ATOM     25  C   UNL     1      -4.674  -2.442  -2.009  0.00  0.00    +0.000 A 
ATOM     26  C   UNL     1      -5.626  -1.680  -1.359  0.00  0.00    +0.000 A 
ATOM     27  C   UNL     1      -5.337  -1.109  -0.134  0.00  0.00    +0.006 A 
ENDBRANCH  21  22
BRANCH  21  28
ATOM     28  C   UNL     1      -3.923  -1.714   2.861  0.00  0.00    -0.023 A 
ATOM     29  C   UNL     1      -2.911  -2.630   3.082  0.00  0.00    +0.006 A 
ATOM     30  C   UNL     1      -3.042  -3.578   4.080  0.00  0.00    +0.000 A 
ATOM     31  C   UNL     1      -4.189  -3.616   4.850  0.00  0.00    +0.000 A 
ATOM     32  C   UNL     1      -5.203  -2.704   4.626  0.00  0.00    +0.000 A 
ATOM     33  C   UNL     1      -5.070  -1.753   3.632  0.00  0.00    +0.006 A 
ENDBRANCH  21  28
ENDBRANCH   3  21
TORSDOF 8
