REMARK  Name = ZINC13574518
REMARK  16 active torsions:
REMARK  status: ('A' for Active; 'I' for Inactive)
REMARK    1  A    between atoms: C_1  and  C_2
REMARK    2  A    between atoms: C_2  and  O_3
REMARK    3  A    between atoms: O_3  and  C_4
REMARK    4  A    between atoms: N_6  and  N_7
REMARK    5  A    between atoms: C_8  and  C_9
REMARK    6  A    between atoms: C_8  and  C_10
REMARK    7  A    between atoms: C_10  and  O_42
REMARK    8  A    between atoms: C_11  and  O_38
REMARK    9  A    between atoms: C_16  and  C_37
REMARK   10  A    between atoms: C_26  and  C_36
REMARK   11  A    between atoms: C_29  and  O_32
REMARK   12  A    between atoms: O_32  and  C_33
REMARK   13  A    between atoms: C_33  and  C_35
REMARK   14  A    between atoms: O_38  and  C_39
REMARK   15  A    between atoms: C_39  and  C_41
REMARK   16  A    between atoms: O_42  and  C_43
REMARK                            x       y       z     vdW  Elec       q    Type
REMARK                         _______ _______ _______ _____ _____    ______ ____
ROOT
ATOM      1  C   UNL     1      -6.212   3.186   4.485  0.00  0.00    +0.150 C 
ATOM      2  C   UNL     1      -6.382   4.428   3.591  0.00  0.00    +0.215 C 
ATOM      3  C   UNL     1      -5.104   5.268   3.721  0.00  0.00    +0.052 C 
ATOM      4  C   UNL     1      -4.032   4.350   4.354  0.00  0.00    +0.005 C 
ATOM      5  C   UNL     1      -4.812   3.263   5.090  0.00  0.00    +0.009 C 
ATOM      6  C   UNL     1      -4.106   1.946   5.246  0.00  0.00    +0.010 C 
ATOM      7  C   UNL     1      -3.236   1.523   4.064  0.00  0.00    +0.005 C 
ATOM      8  C   UNL     1      -2.269   2.653   3.734  0.00  0.00    +0.003 C 
ATOM      9  C   UNL     1      -3.088   3.861   3.274  0.00  0.00    +0.001 C 
ATOM     10  C   UNL     1      -3.802   3.507   1.972  0.00  0.00    +0.031 C 
ATOM     11  C   UNL     1      -2.744   3.173   0.948  0.00  0.00    -0.027 C 
ATOM     12  C   UNL     1      -1.610   2.638   1.290  0.00  0.00    -0.064 C 
ATOM     13  C   UNL     1      -1.227   2.286   2.699  0.00  0.00    -0.008 C 
ATOM     14  C   UNL     1       0.099   2.988   3.023  0.00  0.00    +0.015 C 
ATOM     15  C   UNL     1       1.158   2.660   1.976  0.00  0.00    +0.046 C 
ATOM     16  C   UNL     1       0.708   3.072   0.576  0.00  0.00    +0.180 C 
ATOM     17  C   UNL     1      -0.590   2.349   0.200  0.00  0.00    +0.075 C 
ATOM     18  C   UNL     1      -0.966   0.782   2.744  0.00  0.00    +0.016 C 
ATOM     19  C   UNL     1      -5.013   3.795   6.539  0.00  0.00    +0.015 C 
ENDROOT
BRANCH   1  21
ATOM     20  N   UNL     1      -6.240   1.932   2.424  0.00  0.00    -0.184 NA
ATOM     21  C   UNL     1      -6.445   1.934   3.687  0.00  0.00    +0.070 C 
ATOM     22  C   UNL     1      -6.920   0.680   4.375  0.00  0.00    +0.065 C 
BRANCH  20  25
ATOM     23  C   UNL     1      -6.321   0.789   0.337  0.00  0.00    +0.420 C 
ATOM     24  O   UNL     1      -6.683  -0.154  -0.338  0.00  0.00    -0.225 OA
ATOM     25  N   UNL     1      -6.573   0.805   1.661  0.00  0.00    -0.172 N 
ATOM     26  H   UNL     1      -6.986   0.037   2.086  0.00  0.00    +0.181 HD
BRANCH  23  27
ATOM     27  O   UNL     1      -5.667   1.817  -0.237  0.00  0.00    -0.450 OA
BRANCH  27  29
ATOM     28  C   UNL     1      -4.628   2.944  -2.129  0.00  0.00    +0.048 C 
ATOM     29  C   UNL     1      -5.494   1.766  -1.677  0.00  0.00    +0.230 C 
ENDBRANCH  27  29
ENDBRANCH  23  27
ENDBRANCH  20  25
ENDBRANCH   1  21
BRANCH   1  30
ATOM     30  O   UNL     1      -7.184   3.244   5.547  0.00  0.00    -0.366 OA
ATOM     31  C   UNL     1      -8.539   3.256   5.095  0.00  0.00    +0.195 C 
ENDBRANCH   1  30
BRANCH  16  32
ATOM     32  O   UNL     1       0.490   4.507   0.537  0.00  0.00    -0.461 OA
BRANCH  32  33
ATOM     33  C   UNL     1       0.701   5.124  -0.637  0.00  0.00    +0.304 C 
ATOM     34  O   UNL     1       1.055   4.485  -1.599  0.00  0.00    -0.251 OA
ATOM     35  C   UNL     1       0.495   6.612  -0.754  0.00  0.00    +0.136 C 
ENDBRANCH  32  33
ENDBRANCH  16  32
BRANCH   2  36
ATOM     36  O   UNL     1      -6.609   4.032   2.213  0.00  0.00    -0.458 OA
BRANCH  36  37
ATOM     37  C   UNL     1      -7.366   4.847   1.462  0.00  0.00    +0.304 C 
ATOM     38  O   UNL     1      -7.824   5.858   1.940  0.00  0.00    -0.251 OA
ATOM     39  C   UNL     1      -7.645   4.501   0.022  0.00  0.00    +0.136 C 
ENDBRANCH  36  37
ENDBRANCH   2  36
TORSDOF 9
