REMARK  Name = ZINC02919529
REMARK  6 active torsions:
REMARK  status: ('A' for Active; 'I' for Inactive)
REMARK    1  A    between atoms: C_1  and  C_2
REMARK    2  A    between atoms: C_2  and  C_3
REMARK    3  A    between atoms: C_6  and  C_9
REMARK    4  A    between atoms: C_11  and  C_19
REMARK    5  A    between atoms: C_24  and  O_25
REMARK    6  A    between atoms: O_25  and  C_26
REMARK                            x       y       z     vdW  Elec       q    Type
REMARK                         _______ _______ _______ _____ _____    ______ ____
ROOT
ATOM      1  C   UNL     1       2.698  -1.862  -4.737  0.00  0.00    +0.073 C 
ATOM      2  C   UNL     1       4.026  -2.072  -4.691  0.00  0.00    +0.030 C 
ATOM      3  C   UNL     1       4.699  -2.563  -5.961  0.00  0.00    +0.156 C 
ATOM      4  N   UNL     1       3.828  -2.761  -7.123  0.00  0.00    -0.208 N 
ATOM      5  C   UNL     1       2.478  -2.497  -6.999  0.00  0.00    +0.237 C 
ATOM      6  N   UNL     1       1.974  -2.080  -5.862  0.00  0.00    -0.213 NA
ATOM      7  N   UNL     1       1.913  -2.758  -8.199  0.00  0.00    -0.205 NA
ATOM      8  C   UNL     1       2.818  -3.162  -9.048  0.00  0.00    +0.203 C 
ATOM      9  N   UNL     1       4.035  -3.186  -8.438  0.00  0.00    -0.251 N 
ATOM     10  H   UNL     1       4.880  -3.446  -8.837  0.00  0.00    +0.171 HD
ENDROOT
BRANCH   3  11
ATOM     11  C   UNL     1       5.763  -1.565  -6.343  0.00  0.00    +0.021 A 
ATOM     12  C   UNL     1       5.477  -0.564  -7.250  0.00  0.00    +0.024 A 
ATOM     13  C   UNL     1       6.453   0.352  -7.601  0.00  0.00    +0.018 A 
ATOM     14  C   UNL     1       7.717   0.267  -7.044  0.00  0.00    +0.019 A 
ATOM     15  C   UNL     1       8.006  -0.733  -6.136  0.00  0.00    +0.047 A 
ATOM     16  C   UNL     1       7.027  -1.649  -5.779  0.00  0.00    +0.132 A 
ATOM     17 BR   UNL     1       6.059   1.722  -8.844  0.00  0.00    -0.050 Br
BRANCH  16  18
ATOM     18  O   UNL     1       7.309  -2.631  -4.882  0.00  0.00    -0.434 OA
BRANCH  18  19
ATOM     19  C   UNL     1       8.632  -2.656  -4.342  0.00  0.00    +0.541 C 
ATOM     20  F   UNL     1       9.556  -2.819  -5.380  0.00  0.00    -0.166 F 
ATOM     21  F   UNL     1       8.886  -1.453  -3.675  0.00  0.00    -0.166 F 
ENDBRANCH  18  19
ENDBRANCH  16  18
ENDBRANCH   3  11
BRANCH   1  25
ATOM     22  C   UNL     1       0.707  -0.490  -1.238  0.00  0.00    -0.048 A 
ATOM     23  C   UNL     1      -0.013  -0.718  -2.396  0.00  0.00    +0.004 A 
ATOM     24  C   UNL     1       0.627  -1.163  -3.535  0.00  0.00    +0.010 A 
ATOM     25  C   UNL     1       2.003  -1.383  -3.516  0.00  0.00    +0.000 A 
ATOM     26  C   UNL     1       2.724  -1.152  -2.346  0.00  0.00    +0.010 A 
ATOM     27  C   UNL     1       2.074  -0.701  -1.215  0.00  0.00    +0.004 A 
BRANCH  22  29
ATOM     28  C   UNL     1      -0.019   1.526   0.010  0.00  0.00    +0.009 C 
ATOM     29  C   UNL     1       0.002  -0.004   0.002  0.00  0.00    +0.032 C 
ENDBRANCH  22  29
ENDBRANCH   1  25
TORSDOF 5
