REMARK  Name = ZINC42139215
REMARK  5 active torsions:
REMARK  status: ('A' for Active; 'I' for Inactive)
REMARK    1  A    between atoms: C_1  and  C_2
REMARK    2  A    between atoms: C_2  and  C_3
REMARK    3  A    between atoms: C_7  and  C_21
REMARK    4  A    between atoms: C_12  and  C_18
REMARK    5  A    between atoms: C_14  and  N_17
REMARK                            x       y       z     vdW  Elec       q    Type
REMARK                         _______ _______ _______ _____ _____    ______ ____
ROOT
ATOM      1  C   UNL     1      -1.456  -0.581  -0.024  0.00  0.00    +0.100 C 
ATOM      2  C   UNL     1      -1.444  -2.113   0.025  0.00  0.00    +0.182 C 
ATOM      3  O   UNL     1      -0.879  -2.618  -1.188  0.00  0.00    -0.373 OA
ATOM      4  C   UNL     1      -1.624  -2.287  -2.363  0.00  0.00    +0.132 C 
ATOM      5  C   UNL     1      -1.645  -0.764  -2.534  0.00  0.00    +0.138 C 
ATOM      6  N   UNL     1      -2.110  -0.161  -1.274  0.00  0.00    -0.307 N 
ATOM      7  C   UNL     1      -3.134   0.772  -1.264  0.00  0.00    +0.134 A 
ATOM      8  C   UNL     1      -4.469   0.343  -1.183  0.00  0.00    +0.078 A 
ATOM      9  C   UNL     1      -5.488   1.302  -1.174  0.00  0.00    +0.040 A 
ATOM     10  C   UNL     1      -5.131   2.643  -1.246  0.00  0.00    +0.044 A 
ATOM     11  C   UNL     1      -3.787   2.987  -1.323  0.00  0.00    +0.135 A 
ATOM     12  N   UNL     1      -2.846   2.063  -1.324  0.00  0.00    -0.238 NA
ATOM     13  C   UNL     1      -0.964  -2.930  -3.584  0.00  0.00    +0.039 C 
ENDROOT
BRANCH   8  14
ATOM     14  C   UNL     1      -4.791  -1.094  -1.110  0.00  0.00    +0.245 C 
ATOM     15  O   UNL     1      -3.897  -1.913  -1.012  0.00  0.00    -0.270 OA
ATOM     16  N   UNL     1      -6.075  -1.500  -1.151  0.00  0.00    -0.325 N 
ATOM     17  H   UNL     1      -6.788  -0.847  -1.229  0.00  0.00    +0.145 HD
ATOM     18  H   UNL     1      -6.287  -2.445  -1.103  0.00  0.00    +0.145 HD
ENDBRANCH   8  14
BRANCH  10  19
ATOM     19  N   UNL     1      -6.117   3.638  -1.241  0.00  0.00    -0.357 N 
ATOM     20  H   UNL     1      -7.053   3.392  -1.187  0.00  0.00    +0.142 HD
ATOM     21  H   UNL     1      -5.862   4.573  -1.291  0.00  0.00    +0.142 HD
ENDBRANCH  10  19
BRANCH   1  23
ATOM     22  C   UNL     1      -0.041   1.475   0.072  0.00  0.00    +0.006 C 
ATOM     23  C   UNL     1      -0.021  -0.053   0.009  0.00  0.00    +0.021 C 
ENDBRANCH   1  23
TORSDOF 3
