REMARK  Name = ZINC43772688
REMARK  11 active torsions:
REMARK  status: ('A' for Active; 'I' for Inactive)
REMARK    1  A    between atoms: C_1  and  C_2
REMARK    2  A    between atoms: C_2  and  C_4
REMARK    3  A    between atoms: C_2  and  C_12
REMARK    4  A    between atoms: C_5  and  C_6
REMARK    5  A    between atoms: C_6  and  C_8
REMARK    6  A    between atoms: C_6  and  O_11
REMARK    7  A    between atoms: C_16  and  C_36
REMARK    8  A    between atoms: C_17  and  C_35
REMARK    9  A    between atoms: C_22  and  C_23
REMARK   10  A    between atoms: C_26  and  O_34
REMARK   11  A    between atoms: C_29  and  O_33
REMARK                            x       y       z     vdW  Elec       q    Type
REMARK                         _______ _______ _______ _____ _____    ______ ____
ROOT
ATOM      1  C   UNL     1       0.858  -0.511   1.249  0.00  0.00    +0.002 C 
ATOM      2  C   UNL     1       2.368  -0.158   1.263  0.00  0.00    +0.005 C 
ATOM      3  C   UNL     1       3.131  -1.510   1.359  0.00  0.00    +0.012 C 
ATOM      4  C   UNL     1       2.097  -2.437   2.001  0.00  0.00    -0.005 C 
ATOM      5  C   UNL     1       0.805  -2.030   1.235  0.00  0.00    -0.020 C 
ATOM      6  C   UNL     1      -0.362  -2.714   1.908  0.00  0.00    +0.008 C 
ATOM      7  C   UNL     1      -0.227  -4.224   1.651  0.00  0.00    +0.005 C 
ATOM      8  C   UNL     1       1.090  -4.776   2.196  0.00  0.00    +0.031 C 
ATOM      9  C   UNL     1       2.265  -3.907   1.754  0.00  0.00    -0.063 C 
ATOM     10  C   UNL     1       3.361  -4.415   1.189  0.00  0.00    +0.000 C 
ATOM     11  C   UNL     1       0.901  -2.526  -0.210  0.00  0.00    +0.012 C 
ATOM     12  C   UNL     1       1.970  -2.152   3.498  0.00  0.00    +0.016 C 
ENDROOT
BRANCH  10  13
ATOM     13  C   UNL     1       3.469  -5.860   0.972  0.00  0.00    +0.004 C 
ATOM     14  C   UNL     1       4.578  -6.374   0.401  0.00  0.00    -0.040 C 
ATOM     15  C   UNL     1       4.726  -7.862   0.154  0.00  0.00    +0.067 C 
ATOM     16  C   UNL     1       5.239  -8.065  -1.276  0.00  0.00    +0.122 C 
ATOM     17  C   UNL     1       6.564  -7.325  -1.460  0.00  0.00    +0.067 C 
ATOM     18  C   UNL     1       6.333  -5.814  -1.361  0.00  0.00    +0.147 C 
ATOM     19  C   UNL     1       5.704  -5.514  -0.019  0.00  0.00    -0.023 C 
ATOM     20  C   UNL     1       6.147  -4.519   0.749  0.00  0.00    +0.015 C 
BRANCH  18  21
ATOM     21  O   UNL     1       7.581  -5.127  -1.474  0.00  0.00    -0.387 OA
ATOM     22  H   UNL     1       7.507  -4.165  -1.419  0.00  0.00    +0.210 HD
ENDBRANCH  18  21
BRANCH  16  23
ATOM     23  O   UNL     1       5.438  -9.460  -1.515  0.00  0.00    -0.391 OA
ATOM     24  H   UNL     1       4.637  -9.993  -1.421  0.00  0.00    +0.210 HD
ENDBRANCH  16  23
ENDBRANCH  10  13
BRANCH   1  26
ATOM     25  C   UNL     1       0.287   1.583   0.011  0.00  0.00    +0.012 C 
ATOM     26  C   UNL     1       0.192   0.056  -0.006  0.00  0.00    +0.012 C 
BRANCH  26  27
ATOM     27  C   UNL     1      -1.258  -0.356  -0.035  0.00  0.00    -0.025 C 
ATOM     28  C   UNL     1      -1.715  -1.071  -1.033  0.00  0.00    +0.000 C 
BRANCH  28  29
ATOM     29  C   UNL     1      -3.165  -1.483  -1.062  0.00  0.00    +0.140 C 
BRANCH  29  30
ATOM     30  C   UNL     1      -3.799  -1.023  -2.376  0.00  0.00    +0.022 C 
ATOM     31  C   UNL     1      -4.847   0.090  -2.303  0.00  0.00    +0.007 C 
ATOM     32  C   UNL     1      -5.278  -1.348  -2.599  0.00  0.00    +0.007 C 
ENDBRANCH  29  30
BRANCH  29  33
ATOM     33  O   UNL     1      -3.853  -0.881   0.036  0.00  0.00    -0.387 OA
ATOM     34  H   UNL     1      -3.831   0.086   0.032  0.00  0.00    +0.210 HD
ENDBRANCH  29  33
ENDBRANCH  28  29
ENDBRANCH  26  27
ENDBRANCH   1  26
TORSDOF 8
