REMARK  Name = ZINC37821542
REMARK  4 active torsions:
REMARK  status: ('A' for Active; 'I' for Inactive)
REMARK    1  A    between atoms: C_1  and  C_2
REMARK    2  A    between atoms: C_6  and  C_20
REMARK    3  A    between atoms: C_10  and  C_12
REMARK    4  A    between atoms: C_16  and  N_18
REMARK                            x       y       z     vdW  Elec       q    Type
REMARK                         _______ _______ _______ _____ _____    ______ ____
ROOT
ATOM      1  C   UNL     1       0.058   1.325  -0.137  0.00  0.00    +0.028 C 
ATOM      2  C   UNL     1      -0.426  -0.039   0.358  0.00  0.00    +0.073 C 
ATOM      3  C   UNL     1      -0.288  -1.072  -0.764  0.00  0.00    +0.023 C 
ATOM      4  C   UNL     1      -0.642  -2.459  -0.223  0.00  0.00    +0.016 C 
ATOM      5  C   UNL     1       0.329  -2.833   0.900  0.00  0.00    +0.092 C 
ATOM      6  C   UNL     1       0.198  -1.820   2.042  0.00  0.00    +0.121 C 
ATOM      7  N   UNL     1       0.391  -0.467   1.502  0.00  0.00    -0.294 N 
ATOM      8  C   UNL     1       1.304   0.365   2.042  0.00  0.00    +0.247 C 
ATOM      9  O   UNL     1       1.378   1.517   1.660  0.00  0.00    -0.270 OA
ENDROOT
BRANCH   8  10
ATOM     10  C   UNL     1       2.214  -0.123   3.099  0.00  0.00    +0.039 A 
ATOM     11  C   UNL     1       2.661  -1.446   3.082  0.00  0.00    +0.014 A 
ATOM     12  C   UNL     1       3.510  -1.900   4.070  0.00  0.00    +0.022 A 
ATOM     13  C   UNL     1       3.922  -1.049   5.080  0.00  0.00    +0.062 A 
ATOM     14  C   UNL     1       3.483   0.271   5.104  0.00  0.00    +0.044 A 
ATOM     15  C   UNL     1       2.635   0.738   4.113  0.00  0.00    +0.037 A 
ATOM     16 CL   UNL     1       4.990  -1.629   6.319  0.00  0.00    -0.082 Cl
BRANCH  14  17
ATOM     17  N   UNL     1       3.902   1.128   6.127  0.00  0.00    -0.357 N 
ATOM     18  H   UNL     1       4.499   0.802   6.818  0.00  0.00    +0.142 HD
ATOM     19  H   UNL     1       3.596   2.048   6.144  0.00  0.00    +0.142 HD
ENDBRANCH  14  17
ENDBRANCH   8  10
BRANCH   5  20
ATOM     20  C   UNL     1       0.001  -4.212   1.410  0.00  0.00    +0.215 C 
ATOM     21  O   UNL     1      -0.919  -4.835   0.925  0.00  0.00    -0.276 OA
ATOM     22  N   UNL     1       0.730  -4.753   2.407  0.00  0.00    -0.329 N 
ATOM     23  H   UNL     1       1.466  -4.254   2.795  0.00  0.00    +0.145 HD
ATOM     24  H   UNL     1       0.519  -5.641   2.735  0.00  0.00    +0.145 HD
ENDBRANCH   5  20
TORSDOF 3
