REMARK  Name = ZINC22024036
REMARK  10 active torsions:
REMARK  status: ('A' for Active; 'I' for Inactive)
REMARK    1  A    between atoms: C_6  and  S_7
REMARK    2  A    between atoms: S_7  and  N_10
REMARK    3  A    between atoms: N_10  and  C_11
REMARK    4  A    between atoms: C_11  and  C_12
REMARK    5  A    between atoms: C_12  and  C_13
REMARK    6  A    between atoms: C_13  and  C_14
REMARK    7  A    between atoms: C_14  and  C_15
REMARK    8  A    between atoms: C_15  and  C_16
REMARK    9  A    between atoms: N_18  and  C_19
REMARK   10  A    between atoms: C_22  and  N_26
REMARK                            x       y       z     vdW  Elec       q    Type
REMARK                         _______ _______ _______ _____ _____    ______ ____
ROOT
ATOM      1  C   UNL     1       5.629   0.803  -4.670  0.00  0.00    +0.002 C 
ENDROOT
BRANCH   1   2
ATOM      2  C   UNL     1       5.323  -0.399  -3.775  0.00  0.00    +0.017 C 
BRANCH   2   3
ATOM      3  C   UNL     1       4.620   0.078  -2.503  0.00  0.00    +0.106 C 
BRANCH   3   4
ATOM      4  N   UNL     1       4.326  -1.074  -1.646  0.00  0.00    -0.190 NA
ATOM      5  H   UNL     1       4.218  -2.075  -2.089  0.00  0.00    +0.148 HD
BRANCH   4   6
ATOM      6  S   UNL     1       3.913  -0.842  -0.059  0.00  0.00    +0.059 S 
ATOM      7  O   UNL     1       4.878   0.047   0.486  0.00  0.00    -0.153 OA
ATOM      8  O   UNL     1       3.667  -2.129   0.489  0.00  0.00    -0.153 OA
BRANCH   6  14
ATOM      9  C   UNL     1       1.188  -0.695  -0.034  0.00  0.00    +0.032 A 
ATOM     10  C   UNL     1      -0.021  -0.026  -0.023  0.00  0.00    +0.051 A 
ATOM     11  C   UNL     1      -0.049   1.361  -0.019  0.00  0.00    +0.162 A 
ATOM     12  C   UNL     1       1.144   2.075  -0.024  0.00  0.00    +0.164 A 
ATOM     13  C   UNL     1       2.354   1.398  -0.036  0.00  0.00    +0.078 A 
ATOM     14  C   UNL     1       2.373   0.016  -0.042  0.00  0.00    +0.109 A 
ATOM     15  O   UNL     1       1.140   3.436  -0.012  0.00  0.00    -0.485 OA
ATOM     16  C   UNL     1      -0.086   4.080  -0.376  0.00  0.00    +0.270 C 
ATOM     17  C   UNL     1      -1.234   3.385   0.369  0.00  0.00    +0.270 C 
ATOM     18  O   UNL     1      -1.247   2.006  -0.016  0.00  0.00    -0.485 OA
ENDBRANCH   6  14
ENDBRANCH   4   6
ENDBRANCH   3   4
ENDBRANCH   2   3
ENDBRANCH   1   2
BRANCH   1  19
ATOM     19  C   UNL     1       6.332   0.327  -5.942  0.00  0.00    +0.009 C 
BRANCH  19  20
ATOM     20  C   UNL     1       6.639   1.529  -6.837  0.00  0.00    +0.096 C 
BRANCH  20  21
ATOM     21  C   UNL     1       7.331   1.060  -8.091  0.00  0.00    +0.217 C 
ATOM     22  O   UNL     1       7.557  -0.121  -8.252  0.00  0.00    -0.275 OA
ATOM     23  N   UNL     1       7.699   1.951  -9.032  0.00  0.00    -0.285 N 
ATOM     24  H   UNL     1       7.427   3.011  -8.921  0.00  0.00    +0.155 HD
BRANCH  23  25
ATOM     25  C   UNL     1       8.428   1.528 -10.151  0.00  0.00    +0.036 A 
ATOM     26  C   UNL     1       9.390   2.360 -10.708  0.00  0.00    +0.045 A 
ATOM     27  C   UNL     1      10.113   1.941 -11.809  0.00  0.00    +0.065 A 
ATOM     28  C   UNL     1       9.868   0.691 -12.365  0.00  0.00    +0.062 A 
ATOM     29  C   UNL     1       8.902  -0.139 -11.811  0.00  0.00    +0.065 A 
ATOM     30  C   UNL     1       8.184   0.279 -10.707  0.00  0.00    +0.045 A 
ATOM     31 CL   UNL     1       8.597  -1.700 -12.505  0.00  0.00    -0.082 Cl
ATOM     32 CL   UNL     1      11.320   2.978 -12.501  0.00  0.00    -0.082 Cl
BRANCH  28  33
ATOM     33  N   UNL     1      10.597   0.268 -13.484  0.00  0.00    -0.356 N 
ATOM     34  H   UNL     1      10.404  -0.721 -13.924  0.00  0.00    +0.142 HD
ATOM     35  H   UNL     1      11.362   0.925 -13.922  0.00  0.00    +0.142 HD
ENDBRANCH  28  33
ENDBRANCH  23  25
ENDBRANCH  20  21
ENDBRANCH  19  20
ENDBRANCH   1  19
TORSDOF 10
