REMARK  Name = ZINC36392916
REMARK  8 active torsions:
REMARK  status: ('A' for Active; 'I' for Inactive)
REMARK    1  A    between atoms: C_1  and  C_2
REMARK    2  A    between atoms: C_4  and  C_14
REMARK    3  A    between atoms: C_6  and  C_11
REMARK    4  A    between atoms: N_16  and  C_17
REMARK    5  A    between atoms: C_17  and  C_19
REMARK    6  A    between atoms: C_17  and  C_20
REMARK    7  A    between atoms: N_23  and  C_26
REMARK    8  A    between atoms: C_24  and  C_25
REMARK                            x       y       z     vdW  Elec       q    Type
REMARK                         _______ _______ _______ _____ _____    ______ ____
ROOT
ATOM      1  C   UNL     1      -0.260   0.798  -3.186  0.00  0.00    +0.245 C 
ATOM      2  O   UNL     1      -0.066   1.778  -2.494  0.00  0.00    -0.270 OA
ATOM      3  N   UNL     1      -0.496   0.941  -4.505  0.00  0.00    -0.305 N 
ATOM      4  H   UNL     1      -0.651   0.159  -5.057  0.00  0.00    +0.150 HD
ENDROOT
BRANCH   1   8
ATOM      5  C   UNL     1      -1.671   1.547  -0.412  0.00  0.00    +0.070 C 
ATOM      6  C   UNL     1      -1.403   0.069  -0.290  0.00  0.00    +0.091 A 
ATOM      7  C   UNL     1      -0.765  -0.782  -1.294  0.00  0.00    +0.076 A 
ATOM      8  C   UNL     1      -0.238  -0.552  -2.580  0.00  0.00    +0.053 A 
ATOM      9  C   UNL     1       0.306  -1.639  -3.263  0.00  0.00    +0.037 A 
ATOM     10  C   UNL     1       0.306  -2.886  -2.658  0.00  0.00    +0.049 A 
ATOM     11  N   UNL     1      -0.194  -3.071  -1.456  0.00  0.00    -0.215 NA
ATOM     12  C   UNL     1      -0.725  -2.079  -0.756  0.00  0.00    +0.259 A 
ATOM     13  O   UNL     1      -1.289  -2.013   0.467  0.00  0.00    -0.334 OA
ATOM     14  N   UNL     1      -1.691  -0.684   0.728  0.00  0.00    -0.080 NA
BRANCH  10  15
ATOM     15  C   UNL     1       0.894  -4.061  -3.397  0.00  0.00    +0.038 C 
ATOM     16  C   UNL     1       1.110  -3.911  -4.905  0.00  0.00    +0.010 C 
ATOM     17  C   UNL     1      -0.015  -4.805  -4.379  0.00  0.00    +0.010 C 
ENDBRANCH  10  15
ENDBRANCH   1   8
BRANCH   3  18
ATOM     18  C   UNL     1      -0.518   2.277  -5.105  0.00  0.00    +0.104 C 
ATOM     19  C   UNL     1       0.908   2.699  -5.464  0.00  0.00    +0.033 C 
BRANCH  18  20
ATOM     20  C   UNL     1      -1.364   2.254  -6.352  0.00  0.00    +0.013 A 
ATOM     21  C   UNL     1      -1.712   1.117  -7.089  0.00  0.00    +0.140 A 
ATOM     22  N   UNL     1      -2.452   1.496  -8.100  0.00  0.00    -0.174 NA
ATOM     23  N   UNL     1      -2.599   2.888  -8.039  0.00  0.00    -0.237 N 
ATOM     24  C   UNL     1      -1.925   3.329  -6.953  0.00  0.00    +0.047 A 
ATOM     25  C   UNL     1      -1.817   4.761  -6.496  0.00  0.00    +0.066 C 
BRANCH  23  26
ATOM     26  C   UNL     1      -3.321   3.682  -8.942  0.00  0.00    +0.066 A 
ATOM     27  C   UNL     1      -2.800   4.896  -9.369  0.00  0.00    +0.030 A 
ATOM     28  C   UNL     1      -3.512   5.677 -10.258  0.00  0.00    +0.040 A 
ATOM     29  C   UNL     1      -4.745   5.249 -10.724  0.00  0.00    +0.124 A 
ATOM     30  C   UNL     1      -5.265   4.038 -10.299  0.00  0.00    +0.040 A 
ATOM     31  C   UNL     1      -4.553   3.252  -9.414  0.00  0.00    +0.030 A 
ATOM     32  F   UNL     1      -5.440   6.014 -11.594  0.00  0.00    -0.205 F 
ENDBRANCH  23  26
ENDBRANCH  18  20
ENDBRANCH   3  18
TORSDOF 5
