REMARK  Name = ZINC09208125
REMARK  6 active torsions:
REMARK  status: ('A' for Active; 'I' for Inactive)
REMARK    1  A    between atoms: C_4  and  O_25
REMARK    2  A    between atoms: C_5  and  C_7
REMARK    3  A    between atoms: N_18  and  C_19
REMARK    4  A    between atoms: C_19  and  C_20
REMARK    5  A    between atoms: O_25  and  C_26
REMARK    6  A    between atoms: C_26  and  C_27
REMARK                            x       y       z     vdW  Elec       q    Type
REMARK                         _______ _______ _______ _____ _____    ______ ____
ROOT
ATOM      1  C   UNL     1      -2.557   3.865   0.047  0.00  0.00    +0.196 C 
ATOM      2  N   UNL     1      -2.431   5.106  -0.727  0.00  0.00    -0.321 N 
ATOM      3  C   UNL     1      -2.423   5.026  -2.115  0.00  0.00    +0.041 A 
ATOM      4  C   UNL     1      -1.739   5.939  -2.898  0.00  0.00    +0.024 A 
ATOM      5  C   UNL     1      -1.756   5.808  -4.274  0.00  0.00    +0.002 A 
ATOM      6  C   UNL     1      -2.450   4.769  -4.874  0.00  0.00    +0.001 A 
ATOM      7  C   UNL     1      -3.138   3.851  -4.108  0.00  0.00    +0.015 A 
ATOM      8  C   UNL     1      -3.132   3.973  -2.721  0.00  0.00    +0.058 A 
ATOM      9  C   UNL     1      -3.853   3.023  -1.855  0.00  0.00    +0.250 C 
ATOM     10  O   UNL     1      -4.672   2.259  -2.329  0.00  0.00    -0.270 OA
ATOM     11  N   UNL     1      -3.595   3.011  -0.531  0.00  0.00    -0.267 N 
ATOM     12  H   UNL     1      -2.355   5.963  -0.280  0.00  0.00    +0.148 HD
ENDROOT
BRANCH   1  17
ATOM     13  C   UNL     1      -0.013   1.076   0.008  0.00  0.00    +0.001 A 
ATOM     14  C   UNL     1       1.176   1.782   0.000  0.00  0.00    +0.004 A 
ATOM     15  C   UNL     1       1.160   3.163   0.007  0.00  0.00    +0.046 A 
ATOM     16  C   UNL     1      -0.050   3.842   0.023  0.00  0.00    +0.128 A 
ATOM     17  C   UNL     1      -1.241   3.131   0.031  0.00  0.00    +0.032 A 
ATOM     18  C   UNL     1      -1.220   1.750   0.017  0.00  0.00    +0.011 A 
BRANCH  16  19
ATOM     19  O   UNL     1      -0.069   5.201   0.030  0.00  0.00    -0.482 OA
BRANCH  19  20
ATOM     20  C   UNL     1       1.196   5.867   0.022  0.00  0.00    +0.324 C 
BRANCH  20  21
ATOM     21  C   UNL     1       0.978   7.358   0.032  0.00  0.00    +0.253 C 
ATOM     22  O   UNL     1      -0.149   7.806   0.045  0.00  0.00    -0.272 OA
ATOM     23  N   UNL     1       2.036   8.193   0.026  0.00  0.00    -0.299 N 
ATOM     24  C   UNL     1       3.449   7.787   0.017  0.00  0.00    +0.108 C 
ATOM     25  C   UNL     1       4.296   9.076   0.038  0.00  0.00    +0.020 C 
ATOM     26  C   UNL     1       3.320  10.122   0.637  0.00  0.00    +0.020 C 
ATOM     27  C   UNL     1       1.967   9.666   0.035  0.00  0.00    +0.108 C 
ENDBRANCH  20  21
ENDBRANCH  19  20
ENDBRANCH  16  19
ENDBRANCH   1  17
BRANCH  11  28
ATOM     28  C   UNL     1      -4.368   2.126   0.345  0.00  0.00    +0.184 C 
BRANCH  28  29
ATOM     29  C   UNL     1      -5.590   2.853   0.841  0.00  0.00    +0.122 A 
ATOM     30  C   UNL     1      -6.793   2.873   0.239  0.00  0.00    +0.046 A 
ATOM     31  C   UNL     1      -7.641   3.670   1.042  0.00  0.00    +0.041 A 
ATOM     32  C   UNL     1      -6.905   4.089   2.088  0.00  0.00    +0.195 A 
ATOM     33  O   UNL     1      -5.666   3.587   1.964  0.00  0.00    -0.466 OA
ENDBRANCH  28  29
ENDBRANCH  11  28
TORSDOF 6
