REMARK  Name = ZINC39676428
REMARK  8 active torsions:
REMARK  status: ('A' for Active; 'I' for Inactive)
REMARK    1  A    between atoms: C_1  and  C_2
REMARK    2  A    between atoms: C_2  and  C_4
REMARK    3  A    between atoms: C_2  and  O_32
REMARK    4  A    between atoms: C_8  and  C_17
REMARK    5  A    between atoms: N_19  and  C_20
REMARK    6  A    between atoms: C_20  and  C_21
REMARK    7  A    between atoms: C_21  and  C_22
REMARK    8  A    between atoms: O_32  and  C_33
REMARK                            x       y       z     vdW  Elec       q    Type
REMARK                         _______ _______ _______ _____ _____    ______ ____
ROOT
ATOM      1  C   UNL     1       0.738  -0.455  -0.983  0.00  0.00    +0.256 C 
ATOM      2  O   UNL     1       1.863  -0.868  -0.801  0.00  0.00    -0.272 OA
ATOM      3  N   UNL     1       0.207  -0.465  -2.222  0.00  0.00    -0.297 N 
ATOM      4  C   UNL     1      -1.165  -0.079  -2.625  0.00  0.00    +0.121 C 
ATOM      5  C   UNL     1      -0.982   0.670  -3.965  0.00  0.00    +0.100 C 
ATOM      6  C   UNL     1       0.351   0.148  -4.527  0.00  0.00    -0.004 C 
ATOM      7  C   UNL     1       0.867  -0.860  -3.489  0.00  0.00    +0.115 C 
ATOM      8  C   UNL     1       1.345   1.295  -4.679  0.00  0.00    -0.010 C 
ATOM      9  C   UNL     1       2.643   0.761  -5.293  0.00  0.00    -0.082 C 
ATOM     10  N   UNL     1       2.356   0.158  -6.600  0.00  0.00    +0.379 N 
ATOM     11  C   UNL     1       1.472  -1.002  -6.434  0.00  0.00    -0.082 C 
ATOM     12  C   UNL     1       0.125  -0.543  -5.868  0.00  0.00    -0.010 C 
ATOM     13  H   UNL     1       1.906   0.840  -7.192  0.00  0.00    -0.086 HD
ATOM     14  H   UNL     1       3.220  -0.138  -7.029  0.00  0.00    -0.086 HD
ENDROOT
BRANCH   5  15
ATOM     15  C   UNL     1      -2.114   0.346  -4.906  0.00  0.00    +0.218 C 
ATOM     16  O   UNL     1      -2.656  -0.737  -4.852  0.00  0.00    -0.275 OA
ATOM     17  N   UNL     1      -2.523   1.261  -5.807  0.00  0.00    -0.315 N 
ATOM     18  H   UNL     1      -2.089   2.128  -5.849  0.00  0.00    +0.149 HD
BRANCH  17  19
ATOM     19  C   UNL     1      -3.623   0.947  -6.722  0.00  0.00    +0.109 C 
BRANCH  19  20
ATOM     20  C   UNL     1      -3.887   2.147  -7.634  0.00  0.00    +0.056 C 
BRANCH  20  21
ATOM     21  C   UNL     1      -5.019   1.823  -8.575  0.00  0.00    -0.021 A 
ATOM     22  C   UNL     1      -6.450   1.966  -8.298  0.00  0.00    +0.004 A 
ATOM     23  C   UNL     1      -7.185   2.401  -7.194  0.00  0.00    +0.030 A 
ATOM     24  C   UNL     1      -8.561   2.416  -7.255  0.00  0.00    +0.042 A 
ATOM     25  C   UNL     1      -9.217   2.000  -8.406  0.00  0.00    +0.022 A 
ATOM     26  C   UNL     1      -8.505   1.568  -9.504  0.00  0.00    +0.027 A 
ATOM     27  C   UNL     1      -7.115   1.545  -9.464  0.00  0.00    +0.047 A 
ATOM     28  N   UNL     1      -6.148   1.177 -10.373  0.00  0.00    -0.360 N 
ATOM     29  C   UNL     1      -4.906   1.355  -9.828  0.00  0.00    +0.087 A 
ATOM     30 CL   UNL     1      -9.480   2.957  -5.885  0.00  0.00    -0.084 Cl
ATOM     31  H   UNL     1      -6.322   0.845 -11.268  0.00  0.00    +0.165 HD
ENDBRANCH  20  21
ENDBRANCH  19  20
ENDBRANCH  17  19
ENDBRANCH   5  15
BRANCH   1  33
ATOM     32  C   UNL     1      -0.264   1.579   0.022  0.00  0.00    +0.062 C 
ATOM     33  C   UNL     1      -0.069   0.070   0.178  0.00  0.00    +0.256 C 
BRANCH  33  34
ATOM     34  O   UNL     1       0.625  -0.197   1.399  0.00  0.00    -0.480 OA
BRANCH  34  35
ATOM     35  C   UNL     1      -0.126  -0.285   2.528  0.00  0.00    +0.122 A 
ATOM     36  C   UNL     1      -1.487  -0.020   2.480  0.00  0.00    +0.045 A 
ATOM     37  C   UNL     1      -2.248  -0.111   3.629  0.00  0.00    +0.004 A 
ATOM     38  C   UNL     1      -1.655  -0.465   4.826  0.00  0.00    +0.000 A 
ATOM     39  C   UNL     1      -0.299  -0.730   4.877  0.00  0.00    +0.004 A 
ATOM     40  C   UNL     1       0.466  -0.646   3.729  0.00  0.00    +0.045 A 
ENDBRANCH  34  35
ENDBRANCH  33  34
ENDBRANCH   1  33
TORSDOF 7
