REMARK  Name = ZINC57779783
REMARK  8 active torsions:
REMARK  status: ('A' for Active; 'I' for Inactive)
REMARK    1  A    between atoms: C_1  and  C_2
REMARK    2  A    between atoms: C_2  and  C_4
REMARK    3  A    between atoms: C_2  and  N_14
REMARK    4  A    between atoms: N_6  and  C_7
REMARK    5  A    between atoms: C_7  and  C_8
REMARK    6  A    between atoms: C_8  and  C_9
REMARK    7  A    between atoms: N_21  and  C_26
REMARK    8  A    between atoms: N_24  and  C_25
REMARK                            x       y       z     vdW  Elec       q    Type
REMARK                         _______ _______ _______ _____ _____    ______ ____
ROOT
ATOM      1  C   UNL     1      -0.019   1.526   0.010  0.00  0.00    +0.041 C 
ATOM      2  C   UNL     1       0.002  -0.004   0.002  0.00  0.00    +0.171 C 
ENDROOT
BRANCH   2   3
ATOM      3  N   UNL     1       0.711  -0.489   1.189  0.00  0.00    -0.313 N 
ATOM      4  C   UNL     1       1.989  -0.226   1.523  0.00  0.00    +0.203 A 
ATOM      5  N   UNL     1       2.284  -0.825   2.648  0.00  0.00    -0.218 NA
ATOM      6  C   UNL     1       1.221  -1.500   3.094  0.00  0.00    +0.168 A 
ATOM      7  C   UNL     1       0.193  -1.299   2.180  0.00  0.00    +0.152 A 
ATOM      8  C   UNL     1      -1.061  -1.902   2.413  0.00  0.00    +0.282 A 
ATOM      9  O   UNL     1      -1.977  -1.743   1.626  0.00  0.00    -0.265 OA
ATOM     10  N   UNL     1      -1.235  -2.657   3.518  0.00  0.00    -0.262 N 
ATOM     11  C   UNL     1      -0.233  -2.841   4.395  0.00  0.00    +0.333 A 
ATOM     12  O   UNL     1      -0.425  -3.528   5.380  0.00  0.00    -0.246 OA
ATOM     13  N   UNL     1       0.981  -2.289   4.207  0.00  0.00    -0.280 N 
ATOM     14  C   UNL     1       2.046  -2.513   5.188  0.00  0.00    +0.155 C 
ATOM     15  C   UNL     1      -2.534  -3.285   3.766  0.00  0.00    +0.157 C 
ENDBRANCH   2   3
BRANCH   2  16
ATOM     16  C   UNL     1       0.707  -0.490  -1.238  0.00  0.00    +0.236 C 
ATOM     17  O   UNL     1       1.704  -1.174  -1.140  0.00  0.00    -0.274 OA
ATOM     18  N   UNL     1       0.231  -0.164  -2.456  0.00  0.00    -0.313 N 
ATOM     19  H   UNL     1      -0.566   0.383  -2.534  0.00  0.00    +0.149 HD
BRANCH  18  20
ATOM     20  C   UNL     1       0.917  -0.637  -3.661  0.00  0.00    +0.109 C 
BRANCH  20  21
ATOM     21  C   UNL     1       0.177  -0.130  -4.901  0.00  0.00    +0.061 C 
BRANCH  21  22
ATOM     22  C   UNL     1       0.882  -0.616  -6.141  0.00  0.00    -0.009 A 
ATOM     23  C   UNL     1       0.682  -1.756  -6.845  0.00  0.00    +0.011 A 
ATOM     24  C   UNL     1       1.455  -1.997  -7.965  0.00  0.00    +0.008 A 
ATOM     25  C   UNL     1       2.392  -1.086  -8.325  0.00  0.00    +0.045 A 
ATOM     26  S   UNL     1       2.193   0.165  -7.067  0.00  0.00    -0.102 S 
ENDBRANCH  21  22
ENDBRANCH  20  21
ENDBRANCH  18  20
ENDBRANCH   2  16
TORSDOF 5
