REMARK  Name = ZINC12701074
REMARK  12 active torsions:
REMARK  status: ('A' for Active; 'I' for Inactive)
REMARK    1  A    between atoms: C_1  and  C_2
REMARK    2  A    between atoms: C_7  and  C_14
REMARK    3  A    between atoms: C_11  and  C_12
REMARK    4  A    between atoms: C_16  and  C_30
REMARK    5  A    between atoms: C_17  and  N_29
REMARK    6  A    between atoms: C_19  and  C_28
REMARK    7  A    between atoms: C_20  and  C_21
REMARK    8  A    between atoms: C_21  and  O_23
REMARK    9  A    between atoms: O_23  and  C_24
REMARK   10  A    between atoms: C_24  and  C_25
REMARK   11  A    between atoms: C_25  and  O_26
REMARK   12  A    between atoms: O_26  and  C_27
REMARK                            x       y       z     vdW  Elec       q    Type
REMARK                         _______ _______ _______ _____ _____    ______ ____
ROOT
ATOM      1  C   UNL     1       1.267   2.137   0.001  0.00  0.00    +0.107 C 
ATOM      2  C   UNL     1      -0.016   1.351   0.009  0.00  0.00    +0.098 C 
ATOM      3  C   UNL     1       0.002  -0.004   0.002  0.00  0.00    +0.198 C 
ATOM      4  O   UNL     1       1.154  -0.697  -0.015  0.00  0.00    -0.445 OA
ATOM      5  C   UNL     1       2.292  -0.090   0.353  0.00  0.00    +0.115 C 
ATOM      6  C   UNL     1       2.415   1.242   0.383  0.00  0.00    +0.087 C 
ATOM      7  C   UNL     1       3.474  -0.939   0.747  0.00  0.00    +0.087 C 
ENDROOT
BRANCH   1  14
ATOM      8  C   UNL     1       2.519   4.191  -7.549  0.00  0.00    +0.044 C 
ATOM      9  C   UNL     1       2.283   3.579  -6.192  0.00  0.00    -0.045 A 
ATOM     10  C   UNL     1       2.199   2.194  -6.070  0.00  0.00    +0.004 A 
ATOM     11  C   UNL     1       1.985   1.611  -4.858  0.00  0.00    +0.010 A 
ATOM     12  C   UNL     1       1.847   2.416  -3.716  0.00  0.00    +0.001 A 
ATOM     13  C   UNL     1       1.632   1.852  -2.444  0.00  0.00    +0.017 A 
ATOM     14  C   UNL     1       1.504   2.696  -1.378  0.00  0.00    +0.003 A 
ATOM     15  C   UNL     1       1.597   4.074  -1.567  0.00  0.00    +0.134 A 
ATOM     16  N   UNL     1       1.803   4.596  -2.753  0.00  0.00    -0.235 NA
ATOM     17  C   UNL     1       1.933   3.825  -3.838  0.00  0.00    +0.076 A 
ATOM     18  C   UNL     1       2.154   4.389  -5.106  0.00  0.00    -0.022 A 
ATOM     19  C   UNL     1       2.249   5.885  -5.263  0.00  0.00    +0.046 C 
ATOM     20 CL   UNL     1       1.438   5.128  -0.196  0.00  0.00    -0.062 Cl
ENDBRANCH   1  14
BRANCH   3  21
ATOM     21  N   UNL     1      -1.188  -0.688   0.011  0.00  0.00    -0.328 N 
ATOM     22  H   UNL     1      -2.027  -0.201   0.023  0.00  0.00    +0.145 HD
ATOM     23  H   UNL     1      -1.190  -1.658   0.006  0.00  0.00    +0.145 HD
ENDBRANCH   3  21
BRANCH   6  24
ATOM     24  C   UNL     1       3.646   1.820   0.779  0.00  0.00    +0.339 C 
ATOM     25  O   UNL     1       4.580   1.106   1.090  0.00  0.00    -0.245 OA
BRANCH  24  26
ATOM     26  O   UNL     1       3.782   3.162   0.813  0.00  0.00    -0.459 OA
BRANCH  26  27
ATOM     27  C   UNL     1       5.051   3.675   1.223  0.00  0.00    +0.260 C 
BRANCH  27  28
ATOM     28  C   UNL     1       5.014   5.205   1.198  0.00  0.00    +0.200 C 
BRANCH  28  29
ATOM     29  O   UNL     1       4.083   5.674   2.175  0.00  0.00    -0.380 OA
ATOM     30  C   UNL     1       3.972   7.098   2.235  0.00  0.00    +0.194 C 
ENDBRANCH  28  29
ENDBRANCH  27  28
ENDBRANCH  26  27
ENDBRANCH  24  26
ENDBRANCH   6  24
BRANCH   2  31
ATOM     31  C   UNL     1      -1.270   2.042   0.019  0.00  0.00    +0.101 C 
ATOM     32  N   UNL     1      -2.265   2.590   0.027  0.00  0.00    -0.191 NA
ENDBRANCH   2  31
TORSDOF 8
