REMARK  Name = ZINC66698529
REMARK  7 active torsions:
REMARK  status: ('A' for Active; 'I' for Inactive)
REMARK    1  A    between atoms: C_1  and  C_2
REMARK    2  A    between atoms: C_7  and  N_10
REMARK    3  A    between atoms: C_11  and  C_13
REMARK    4  A    between atoms: C_13  and  N_14
REMARK    5  A    between atoms: N_22  and  C_23
REMARK    6  A    between atoms: C_23  and  C_24
REMARK    7  A    between atoms: C_23  and  C_27
REMARK                            x       y       z     vdW  Elec       q    Type
REMARK                         _______ _______ _______ _____ _____    ______ ____
ROOT
ATOM      1  N   UNL     1       1.470  -5.622   4.440  0.00  0.00    -0.291 NA
ATOM      2  C   UNL     1       0.059  -5.608   4.849  0.00  0.00    +0.104 C 
ATOM      3  C   UNL     1      -0.435  -7.049   5.013  0.00  0.00    +0.124 C 
ATOM      4  N   UNL     1       0.472  -7.753   5.933  0.00  0.00    -0.283 N 
ATOM      5  C   UNL     1       1.917  -7.695   5.664  0.00  0.00    +0.124 C 
ATOM      6  C   UNL     1       2.319  -6.229   5.474  0.00  0.00    +0.104 C 
ATOM      7  C   UNL     1      -0.008  -8.432   6.993  0.00  0.00    +0.303 C 
ATOM      8  O   UNL     1      -1.195  -8.392   7.254  0.00  0.00    -0.253 OA
ATOM      9  N   UNL     1       0.827  -9.156   7.764  0.00  0.00    -0.296 N 
ATOM     10  H   UNL     1       1.783  -9.127   7.603  0.00  0.00    +0.151 HD
ENDROOT
BRANCH   1  11
ATOM     11  C   UNL     1       1.934  -4.269   4.106  0.00  0.00    +0.180 C 
BRANCH  11  13
ATOM     12  N   UNL     1       1.469  -2.549   2.390  0.00  0.00    -0.311 N 
ATOM     13  C   UNL     1       1.204  -3.775   2.883  0.00  0.00    +0.227 C 
ATOM     14  O   UNL     1       0.378  -4.481   2.344  0.00  0.00    -0.274 OA
ATOM     15  H   UNL     1       2.129  -1.985   2.821  0.00  0.00    +0.149 HD
BRANCH  12  21
ATOM     16  C   UNL     1      -0.022   1.492  -0.037  0.00  0.00    +0.007 C 
ATOM     17  C   UNL     1      -0.002  -0.038  -0.038  0.00  0.00    -0.012 C 
ATOM     18  C   UNL     1       0.712  -0.538  -1.296  0.00  0.00    +0.003 C 
ATOM     19  C   UNL     1       0.732  -2.068  -1.297  0.00  0.00    +0.002 C 
ATOM     20  C   UNL     1       1.473  -2.569  -0.056  0.00  0.00    +0.022 C 
ATOM     21  C   UNL     1       0.759  -2.069   1.201  0.00  0.00    +0.073 C 
ATOM     22  C   UNL     1       0.739  -0.539   1.202  0.00  0.00    +0.025 C 
ENDBRANCH  12  21
ENDBRANCH  11  13
ENDBRANCH   1  11
BRANCH   9  23
ATOM     23  C   UNL     1       0.291  -9.987   8.845  0.00  0.00    +0.081 C 
BRANCH  23  24
ATOM     24  C   UNL     1      -0.131 -11.346   8.282  0.00  0.00    +0.010 C 
ATOM     25  C   UNL     1       0.250 -11.660   6.833  0.00  0.00    +0.006 C 
ATOM     26  C   UNL     1      -1.206 -11.356   7.193  0.00  0.00    +0.006 C 
ENDBRANCH  23  24
BRANCH  23  27
ATOM     27  C   UNL     1       1.367 -10.190   9.913  0.00  0.00    +0.010 C 
ATOM     28  C   UNL     1       0.989  -9.883  11.364  0.00  0.00    +0.006 C 
ATOM     29  C   UNL     1       1.924  -8.942  10.601  0.00  0.00    +0.006 C 
ENDBRANCH  23  27
ENDBRANCH   9  23
TORSDOF 6
