REMARK  Name = ZINC12544077
REMARK  10 active torsions:
REMARK  status: ('A' for Active; 'I' for Inactive)
REMARK    1  A    between atoms: C_1  and  C_2
REMARK    2  A    between atoms: C_2  and  N_3
REMARK    3  A    between atoms: C_5  and  C_14
REMARK    4  A    between atoms: C_14  and  N_56
REMARK    5  A    between atoms: C_15  and  N_56
REMARK    6  A    between atoms: C_16  and  N_17
REMARK    7  A    between atoms: C_16  and  N_56
REMARK    8  A    between atoms: N_20  and  C_29
REMARK    9  A    between atoms: C_21  and  C_23
REMARK   10  A    between atoms: C_23  and  C_24
REMARK                            x       y       z     vdW  Elec       q    Type
REMARK                         _______ _______ _______ _____ _____    ______ ____
ROOT
ATOM      1  C   UNL     1      -2.196   0.747   3.692  0.00  0.00    -0.093 C 
ATOM      2  N   UNL     1      -0.875   1.412   3.699  0.00  0.00    +0.393 N 
ATOM      3  H   UNL     1      -1.014   2.429   3.671  0.00  0.00    -0.079 HD
ENDROOT
BRANCH   2   4
ATOM      4  C   UNL     1      -0.097   1.000   2.512  0.00  0.00    -0.030 C 
BRANCH   4   7
ATOM      5  N   UNL     1      -0.737   1.576  -1.180  0.00  0.00    -0.324 N 
ATOM      6  C   UNL     1      -0.036   1.071   0.007  0.00  0.00    +0.147 C 
ATOM      7  C   UNL     1      -0.767   1.570   1.260  0.00  0.00    +0.174 C 
ATOM      8  O   UNL     1      -0.693   2.999   1.274  0.00  0.00    -0.487 OA
ATOM      9  C   UNL     1      -0.950   3.639   0.100  0.00  0.00    +0.142 A 
ATOM     10  C   UNL     1      -0.969   2.953  -1.109  0.00  0.00    +0.072 A 
ATOM     11  C   UNL     1      -1.225   3.647  -2.287  0.00  0.00    +0.027 A 
ATOM     12  C   UNL     1      -1.463   5.007  -2.255  0.00  0.00    +0.002 A 
ATOM     13  C   UNL     1      -1.447   5.686  -1.051  0.00  0.00    +0.004 A 
ATOM     14  C   UNL     1      -1.192   5.005   0.124  0.00  0.00    +0.047 A 
BRANCH   5  16
ATOM     15  C   UNL     1       0.014  -0.294  -2.572  0.00  0.00    +0.024 C 
ATOM     16  C   UNL     1      -0.010   1.227  -2.408  0.00  0.00    +0.102 C 
ENDBRANCH   5  16
ENDBRANCH   4   7
ENDBRANCH   2   4
BRANCH   2  17
ATOM     17  C   UNL     1      -0.139   1.061   4.932  0.00  0.00    +0.071 C 
BRANCH  17  18
ATOM     18  N   UNL     1      -0.823   1.666   6.078  0.00  0.00    -0.258 N 
ATOM     19  C   UNL     1      -1.793   1.095   6.823  0.00  0.00    +0.176 A 
ATOM     20  S   UNL     1      -2.452  -0.469   6.602  0.00  0.00    -0.011 S 
ATOM     21  N   UNL     1      -2.147   1.984   7.773  0.00  0.00    -0.310 N 
ATOM     22  C   UNL     1      -1.387   3.116   7.611  0.00  0.00    +0.137 A 
ATOM     23  N   UNL     1      -0.587   2.942   6.608  0.00  0.00    -0.157 NA
ATOM     24  C   UNL     1      -3.169   1.778   8.802  0.00  0.00    +0.152 C 
BRANCH  22  25
ATOM     25  C   UNL     1      -1.465   4.355   8.465  0.00  0.00    +0.118 C 
BRANCH  25  26
ATOM     26  C   UNL     1      -0.506   4.230   9.620  0.00  0.00    -0.003 A 
ATOM     27  C   UNL     1       0.796   4.602   9.693  0.00  0.00    +0.011 A 
ATOM     28  C   UNL     1       1.488   4.392  10.871  0.00  0.00    +0.008 A 
ATOM     29  C   UNL     1       0.848   3.810  11.915  0.00  0.00    +0.045 A 
ATOM     30  S   UNL     1      -0.786   3.547  11.246  0.00  0.00    -0.101 S 
ENDBRANCH  25  26
ENDBRANCH  22  25
ENDBRANCH  17  18
ENDBRANCH   2  17
TORSDOF 7
