REMARK  Name = ZINC40322163
REMARK  10 active torsions:
REMARK  status: ('A' for Active; 'I' for Inactive)
REMARK    1  A    between atoms: C_1  and  C_2
REMARK    2  A    between atoms: C_2  and  O_3
REMARK    3  A    between atoms: O_3  and  C_4
REMARK    4  A    between atoms: C_7  and  C_10
REMARK    5  A    between atoms: C_10  and  C_12
REMARK    6  A    between atoms: C_10  and  N_31
REMARK    7  A    between atoms: C_12  and  N_13
REMARK    8  A    between atoms: C_14  and  C_16
REMARK    9  A    between atoms: C_19  and  S_21
REMARK   10  A    between atoms: S_21  and  C_24
REMARK                            x       y       z     vdW  Elec       q    Type
REMARK                         _______ _______ _______ _____ _____    ______ ____
ROOT
ATOM      1  N   UNL     1      -1.078  -6.285  -2.277  0.00  0.00    -0.310 N 
ATOM      2  C   UNL     1      -1.085  -6.593  -3.589  0.00  0.00    +0.279 C 
ATOM      3  O   UNL     1      -2.031  -7.189  -4.069  0.00  0.00    -0.267 OA
ATOM      4  H   UNL     1      -0.324  -5.810  -1.895  0.00  0.00    +0.149 HD
ENDROOT
BRANCH   2   5
ATOM      5  C   UNL     1       0.046  -6.209  -4.439  0.00  0.00    +0.192 A 
ATOM      6  C   UNL     1       0.164  -6.452  -5.778  0.00  0.00    +0.056 A 
ATOM      7  C   UNL     1       1.396  -5.914  -6.179  0.00  0.00    +0.070 A 
ATOM      8  C   UNL     1       1.970  -5.373  -5.082  0.00  0.00    +0.246 A 
ATOM      9  O   UNL     1       1.152  -5.548  -4.037  0.00  0.00    -0.433 OA
BRANCH   8  10
ATOM     10  S   UNL     1       3.535  -4.565  -5.035  0.00  0.00    +0.058 S 
ATOM     11  O   UNL     1       3.999  -4.655  -3.696  0.00  0.00    -0.161 OA
ATOM     12  O   UNL     1       4.283  -5.064  -6.136  0.00  0.00    -0.161 OA
BRANCH  10  13
ATOM     13  C   UNL     1       3.249  -2.856  -5.355  0.00  0.00    +0.097 A 
ATOM     14  C   UNL     1       3.267  -2.383  -6.654  0.00  0.00    +0.029 A 
ATOM     15  C   UNL     1       3.043  -1.042  -6.905  0.00  0.00    +0.022 A 
ATOM     16  C   UNL     1       2.800  -0.174  -5.856  0.00  0.00    +0.041 A 
ATOM     17  C   UNL     1       2.781  -0.647  -4.556  0.00  0.00    +0.022 A 
ATOM     18  C   UNL     1       3.001  -1.989  -4.307  0.00  0.00    +0.029 A 
ATOM     19 CL   UNL     1       2.518   1.510  -6.171  0.00  0.00    -0.084 Cl
ENDBRANCH  10  13
ENDBRANCH   8  10
ENDBRANCH   2   5
BRANCH   1  20
ATOM     20  C   UNL     1      -2.208  -6.669  -1.428  0.00  0.00    +0.094 C 
BRANCH  20  21
ATOM     21  C   UNL     1      -2.013  -6.089  -0.026  0.00  0.00    -0.020 C 
BRANCH  21  25
ATOM     22  C   UNL     1      -2.170  -1.823  -0.214  0.00  0.00    +0.121 A 
ATOM     23  C   UNL     1      -0.945  -2.471  -0.155  0.00  0.00    +0.046 A 
ATOM     24  C   UNL     1      -0.897  -3.850  -0.094  0.00  0.00    +0.005 A 
ATOM     25  C   UNL     1      -2.068  -4.585  -0.092  0.00  0.00    -0.059 A 
ATOM     26  C   UNL     1      -3.291  -3.941  -0.151  0.00  0.00    +0.005 A 
ATOM     27  C   UNL     1      -3.344  -2.562  -0.206  0.00  0.00    +0.046 A 
BRANCH  22  28
ATOM     28  O   UNL     1      -2.220  -0.466  -0.274  0.00  0.00    -0.492 OA
BRANCH  28  30
ATOM     29  C   UNL     1      -1.228   1.736  -0.349  0.00  0.00    +0.048 C 
ATOM     30  C   UNL     1      -0.972   0.229  -0.278  0.00  0.00    +0.225 C 
ENDBRANCH  28  30
ENDBRANCH  22  28
ENDBRANCH  21  25
BRANCH  21  31
ATOM     31  N   UNL     1      -3.077  -6.580   0.860  0.00  0.00    +0.385 N 
ATOM     32  C   UNL     1      -2.989  -8.056   0.998  0.00  0.00    -0.078 C 
ATOM     33  C   UNL     1      -3.742  -8.334   2.323  0.00  0.00    -0.020 C 
ATOM     34  C   UNL     1      -3.337  -7.134   3.209  0.00  0.00    -0.020 C 
ATOM     35  C   UNL     1      -2.898  -6.036   2.223  0.00  0.00    -0.078 C 
ATOM     36  H   UNL     1      -3.981  -6.317   0.496  0.00  0.00    -0.081 HD
ENDBRANCH  21  31
ENDBRANCH  20  21
ENDBRANCH   1  20
TORSDOF 9
