REMARK  Name = ZINC64045272
REMARK  10 active torsions:
REMARK  status: ('A' for Active; 'I' for Inactive)
REMARK    1  A    between atoms: C_1  and  C_2
REMARK    2  A    between atoms: C_5  and  C_32
REMARK    3  A    between atoms: C_6  and  N_8
REMARK    4  A    between atoms: C_10  and  C_21
REMARK    5  A    between atoms: C_12  and  C_15
REMARK    6  A    between atoms: C_21  and  N_22
REMARK    7  A    between atoms: N_22  and  C_23
REMARK    8  A    between atoms: C_23  and  C_24
REMARK    9  A    between atoms: C_24  and  C_25
REMARK   10  A    between atoms: C_29  and  C_31
REMARK                            x       y       z     vdW  Elec       q    Type
REMARK                         _______ _______ _______ _____ _____    ______ ____
ROOT
ATOM      1  N   UNL     1      -0.267  -3.037   2.214  0.00  0.00    -0.266 N 
ATOM      2  C   UNL     1       0.615  -3.030   3.392  0.00  0.00    +0.127 C 
ATOM      3  C   UNL     1      -0.001  -4.056   4.373  0.00  0.00    +0.014 C 
ATOM      4  C   UNL     1      -1.456  -4.147   3.838  0.00  0.00    +0.105 C 
ATOM      5  N   UNL     1      -1.256  -3.972   2.378  0.00  0.00    -0.232 NA
ATOM      6  H   UNL     1      -1.003  -4.846   1.943  0.00  0.00    +0.145 HD
ENDROOT
BRANCH   1  12
ATOM      7  C   UNL     1       1.804  -2.147  -2.153  0.00  0.00    +0.044 C 
ATOM      8  C   UNL     1       0.875  -1.753  -1.034  0.00  0.00    -0.049 A 
ATOM      9  C   UNL     1       0.164  -0.569  -1.112  0.00  0.00    +0.004 A 
ATOM     10  C   UNL     1      -0.690  -0.203  -0.088  0.00  0.00    +0.005 A 
ATOM     11  C   UNL     1      -0.835  -1.019   1.017  0.00  0.00    -0.028 A 
ATOM     12  C   UNL     1      -0.123  -2.209   1.098  0.00  0.00    +0.048 A 
ATOM     13  C   UNL     1       0.730  -2.576   0.065  0.00  0.00    +0.028 A 
ATOM     14  C   UNL     1      -1.765  -0.620   2.133  0.00  0.00    +0.046 C 
ENDBRANCH   1  12
BRANCH   4  15
ATOM     15  C   UNL     1      -2.060  -5.493   4.144  0.00  0.00    -0.029 A 
ATOM     16  C   UNL     1      -1.752  -6.585   3.355  0.00  0.00    +0.005 A 
ATOM     17  C   UNL     1      -2.306  -7.820   3.636  0.00  0.00    +0.000 A 
ATOM     18  C   UNL     1      -3.168  -7.963   4.708  0.00  0.00    +0.000 A 
ATOM     19  C   UNL     1      -3.475  -6.871   5.498  0.00  0.00    +0.000 A 
ATOM     20  C   UNL     1      -2.918  -5.637   5.219  0.00  0.00    +0.005 A 
ENDBRANCH   4  15
BRANCH   3  21
ATOM     21  C   UNL     1       0.026  -3.529   5.809  0.00  0.00    -0.076 C 
BRANCH  21  22
ATOM     22  N   UNL     1       1.418  -3.417   6.264  0.00  0.00    +0.380 N 
ATOM     23  H   UNL     1       1.857  -4.325   6.231  0.00  0.00    -0.086 HD
ATOM     24  H   UNL     1       1.919  -2.780   5.662  0.00  0.00    -0.086 HD
BRANCH  22  25
ATOM     25  C   UNL     1       1.444  -2.910   7.642  0.00  0.00    -0.075 C 
BRANCH  25  26
ATOM     26  C   UNL     1       2.894  -2.794   8.116  0.00  0.00    +0.055 C 
BRANCH  26  27
ATOM     27  C   UNL     1       2.921  -2.275   9.530  0.00  0.00    +0.105 A 
ATOM     28  H   UNL     1       4.025  -3.706  10.556  0.00  0.00    +0.167 HD
ATOM     29  N   UNL     1       2.354  -1.176   9.947  0.00  0.00    -0.241 NA
ATOM     30  C   UNL     1       2.584  -1.031  11.261  0.00  0.00    +0.133 A 
ATOM     31  C   UNL     1       3.320  -2.080  11.674  0.00  0.00    +0.032 A 
ATOM     32  N   UNL     1       3.530  -2.872  10.577  0.00  0.00    -0.346 N 
ATOM     33  C   UNL     1       3.813  -2.336  13.074  0.00  0.00    +0.065 C 
ENDBRANCH  26  27
ENDBRANCH  25  26
ENDBRANCH  22  25
ENDBRANCH  21  22
ENDBRANCH   3  21
TORSDOF 7
