REMARK  Name = ZINC20517992
REMARK  5 active torsions:
REMARK  status: ('A' for Active; 'I' for Inactive)
REMARK    1  A    between atoms: C_1  and  C_2
REMARK    2  A    between atoms: C_2  and  C_3
REMARK    3  A    between atoms: C_2  and  C_4
REMARK    4  A    between atoms: N_12  and  C_15
REMARK    5  A    between atoms: C_15  and  C_16
REMARK                            x       y       z     vdW  Elec       q    Type
REMARK                         _______ _______ _______ _____ _____    ______ ____
ROOT
ATOM      1  C   UNL     1      -1.433  -0.534   0.013  0.00  0.00    +0.070 C 
ATOM      2  C   UNL     1      -1.437  -2.077  -0.034  0.00  0.00    +0.107 C 
ATOM      3  C   UNL     1      -2.653  -2.444  -0.930  0.00  0.00    +0.122 C 
ATOM      4  C   UNL     1      -3.595  -3.136   0.028  0.00  0.00    +0.229 C 
ATOM      5  O   UNL     1      -4.684  -3.584  -0.262  0.00  0.00    -0.275 OA
ATOM      6  N   UNL     1      -3.041  -3.177   1.245  0.00  0.00    -0.237 N 
ATOM      7  C   UNL     1      -1.814  -2.613   1.329  0.00  0.00    +0.227 C 
ATOM      8  O   UNL     1      -1.125  -2.543   2.324  0.00  0.00    -0.275 OA
ATOM      9  C   UNL     1      -3.233  -1.095  -1.369  0.00  0.00    +0.136 C 
ATOM     10  N   UNL     1      -2.150  -0.111  -1.219  0.00  0.00    -0.295 NA
ATOM     11  C   UNL     1      -4.420  -0.703  -0.536  0.00  0.00    +0.003 A 
ATOM     12  C   UNL     1      -4.603  -0.488   0.812  0.00  0.00    +0.008 A 
ATOM     13  C   UNL     1      -5.849  -0.125   1.292  0.00  0.00    +0.000 A 
ATOM     14  C   UNL     1      -6.909   0.021   0.416  0.00  0.00    +0.002 A 
ATOM     15  C   UNL     1      -6.730  -0.195  -0.935  0.00  0.00    +0.023 A 
ATOM     16  C   UNL     1      -5.479  -0.560  -1.427  0.00  0.00    +0.039 A 
ATOM     17  N   UNL     1      -5.055  -0.830  -2.730  0.00  0.00    -0.283 N 
ATOM     18  C   UNL     1      -3.748  -1.152  -2.782  0.00  0.00    +0.243 C 
ATOM     19  O   UNL     1      -3.111  -1.434  -3.774  0.00  0.00    -0.273 OA
ATOM     20  H   UNL     1      -2.514   0.825  -1.123  0.00  0.00    +0.124 HD
ATOM     21  H   UNL     1      -5.634  -0.790  -3.507  0.00  0.00    +0.155 HD
ENDROOT
BRANCH   1  23
ATOM     22  C   UNL     1      -0.019   1.526   0.010  0.00  0.00    +0.009 C 
ATOM     23  C   UNL     1       0.002  -0.004   0.002  0.00  0.00    +0.001 C 
ATOM     24  C   UNL     1       0.742  -0.511   1.242  0.00  0.00    +0.009 C 
ENDBRANCH   1  23
BRANCH   6  25
ATOM     25  C   UNL     1      -3.706  -3.790   2.398  0.00  0.00    +0.151 C 
BRANCH  25  26
ATOM     26  C   UNL     1      -3.333  -5.247   2.477  0.00  0.00    -0.029 A 
ATOM     27  C   UNL     1      -4.098  -6.193   1.820  0.00  0.00    +0.008 A 
ATOM     28  C   UNL     1      -3.756  -7.530   1.891  0.00  0.00    +0.038 A 
ATOM     29  C   UNL     1      -2.648  -7.923   2.622  0.00  0.00    +0.123 A 
ATOM     30  C   UNL     1      -1.883  -6.975   3.280  0.00  0.00    +0.038 A 
ATOM     31  C   UNL     1      -2.223  -5.638   3.203  0.00  0.00    +0.008 A 
ATOM     32  F   UNL     1      -2.313  -9.230   2.693  0.00  0.00    -0.205 F 
ENDBRANCH  25  26
ENDBRANCH   6  25
TORSDOF 3
