REMARK  Name = ZINC39658539
REMARK  9 active torsions:
REMARK  status: ('A' for Active; 'I' for Inactive)
REMARK    1  A    between atoms: C_4  and  C_7
REMARK    2  A    between atoms: C_7  and  S_8
REMARK    3  A    between atoms: S_8  and  C_9
REMARK    4  A    between atoms: C_9  and  C_10
REMARK    5  A    between atoms: C_10  and  N_11
REMARK    6  A    between atoms: C_12  and  C_14
REMARK    7  A    between atoms: C_25  and  C_27
REMARK    8  A    between atoms: C_27  and  O_28
REMARK    9  A    between atoms: O_28  and  C_29
REMARK                            x       y       z     vdW  Elec       q    Type
REMARK                         _______ _______ _______ _____ _____    ______ ____
ROOT
ATOM      1  C   UNL     1       9.681  -4.043   3.622  0.00  0.00    +0.100 C 
ATOM      2  C   UNL     1      10.675  -3.193   2.800  0.00  0.00    +0.121 C 
ATOM      3  N   UNL     1      11.486  -2.479   3.814  0.00  0.00    -0.297 N 
ATOM      4  C   UNL     1      11.702  -3.482   4.885  0.00  0.00    +0.115 C 
ATOM      5  C   UNL     1      10.360  -4.233   4.989  0.00  0.00    -0.004 C 
ATOM      6  C   UNL     1      10.605  -5.715   5.256  0.00  0.00    -0.010 C 
ATOM      7  C   UNL     1      11.227  -5.883   6.645  0.00  0.00    -0.082 C 
ATOM      8  N   UNL     1      10.324  -5.325   7.659  0.00  0.00    +0.379 N 
ATOM      9  C   UNL     1      10.168  -3.880   7.450  0.00  0.00    -0.082 C 
ATOM     10  C   UNL     1       9.501  -3.628   6.095  0.00  0.00    -0.010 C 
ATOM     11  C   UNL     1      11.928  -1.207   3.773  0.00  0.00    +0.253 C 
ATOM     12  O   UNL     1      12.587  -0.763   4.689  0.00  0.00    -0.272 OA
ATOM     13  H   UNL     1       9.422  -5.773   7.588  0.00  0.00    -0.086 HD
ATOM     14  H   UNL     1      10.707  -5.491   8.577  0.00  0.00    -0.086 HD
ENDROOT
BRANCH   1  16
ATOM     15  N   UNL     1       7.228  -4.005   3.934  0.00  0.00    -0.314 N 
ATOM     16  C   UNL     1       8.374  -3.312   3.783  0.00  0.00    +0.218 C 
ATOM     17  O   UNL     1       8.352  -2.099   3.778  0.00  0.00    -0.275 OA
ATOM     18  H   UNL     1       7.245  -4.975   3.938  0.00  0.00    +0.149 HD
BRANCH  15  19
ATOM     19  C   UNL     1       5.957  -3.294   4.090  0.00  0.00    +0.115 C 
BRANCH  19  20
ATOM     20  C   UNL     1       4.820  -4.307   4.242  0.00  0.00    +0.088 C 
BRANCH  20  21
ATOM     21  S   UNL     1       3.246  -3.427   4.436  0.00  0.00    -0.155 S 
BRANCH  21  22
ATOM     22  C   UNL     1       2.019  -4.753   4.601  0.00  0.00    +0.104 C 
BRANCH  22  26
ATOM     23  C   UNL     1      -1.867  -3.046   5.083  0.00  0.00    +0.000 A 
ATOM     24  C   UNL     1      -1.389  -3.330   3.817  0.00  0.00    +0.000 A 
ATOM     25  C   UNL     1      -0.131  -3.882   3.661  0.00  0.00    +0.004 A 
ATOM     26  C   UNL     1       0.648  -4.150   4.771  0.00  0.00    -0.038 A 
ATOM     27  C   UNL     1       0.170  -3.866   6.036  0.00  0.00    +0.004 A 
ATOM     28  C   UNL     1      -1.088  -3.315   6.192  0.00  0.00    +0.000 A 
ENDBRANCH  22  26
ENDBRANCH  21  22
ENDBRANCH  20  21
ENDBRANCH  19  20
ENDBRANCH  15  19
ENDBRANCH   1  16
BRANCH  11  29
ATOM     29  C   UNL     1      11.602  -0.335   2.587  0.00  0.00    +0.324 C 
BRANCH  29  30
ATOM     30  O   UNL     1      12.177   0.960   2.776  0.00  0.00    -0.483 OA
BRANCH  30  31
ATOM     31  C   UNL     1      11.975   1.874   1.791  0.00  0.00    +0.123 A 
ATOM     32  C   UNL     1      11.234   1.534   0.668  0.00  0.00    +0.046 A 
ATOM     33  C   UNL     1      11.030   2.464  -0.332  0.00  0.00    +0.005 A 
ATOM     34  C   UNL     1      11.563   3.735  -0.215  0.00  0.00    +0.020 A 
ATOM     35  C   UNL     1      12.303   4.077   0.903  0.00  0.00    +0.044 A 
ATOM     36  C   UNL     1      12.505   3.151   1.909  0.00  0.00    +0.065 A 
ATOM     37 CL   UNL     1      12.971   5.673   1.046  0.00  0.00    -0.083 Cl
ENDBRANCH  30  31
ENDBRANCH  29  30
ENDBRANCH  11  29
TORSDOF 9
