REMARK  Name = ZINC41615925
REMARK  5 active torsions:
REMARK  status: ('A' for Active; 'I' for Inactive)
REMARK    1  A    between atoms: C_3  and  S_9
REMARK    2  A    between atoms: C_6  and  C_7
REMARK    3  A    between atoms: S_9  and  N_12
REMARK    4  A    between atoms: N_12  and  C_13
REMARK    5  A    between atoms: C_16  and  N_20
REMARK                            x       y       z     vdW  Elec       q    Type
REMARK                         _______ _______ _______ _____ _____    ______ ____
ROOT
ATOM      1  C   UNL     1       4.641   1.292   2.299  0.00  0.00    +0.050 A 
ATOM      2  C   UNL     1       3.969   0.097   2.080  0.00  0.00    +0.026 A 
ATOM      3  C   UNL     1       4.324  -1.035   2.786  0.00  0.00    +0.026 A 
ATOM      4  C   UNL     1       5.354  -0.979   3.716  0.00  0.00    +0.049 A 
ATOM      5  C   UNL     1       6.027   0.217   3.935  0.00  0.00    +0.064 A 
ATOM      6  C   UNL     1       5.675   1.348   3.224  0.00  0.00    +0.046 A 
ATOM      7 CL   UNL     1       7.315   0.287   5.097  0.00  0.00    -0.082 Cl
ENDROOT
BRANCH   4   8
ATOM      8  N   UNL     1       5.714  -2.127   4.432  0.00  0.00    -0.318 N 
ATOM      9  C   UNL     1       5.079  -2.457   5.720  0.00  0.00    +0.124 C 
ATOM     10  C   UNL     1       4.364  -3.801   5.569  0.00  0.00    +0.123 C 
ATOM     11  N   UNL     1       5.227  -4.775   4.914  0.00  0.00    -0.313 N 
ATOM     12  C   UNL     1       6.270  -4.465   4.143  0.00  0.00    +0.230 C 
ATOM     13  O   UNL     1       6.866  -5.363   3.587  0.00  0.00    -0.274 OA
ATOM     14  C   UNL     1       6.736  -3.055   3.927  0.00  0.00    +0.200 C 
ATOM     15  H   UNL     1       5.029  -5.715   5.049  0.00  0.00    +0.149 HD
ENDBRANCH   4   8
BRANCH   1  16
ATOM     16  N   UNL     1       4.280   2.440   1.582  0.00  0.00    -0.216 N 
ATOM     17  H   UNL     1       3.776   3.145   2.018  0.00  0.00    +0.174 HD
BRANCH  16  18
ATOM     18  S   UNL     1       4.715   2.594  -0.008  0.00  0.00    +0.072 S 
ATOM     19  O   UNL     1       4.280   3.880  -0.425  0.00  0.00    -0.150 OA
ATOM     20  O   UNL     1       4.300   1.401  -0.660  0.00  0.00    -0.150 OA
BRANCH  18  23
ATOM     21  C   UNL     1       8.549   1.452  -0.363  0.00  0.00    +0.021 A 
ATOM     22  C   UNL     1       7.170   1.443  -0.315  0.00  0.00    +0.030 A 
ATOM     23  C   UNL     1       6.476   2.614  -0.067  0.00  0.00    +0.109 A 
ATOM     24  C   UNL     1       7.158   3.801   0.134  0.00  0.00    +0.030 A 
ATOM     25  C   UNL     1       8.537   3.824   0.089  0.00  0.00    +0.021 A 
ATOM     26  C   UNL     1       9.243   2.646  -0.160  0.00  0.00    +0.052 A 
BRANCH  26  27
ATOM     27  C   UNL     1      10.675   2.662  -0.208  0.00  0.00    +0.099 C 
ATOM     28  N   UNL     1      11.810   2.675  -0.246  0.00  0.00    -0.191 NA
ENDBRANCH  26  27
ENDBRANCH  18  23
ENDBRANCH  16  18
ENDBRANCH   1  16
TORSDOF 5
