REMARK  Name = ZINC61697362
REMARK  6 active torsions:
REMARK  status: ('A' for Active; 'I' for Inactive)
REMARK    1  A    between atoms: C_1  and  C_2
REMARK    2  A    between atoms: C_6  and  C_21
REMARK    3  A    between atoms: N_9  and  C_10
REMARK    4  A    between atoms: C_13  and  C_17
REMARK    5  A    between atoms: C_17  and  C_19
REMARK    6  A    between atoms: C_17  and  N_20
REMARK                            x       y       z     vdW  Elec       q    Type
REMARK                         _______ _______ _______ _____ _____    ______ ____
ROOT
ATOM      1  C   UNL     1       1.136   0.393   2.183  0.00  0.00    +0.044 A 
ATOM      2  C   UNL     1       0.300   0.683   3.254  0.00  0.00    +0.024 A 
ATOM      3  C   UNL     1       0.716   1.560   4.236  0.00  0.00    +0.004 A 
ATOM      4  C   UNL     1       1.965   2.149   4.156  0.00  0.00    -0.061 A 
ATOM      5  C   UNL     1       2.800   1.863   3.092  0.00  0.00    +0.019 A 
ATOM      6  C   UNL     1       2.392   0.983   2.108  0.00  0.00    +0.039 A 
ATOM      7 BR   UNL     1       3.539   0.587   0.657  0.00  0.00    -0.048 Br
ENDROOT
BRANCH   1  14
ATOM      8  C   UNL     1      -0.019   1.526   0.010  0.00  0.00    +0.028 C 
ATOM      9  C   UNL     1       0.002  -0.004   0.002  0.00  0.00    +0.070 C 
ATOM     10  C   UNL     1       0.725  -0.501  -1.254  0.00  0.00    +0.023 C 
ATOM     11  C   UNL     1       0.865  -2.023  -1.188  0.00  0.00    +0.016 C 
ATOM     12  C   UNL     1       1.701  -2.408   0.034  0.00  0.00    +0.092 C 
ATOM     13  C   UNL     1       0.989  -1.933   1.305  0.00  0.00    +0.118 C 
ATOM     14  N   UNL     1       0.718  -0.493   1.188  0.00  0.00    -0.326 N 
BRANCH  12  15
ATOM     15  C   UNL     1       1.866  -3.906   0.080  0.00  0.00    +0.215 C 
ATOM     16  O   UNL     1       1.458  -4.532   1.035  0.00  0.00    -0.276 OA
ATOM     17  N   UNL     1       2.467  -4.548  -0.941  0.00  0.00    -0.329 N 
ATOM     18  H   UNL     1       2.794  -4.047  -1.705  0.00  0.00    +0.145 HD
ATOM     19  H   UNL     1       2.574  -5.512  -0.912  0.00  0.00    +0.145 HD
ENDBRANCH  12  15
ENDBRANCH   1  14
BRANCH   4  20
ATOM     20  C   UNL     1       2.415   3.106   5.230  0.00  0.00    -0.047 C 
ATOM     21  C   UNL     1       3.344   2.378   6.204  0.00  0.00    -0.009 C 
BRANCH  20  22
ATOM     22  N   UNL     1       3.134   4.229   4.615  0.00  0.00    +0.382 N 
ATOM     23  H   UNL     1       2.522   4.709   3.972  0.00  0.00    -0.089 HD
ATOM     24  H   UNL     1       3.436   4.870   5.334  0.00  0.00    -0.089 HD
ATOM     25  H   UNL     1       3.939   3.881   4.116  0.00  0.00    -0.089 HD
ENDBRANCH  20  22
ENDBRANCH   4  20
TORSDOF 4
