REMARK  Name = ZINC64148369
REMARK  6 active torsions:
REMARK  status: ('A' for Active; 'I' for Inactive)
REMARK    1  A    between atoms: C_1  and  C_2
REMARK    2  A    between atoms: C_2  and  C_4
REMARK    3  A    between atoms: C_2  and  O_15
REMARK    4  A    between atoms: C_4  and  C_6
REMARK    5  A    between atoms: O_15  and  C_16
REMARK    6  A    between atoms: C_16  and  C_18
REMARK                            x       y       z     vdW  Elec       q    Type
REMARK                         _______ _______ _______ _____ _____    ______ ____
ROOT
ATOM      1  C   UNL     1      -0.019   1.526   0.010  0.00  0.00    +0.061 C 
ATOM      2  C   UNL     1       0.002  -0.004   0.002  0.00  0.00    +0.244 C 
ENDROOT
BRANCH   2   3
ATOM      3  C   UNL     1       0.731  -0.503   1.223  0.00  0.00    +0.201 C 
ATOM      4  O   UNL     1       0.107  -0.976   2.151  0.00  0.00    -0.288 OA
BRANCH   3   5
ATOM      5  C   UNL     1       2.138  -0.421   1.287  0.00  0.00    +0.027 C 
ATOM      6  C   UNL     1       2.954  -0.836   2.324  0.00  0.00    +0.006 A 
ATOM      7  C   UNL     1       2.687  -1.436   3.578  0.00  0.00    +0.010 A 
ATOM      8  C   UNL     1       3.702  -1.743   4.416  0.00  0.00    +0.001 A 
ATOM      9  C   UNL     1       5.045  -1.490   4.098  0.00  0.00    +0.002 A 
ATOM     10  C   UNL     1       5.408  -0.921   2.928  0.00  0.00    +0.026 A 
ATOM     11  C   UNL     1       4.363  -0.555   1.956  0.00  0.00    +0.043 A 
ATOM     12  N   UNL     1       4.426  -0.006   0.777  0.00  0.00    -0.380 N 
ATOM     13  C   UNL     1       3.072   0.132   0.233  0.00  0.00    +0.152 C 
ATOM     14  H   UNL     1       5.242   0.266   0.328  0.00  0.00    +0.160 HD
ENDBRANCH   3   5
ENDBRANCH   2   3
BRANCH   2  15
ATOM     15  O   UNL     1      -1.339  -0.499   0.012  0.00  0.00    -0.451 OA
BRANCH  15  16
ATOM     16  C   UNL     1      -1.922  -0.703  -1.179  0.00  0.00    +0.349 C 
ATOM     17  O   UNL     1      -1.314  -0.470  -2.197  0.00  0.00    -0.247 OA
BRANCH  16  18
ATOM     18  C   UNL     1      -3.334  -1.224  -1.248  0.00  0.00    +0.286 C 
ATOM     19  C   UNL     1      -3.407  -2.680  -0.731  0.00  0.00    +0.095 C 
ATOM     20  C   UNL     1      -4.449  -3.287  -1.650  0.00  0.00    -0.000 A 
ATOM     21  C   UNL     1      -5.185  -4.449  -1.575  0.00  0.00    +0.027 A 
ATOM     22  C   UNL     1      -6.092  -4.760  -2.573  0.00  0.00    +0.041 A 
ATOM     23  C   UNL     1      -6.255  -3.900  -3.645  0.00  0.00    +0.023 A 
ATOM     24  C   UNL     1      -5.516  -2.737  -3.723  0.00  0.00    +0.047 A 
ATOM     25  C   UNL     1      -4.599  -2.419  -2.724  0.00  0.00    +0.125 A 
ATOM     26  O   UNL     1      -3.767  -1.344  -2.613  0.00  0.00    -0.477 OA
ATOM     27 CL   UNL     1      -7.021  -6.224  -2.482  0.00  0.00    -0.084 Cl
ENDBRANCH  16  18
ENDBRANCH  15  16
ENDBRANCH   2  15
TORSDOF 5
