REMARK  Name = ZINC20546219
REMARK  3 active torsions:
REMARK  status: ('A' for Active; 'I' for Inactive)
REMARK    1  A    between atoms: C_9  and  C_12
REMARK    2  A    between atoms: C_14  and  C_17
REMARK    3  A    between atoms: C_17  and  C_18
REMARK                            x       y       z     vdW  Elec       q    Type
REMARK                         _______ _______ _______ _____ _____    ______ ____
ROOT
ATOM      1  C   UNL     1       3.933   0.443  -2.801  0.00  0.00    +0.002 A 
ATOM      2  C   UNL     1       4.204   1.657  -2.198  0.00  0.00    +0.004 A 
ATOM      3  C   UNL     1       3.331   2.182  -1.263  0.00  0.00    +0.047 A 
ATOM      4  C   UNL     1       2.178   1.490  -0.925  0.00  0.00    +0.142 A 
ATOM      5  C   UNL     1       1.906   0.269  -1.536  0.00  0.00    +0.070 A 
ATOM      6  C   UNL     1       2.785  -0.253  -2.472  0.00  0.00    +0.026 A 
ATOM      7  N   UNL     1       0.737  -0.433  -1.200  0.00  0.00    -0.337 N 
ATOM      8  C   UNL     1       0.002  -0.004   0.002  0.00  0.00    +0.156 C 
ATOM      9  C   UNL     1      -0.019   1.531   0.011  0.00  0.00    +0.278 C 
ATOM     10  O   UNL     1       1.328   2.010   0.000  0.00  0.00    -0.476 OA
ATOM     11  H   UNL     1       0.365  -1.276  -1.801  0.00  0.00    +0.146 HD
ENDROOT
BRANCH   9  12
ATOM     12  C   UNL     1      -0.719   2.020   1.252  0.00  0.00    +0.270 A 
ATOM     13  N   UNL     1      -1.929   2.522   1.320  0.00  0.00    -0.193 NA
ATOM     14  C   UNL     1      -2.126   2.816   2.617  0.00  0.00    +0.174 A 
ATOM     15  N   UNL     1      -1.047   2.484   3.260  0.00  0.00    -0.061 NA
ATOM     16  O   UNL     1      -0.228   2.019   2.495  0.00  0.00    -0.334 OA
BRANCH  14  17
ATOM     17  C   UNL     1      -3.371   3.419   3.216  0.00  0.00    +0.111 C 
BRANCH  17  18
ATOM     18  C   UNL     1      -4.328   2.302   3.636  0.00  0.00    +0.126 C 
ATOM     19  C   UNL     1      -5.653   2.910   4.144  0.00  0.00    +0.034 C 
ATOM     20  C   UNL     1      -5.999   1.990   5.346  0.00  0.00    +0.031 C 
ATOM     21  C   UNL     1      -4.583   1.661   5.882  0.00  0.00    +0.160 C 
ATOM     22  O   UNL     1      -3.755   1.552   4.714  0.00  0.00    -0.376 OA
ENDBRANCH  17  18
ENDBRANCH  14  17
ENDBRANCH   9  12
TORSDOF 3
