REMARK  Name = ZINC35427106
REMARK  6 active torsions:
REMARK  status: ('A' for Active; 'I' for Inactive)
REMARK    1  A    between atoms: C_1  and  C_2
REMARK    2  A    between atoms: C_2  and  C_3
REMARK    3  A    between atoms: C_2  and  C_4
REMARK    4  A    between atoms: C_4  and  N_5
REMARK    5  A    between atoms: C_20  and  C_22
REMARK    6  A    between atoms: N_29  and  C_32
REMARK                            x       y       z     vdW  Elec       q    Type
REMARK                         _______ _______ _______ _____ _____    ______ ____
ROOT
ATOM      1  N   UNL     1      -2.373  -1.411  -0.017  0.00  0.00    -0.299 N 
ATOM      2  C   UNL     1      -3.267  -2.419  -0.022  0.00  0.00    +0.303 C 
ATOM      3  O   UNL     1      -4.443  -2.188   0.184  0.00  0.00    -0.253 OA
ATOM      4  N   UNL     1      -2.859  -3.682  -0.254  0.00  0.00    -0.269 N 
ATOM      5  C   UNL     1      -1.441  -4.002  -0.502  0.00  0.00    +0.148 C 
ATOM      6  C   UNL     1      -1.257  -5.047  -1.579  0.00  0.00    +0.004 A 
ATOM      7  C   UNL     1      -0.706  -4.762  -2.842  0.00  0.00    -0.034 A 
ATOM      8  C   UNL     1      -0.574  -5.790  -3.724  0.00  0.00    -0.021 A 
ATOM      9  S   UNL     1      -1.207  -7.190  -2.840  0.00  0.00    -0.077 S 
ATOM     10  C   UNL     1      -1.631  -6.336  -1.352  0.00  0.00    +0.090 A 
ATOM     11  N   UNL     1      -2.230  -6.778  -0.179  0.00  0.00    -0.312 N 
ATOM     12  C   UNL     1      -1.992  -7.861   0.596  0.00  0.00    +0.092 A 
ATOM     13  C   UNL     1      -2.809  -7.793   1.672  0.00  0.00    +0.020 A 
ATOM     14  C   UNL     1      -3.594  -6.627   1.537  0.00  0.00    +0.025 A 
ATOM     15  C   UNL     1      -3.241  -6.036   0.386  0.00  0.00    +0.049 A 
ATOM     16  C   UNL     1      -3.812  -4.817  -0.267  0.00  0.00    +0.155 C 
ATOM     17  C   UNL     1      -0.023  -5.716  -5.110  0.00  0.00    -0.036 C 
ATOM     18  N   UNL     1       0.018  -4.299  -5.518  0.00  0.00    +0.381 N 
ATOM     19  C   UNL     1       0.672  -3.507  -4.468  0.00  0.00    -0.074 C 
ATOM     20  C   UNL     1      -0.251  -3.364  -3.255  0.00  0.00    +0.018 C 
ATOM     21  C   UNL     1       0.773  -4.171  -6.771  0.00  0.00    -0.096 C 
ATOM     22  H   UNL     1      -1.435  -1.594  -0.182  0.00  0.00    +0.150 HD
ATOM     23  H   UNL     1      -0.923  -3.962  -5.656  0.00  0.00    -0.082 HD
ENDROOT
BRANCH  16  24
ATOM     24  C   UNL     1      -4.161  -5.149  -1.695  0.00  0.00    -0.021 A 
ATOM     25  C   UNL     1      -4.662  -6.398  -2.012  0.00  0.00    +0.006 A 
ATOM     26  C   UNL     1      -4.982  -6.702  -3.322  0.00  0.00    +0.000 A 
ATOM     27  C   UNL     1      -4.801  -5.758  -4.315  0.00  0.00    +0.000 A 
ATOM     28  C   UNL     1      -4.300  -4.509  -3.998  0.00  0.00    +0.000 A 
ATOM     29  C   UNL     1      -3.985  -4.203  -2.688  0.00  0.00    +0.006 A 
ENDBRANCH  16  24
BRANCH   1  30
ATOM     30  C   UNL     1      -2.817  -0.038   0.236  0.00  0.00    +0.108 C 
BRANCH  30  32
ATOM     31  C   UNL     1      -2.092   2.352   0.325  0.00  0.00    +0.009 C 
ATOM     32  C   UNL     1      -1.613   0.905   0.185  0.00  0.00    -0.000 C 
ATOM     33  C   UNL     1      -0.656   0.572   1.331  0.00  0.00    +0.009 C 
ENDBRANCH  30  32
ENDBRANCH   1  30
TORSDOF 3
