REMARK  Name = ZINC09542296
REMARK  12 active torsions:
REMARK  status: ('A' for Active; 'I' for Inactive)
REMARK    1  A    between atoms: C_1  and  C_2
REMARK    2  A    between atoms: C_2  and  O_3
REMARK    3  A    between atoms: O_3  and  C_4
REMARK    4  A    between atoms: C_8  and  C_11
REMARK    5  A    between atoms: C_9  and  O_10
REMARK    6  A    between atoms: C_14  and  C_28
REMARK    7  A    between atoms: C_16  and  C_18
REMARK    8  A    between atoms: C_21  and  C_24
REMARK    9  A    between atoms: C_24  and  O_26
REMARK   10  A    between atoms: O_26  and  C_27
REMARK   11  A    between atoms: C_31  and  O_34
REMARK   12  A    between atoms: O_34  and  C_35
REMARK                            x       y       z     vdW  Elec       q    Type
REMARK                         _______ _______ _______ _____ _____    ______ ____
ROOT
ATOM      1  C   UNL     1       1.147   1.523  -2.506  0.00  0.00    -0.028 C 
ATOM      2  C   UNL     1       0.233   2.689  -2.892  0.00  0.00    +0.044 C 
ATOM      3  C   UNL     1      -0.209   2.529  -4.320  0.00  0.00    +0.040 C 
ATOM      4  N   UNL     1       0.363   1.733  -5.144  0.00  0.00    -0.299 NA
ATOM      5  C   UNL     1       1.497   0.881  -4.805  0.00  0.00    +0.081 C 
ATOM      6  N   UNL     1       2.151   1.350  -3.574  0.00  0.00    +0.401 N 
ATOM      7  H   UNL     1       2.850   0.659  -3.276  0.00  0.00    -0.081 HD
ATOM      8  H   UNL     1       2.614   2.248  -3.755  0.00  0.00    -0.081 HD
ENDROOT
BRANCH   1  13
ATOM      9  C   UNL     1       1.866   1.824   1.198  0.00  0.00    +0.162 A 
ATOM     10  C   UNL     1       3.126   2.399   1.184  0.00  0.00    +0.049 A 
ATOM     11  C   UNL     1       3.738   2.693  -0.020  0.00  0.00    +0.004 A 
ATOM     12  C   UNL     1       3.098   2.410  -1.212  0.00  0.00    +0.006 A 
ATOM     13  C   UNL     1       1.843   1.830  -1.205  0.00  0.00    -0.016 A 
ATOM     14  C   UNL     1       1.224   1.533  -0.001  0.00  0.00    +0.160 A 
BRANCH  14  15
ATOM     15  O   UNL     1      -0.011   0.963   0.007  0.00  0.00    -0.503 OA
ATOM     16  H   UNL     1       0.002  -0.004   0.002  0.00  0.00    +0.292 HD
ENDBRANCH  14  15
BRANCH   9  17
ATOM     17  O   UNL     1       1.260   1.539   2.382  0.00  0.00    -0.489 OA
BRANCH  17  19
ATOM     18  C   UNL     1       1.144   1.475   4.795  0.00  0.00    +0.048 C 
ATOM     19  C   UNL     1       1.978   1.865   3.574  0.00  0.00    +0.226 C 
ENDBRANCH  17  19
ENDBRANCH   9  17
ENDBRANCH   1  13
BRANCH   5  20
ATOM     20  C   UNL     1       1.014  -0.532  -4.605  0.00  0.00    -0.040 A 
ATOM     21  C   UNL     1       1.694  -1.377  -3.747  0.00  0.00    +0.004 A 
ATOM     22  C   UNL     1       1.254  -2.671  -3.555  0.00  0.00    +0.015 A 
ATOM     23  C   UNL     1       0.126  -3.129  -4.239  0.00  0.00    +0.059 A 
ATOM     24  C   UNL     1      -0.552  -2.273  -5.108  0.00  0.00    +0.015 A 
ATOM     25  C   UNL     1      -0.105  -0.980  -5.286  0.00  0.00    +0.004 A 
BRANCH  23  26
ATOM     26  C   UNL     1      -0.348  -4.515  -4.043  0.00  0.00    +0.339 C 
ATOM     27  O   UNL     1      -1.329  -4.912  -4.640  0.00  0.00    -0.245 OA
BRANCH  26  28
ATOM     28  O   UNL     1       0.309  -5.339  -3.204  0.00  0.00    -0.464 OA
ATOM     29  C   UNL     1      -0.212  -6.687  -3.061  0.00  0.00    +0.280 C 
ENDBRANCH  26  28
ENDBRANCH  23  26
ENDBRANCH   5  20
BRANCH   3  30
ATOM     30  C   UNL     1      -1.355   3.326  -4.794  0.00  0.00    -0.004 A 
ATOM     31  C   UNL     1      -2.008   4.202  -3.923  0.00  0.00    +0.013 A 
ATOM     32  C   UNL     1      -3.075   4.948  -4.371  0.00  0.00    +0.046 A 
ATOM     33  C   UNL     1      -3.509   4.824  -5.686  0.00  0.00    +0.120 A 
ATOM     34  C   UNL     1      -2.866   3.951  -6.554  0.00  0.00    +0.046 A 
ATOM     35  C   UNL     1      -1.794   3.205  -6.115  0.00  0.00    +0.013 A 
BRANCH  33  36
ATOM     36  O   UNL     1      -4.565   5.557  -6.122  0.00  0.00    -0.495 OA
ATOM     37  C   UNL     1      -5.181   6.435  -5.177  0.00  0.00    +0.277 C 
ENDBRANCH  33  36
ENDBRANCH   3  30
TORSDOF 9
