REMARK  Name = ZINC36735516
REMARK  13 active torsions:
REMARK  status: ('A' for Active; 'I' for Inactive)
REMARK    1  A    between atoms: C_1  and  C_2
REMARK    2  A    between atoms: C_4  and  C_31
REMARK    3  A    between atoms: C_6  and  C_30
REMARK    4  A    between atoms: C_7  and  S_8
REMARK    5  A    between atoms: S_8  and  N_11
REMARK    6  A    between atoms: C_17  and  C_19
REMARK    7  A    between atoms: C_20  and  C_29
REMARK    8  A    between atoms: C_21  and  C_26
REMARK    9  A    between atoms: C_22  and  C_25
REMARK   10  A    between atoms: C_26  and  C_28
REMARK   11  A    between atoms: C_31  and  C_32
REMARK   12  A    between atoms: C_31  and  C_33
REMARK   13  A    between atoms: C_31  and  C_34
REMARK                            x       y       z     vdW  Elec       q    Type
REMARK                         _______ _______ _______ _____ _____    ______ ____
ROOT
ATOM      1  N   UNL     1      -0.504   0.325   3.378  0.00  0.00    -0.174 NA
ATOM      2  C   UNL     1      -1.448   1.413   3.084  0.00  0.00    +0.128 C 
ATOM      3  C   UNL     1      -2.736   0.805   2.517  0.00  0.00    +0.125 C 
ATOM      4  N   UNL     1      -3.168  -0.288   3.399  0.00  0.00    -0.294 N 
ATOM      5  C   UNL     1      -2.224  -1.376   3.693  0.00  0.00    +0.125 C 
ATOM      6  C   UNL     1      -0.938  -0.770   4.256  0.00  0.00    +0.128 C 
ATOM      7  C   UNL     1      -4.407  -0.292   3.930  0.00  0.00    +0.263 C 
ATOM      8  O   UNL     1      -5.211   0.560   3.605  0.00  0.00    -0.268 OA
ENDROOT
BRANCH   7   9
ATOM      9  C   UNL     1      -4.785  -1.326   4.902  0.00  0.00    +0.106 A 
ATOM     10  C   UNL     1      -5.080  -2.624   4.611  0.00  0.00    -0.010 A 
ATOM     11  C   UNL     1      -5.389  -3.263   5.836  0.00  0.00    +0.041 A 
ATOM     12  C   UNL     1      -5.266  -2.308   6.832  0.00  0.00    +0.024 A 
ATOM     13  N   UNL     1      -4.898  -1.150   6.264  0.00  0.00    -0.354 N 
ATOM     14  H   UNL     1      -4.738  -0.318   6.738  0.00  0.00    +0.166 HD
ATOM     15  C   UNL     1      -5.500  -2.533   8.304  0.00  0.00    +0.064 C 
ATOM     16  C   UNL     1      -5.078  -3.259   3.244  0.00  0.00    +0.047 C 
BRANCH  11  17
ATOM     17  C   UNL     1      -5.767  -4.668   6.016  0.00  0.00    +0.162 C 
ATOM     18  O   UNL     1      -6.924  -5.007   5.882  0.00  0.00    -0.292 OA
ATOM     19  C   UNL     1      -4.718  -5.692   6.367  0.00  0.00    +0.091 C 
ENDBRANCH  11  17
ENDBRANCH   7   9
BRANCH   1  20
ATOM     20  S   UNL     1       1.018   0.330   2.725  0.00  0.00    +0.061 S 
ATOM     21  O   UNL     1       1.841  -0.419   3.608  0.00  0.00    -0.153 OA
ATOM     22  O   UNL     1       1.304   1.677   2.374  0.00  0.00    -0.153 OA
BRANCH  20  29
ATOM     23  C   UNL     1       0.338   1.548   0.041  0.00  0.00    +0.046 C 
ATOM     24  C   UNL     1       0.621   0.068   0.037  0.00  0.00    -0.024 A 
ATOM     25  C   UNL     1       0.566  -0.643  -1.147  0.00  0.00    +0.009 A 
ATOM     26  C   UNL     1       0.826  -2.000  -1.151  0.00  0.00    -0.041 A 
ATOM     27  C   UNL     1       1.141  -2.647   0.030  0.00  0.00    +0.009 A 
ATOM     28  C   UNL     1       1.196  -1.936   1.214  0.00  0.00    -0.024 A 
ATOM     29  C   UNL     1       0.941  -0.577   1.217  0.00  0.00    +0.111 A 
ATOM     30  C   UNL     1       1.539  -2.641   2.501  0.00  0.00    +0.046 C 
BRANCH  26  31
ATOM     31  C   UNL     1       0.765  -2.776  -2.442  0.00  0.00    -0.013 C 
ATOM     32  C   UNL     1       1.783  -2.202  -3.429  0.00  0.00    +0.015 C 
ATOM     33  C   UNL     1       1.091  -4.245  -2.170  0.00  0.00    +0.015 C 
ATOM     34  C   UNL     1      -0.640  -2.667  -3.037  0.00  0.00    +0.015 C 
ENDBRANCH  26  31
ENDBRANCH  20  29
ENDBRANCH   1  20
TORSDOF 5
