REMARK  Name = ZINC20527677
REMARK  11 active torsions:
REMARK  status: ('A' for Active; 'I' for Inactive)
REMARK    1  A    between atoms: C_1  and  C_2
REMARK    2  A    between atoms: C_2  and  N_3
REMARK    3  A    between atoms: N_3  and  C_4
REMARK    4  A    between atoms: N_3  and  C_6
REMARK    5  A    between atoms: C_4  and  C_5
REMARK    6  A    between atoms: C_9  and  C_12
REMARK    7  A    between atoms: N_13  and  N_14
REMARK    8  A    between atoms: C_18  and  S_21
REMARK    9  A    between atoms: N_19  and  N_20
REMARK   10  A    between atoms: S_21  and  C_22
REMARK   11  A    between atoms: C_22  and  C_23
REMARK                            x       y       z     vdW  Elec       q    Type
REMARK                         _______ _______ _______ _____ _____    ______ ____
ROOT
ATOM      1  N   UNL     1      -1.170   3.505   0.027  0.00  0.00    -0.204 N 
ATOM      2  C   UNL     1      -2.381   4.182   0.036  0.00  0.00    +0.254 A 
ATOM      3  N   UNL     1      -3.571   3.632   0.033  0.00  0.00    -0.109 NA
ATOM      4  N   UNL     1      -4.523   4.661   0.048  0.00  0.00    -0.119 NA
ATOM      5  C   UNL     1      -3.882   5.805   0.051  0.00  0.00    +0.210 A 
ATOM      6  N   UNL     1      -2.542   5.540   0.044  0.00  0.00    -0.211 N 
ATOM      7  H   UNL     1      -0.225   4.067   0.025  0.00  0.00    +0.177 HD
ENDROOT
BRANCH   6   8
ATOM      8  N   UNL     1      -1.540   6.467   0.045  0.00  0.00    -0.294 N 
ATOM      9  H   UNL     1      -1.783   7.540   0.052  0.00  0.00    +0.163 HD
ATOM     10  H   UNL     1      -0.489   6.141   0.038  0.00  0.00    +0.163 HD
ENDBRANCH   6   8
BRANCH   1  12
ATOM     11  C   UNL     1      -0.018   1.470   0.010  0.00  0.00    +0.138 C 
ATOM     12  N   UNL     1      -1.151   2.104   0.019  0.00  0.00    -0.188 NA
BRANCH  11  16
ATOM     13  C   UNL     1       0.040  -2.776  -0.013  0.00  0.00    +0.030 A 
ATOM     14  C   UNL     1       1.236  -2.066  -0.021  0.00  0.00    +0.024 A 
ATOM     15  C   UNL     1       1.221  -0.688  -0.013  0.00  0.00    +0.011 A 
ATOM     16  C   UNL     1       0.002  -0.004   0.002  0.00  0.00    -0.005 A 
ATOM     17  C   UNL     1      -1.198  -0.721   0.015  0.00  0.00    +0.011 A 
ATOM     18  C   UNL     1      -1.175  -2.099   0.003  0.00  0.00    +0.024 A 
BRANCH  13  19
ATOM     19  N   UNL     1       0.059  -4.171  -0.020  0.00  0.00    -0.330 N 
BRANCH  19  21
ATOM     20  C   UNL     1      -1.652  -5.175  -1.451  0.00  0.00    +0.024 C 
ATOM     21  C   UNL     1      -1.200  -4.921  -0.012  0.00  0.00    +0.102 C 
ENDBRANCH  19  21
BRANCH  19  22
ATOM     22  C   UNL     1       1.337  -4.886  -0.036  0.00  0.00    +0.102 C 
ATOM     23  C   UNL     1       1.796  -5.143   1.401  0.00  0.00    +0.024 C 
ENDBRANCH  19  22
ENDBRANCH  13  19
ENDBRANCH  11  16
ENDBRANCH   1  12
BRANCH   5  24
ATOM     24  S   UNL     1      -4.621   7.405   0.063  0.00  0.00    -0.080 S 
BRANCH  24  25
ATOM     25  C   UNL     1      -6.403   7.066   0.069  0.00  0.00    +0.112 C 
BRANCH  25  26
ATOM     26  C   UNL     1      -7.162   8.368   0.079  0.00  0.00    -0.036 A 
ATOM     27  C   UNL     1      -7.515   8.972  -1.114  0.00  0.00    +0.004 A 
ATOM     28  C   UNL     1      -8.212  10.165  -1.105  0.00  0.00    +0.001 A 
ATOM     29  C   UNL     1      -8.556  10.756   0.096  0.00  0.00    +0.015 A 
ATOM     30  C   UNL     1      -8.202  10.153   1.290  0.00  0.00    +0.018 A 
ATOM     31  C   UNL     1      -7.510   8.955   1.280  0.00  0.00    +0.019 A 
ATOM     32 BR   UNL     1      -8.673  10.961   2.933  0.00  0.00    -0.050 Br
ENDBRANCH  25  26
ENDBRANCH  24  25
ENDBRANCH   5  24
TORSDOF 9
