REMARK  Name = ZINC16295548
REMARK  8 active torsions:
REMARK  status: ('A' for Active; 'I' for Inactive)
REMARK    1  A    between atoms: C_1  and  C_2
REMARK    2  A    between atoms: C_2  and  C_4
REMARK    3  A    between atoms: C_7  and  S_10
REMARK    4  A    between atoms: S_10  and  N_13
REMARK    5  A    between atoms: C_19  and  C_21
REMARK    6  A    between atoms: C_21  and  S_22
REMARK    7  A    between atoms: S_22  and  C_23
REMARK    8  A    between atoms: N_27  and  C_28
REMARK                            x       y       z     vdW  Elec       q    Type
REMARK                         _______ _______ _______ _____ _____    ______ ____
ROOT
ATOM      1  N   UNL     1      -5.074  -4.586  -6.939  0.00  0.00    -0.174 NA
ATOM      2  C   UNL     1      -3.709  -4.378  -7.444  0.00  0.00    +0.128 C 
ATOM      3  C   UNL     1      -2.714  -4.821  -6.364  0.00  0.00    +0.125 C 
ATOM      4  N   UNL     1      -3.099  -4.203  -5.088  0.00  0.00    -0.298 N 
ATOM      5  C   UNL     1      -4.461  -4.416  -4.580  0.00  0.00    +0.125 C 
ATOM      6  C   UNL     1      -5.458  -3.968  -5.662  0.00  0.00    +0.128 C 
ATOM      7  C   UNL     1      -2.216  -3.458  -4.393  0.00  0.00    +0.226 C 
ATOM      8  O   UNL     1      -1.093  -3.293  -4.820  0.00  0.00    -0.275 OA
ENDROOT
BRANCH   1   9
ATOM      9  S   UNL     1      -6.158  -5.501  -7.793  0.00  0.00    +0.061 S 
ATOM     10  O   UNL     1      -7.453  -5.074  -7.394  0.00  0.00    -0.153 OA
ATOM     11  O   UNL     1      -5.731  -5.477  -9.148  0.00  0.00    -0.153 OA
BRANCH   9  15
ATOM     12  C   UNL     1      -5.712  -9.782  -6.371  0.00  0.00    +0.017 A 
ATOM     13  C   UNL     1      -6.617  -8.922  -5.740  0.00  0.00    +0.013 A 
ATOM     14  C   UNL     1      -6.747  -7.621  -6.178  0.00  0.00    +0.029 A 
ATOM     15  C   UNL     1      -5.984  -7.165  -7.240  0.00  0.00    +0.106 A 
ATOM     16  C   UNL     1      -5.091  -8.011  -7.873  0.00  0.00    +0.029 A 
ATOM     17  C   UNL     1      -4.946  -9.314  -7.443  0.00  0.00    +0.013 A 
BRANCH  12  19
ATOM     18  C   UNL     1      -4.591 -12.094  -6.592  0.00  0.00    +0.091 C 
ATOM     19  C   UNL     1      -5.567 -11.171  -5.909  0.00  0.00    +0.160 C 
ATOM     20  O   UNL     1      -6.233 -11.574  -4.979  0.00  0.00    -0.292 OA
ENDBRANCH  12  19
ENDBRANCH   9  15
ENDBRANCH   1   9
BRANCH   7  21
ATOM     21  C   UNL     1      -2.625  -2.830  -3.086  0.00  0.00    +0.173 C 
BRANCH  21  22
ATOM     22  S   UNL     1      -1.232  -1.900  -2.401  0.00  0.00    -0.075 S 
BRANCH  22  23
ATOM     23  C   UNL     1      -1.968  -1.291  -0.921  0.00  0.00    +0.210 A 
ATOM     24  N   UNL     1      -3.199  -1.511  -0.512  0.00  0.00    -0.101 NA
ATOM     25  N   UNL     1      -3.415  -0.915   0.605  0.00  0.00    -0.022 NA
ATOM     26  N   UNL     1      -2.357  -0.287   0.990  0.00  0.00    -0.043 NA
ATOM     27  N   UNL     1      -1.372  -0.511   0.012  0.00  0.00    -0.217 N 
BRANCH  27  28
ATOM     28  C   UNL     1       0.002  -0.004   0.002  0.00  0.00    +0.112 C 
ATOM     29  C   UNL     1      -0.019   1.526   0.010  0.00  0.00    +0.027 C 
ATOM     30  C   UNL     1       1.417   2.055  -0.000  0.00  0.00    +0.002 C 
ATOM     31  C   UNL     1       2.157   1.548   1.239  0.00  0.00    +0.000 C 
ATOM     32  C   UNL     1       2.178   0.019   1.231  0.00  0.00    +0.002 C 
ATOM     33  C   UNL     1       0.742  -0.511   1.242  0.00  0.00    +0.027 C 
ENDBRANCH  27  28
ENDBRANCH  22  23
ENDBRANCH  21  22
ENDBRANCH   7  21
TORSDOF 7
