REMARK  Name = ZINC33643423
REMARK  7 active torsions:
REMARK  status: ('A' for Active; 'I' for Inactive)
REMARK    1  A    between atoms: C_1  and  C_2
REMARK    2  A    between atoms: C_7  and  C_8
REMARK    3  A    between atoms: N_16  and  C_19
REMARK    4  A    between atoms: C_24  and  C_25
REMARK    5  A    between atoms: C_26  and  C_28
REMARK    6  A    between atoms: C_26  and  C_35
REMARK    7  A    between atoms: C_28  and  C_29
REMARK                            x       y       z     vdW  Elec       q    Type
REMARK                         _______ _______ _______ _____ _____    ______ ____
ROOT
ATOM      1  C   UNL     1       2.254   2.918   0.205  0.00  0.00    -0.026 C 
ATOM      2  C   UNL     1       1.400   1.736   0.026  0.00  0.00    +0.077 C 
ATOM      3  C   UNL     1       2.146   0.605   0.821  0.00  0.00    +0.086 C 
ATOM      4  C   UNL     1       1.350  -0.547   0.300  0.00  0.00    +0.229 C 
ATOM      5  O   UNL     1       1.745  -1.678   0.116  0.00  0.00    -0.275 OA
ATOM      6  N   UNL     1       0.089  -0.073   0.071  0.00  0.00    -0.210 N 
ATOM      7  C   UNL     1       0.029   1.298   0.066  0.00  0.00    +0.229 C 
ATOM      8  O   UNL     1      -0.966   1.992   0.085  0.00  0.00    -0.275 OA
ATOM      9  C   UNL     1       3.558   0.883   0.325  0.00  0.00    +0.052 C 
ATOM     10  N   UNL     1       3.646   2.379   0.348  0.00  0.00    +0.396 N 
ATOM     11  H   UNL     1       4.266   2.739  -0.487  0.00  0.00    -0.083 HD
ATOM     12  H   UNL     1       4.077   2.723   1.300  0.00  0.00    -0.083 HD
ENDROOT
BRANCH   1  19
ATOM     13  C   UNL     1       0.292   5.033   0.059  0.00  0.00    +0.044 C 
ATOM     14  C   UNL     1       0.907   4.667   1.385  0.00  0.00    -0.049 A 
ATOM     15  C   UNL     1       0.533   5.343   2.531  0.00  0.00    +0.003 A 
ATOM     16  C   UNL     1       1.097   5.006   3.747  0.00  0.00    +0.000 A 
ATOM     17  C   UNL     1       2.035   3.993   3.817  0.00  0.00    +0.000 A 
ATOM     18  C   UNL     1       2.407   3.315   2.672  0.00  0.00    +0.002 A 
ATOM     19  C   UNL     1       1.846   3.655   1.454  0.00  0.00    -0.058 A 
ENDBRANCH   1  19
BRANCH   6  20
ATOM     20  C   UNL     1      -1.024  -0.899  -0.137  0.00  0.00    +0.047 A 
ATOM     21  C   UNL     1      -1.364  -1.299  -1.422  0.00  0.00    +0.024 A 
ATOM     22  C   UNL     1      -2.458  -2.118  -1.623  0.00  0.00    +0.002 A 
ATOM     23  C   UNL     1      -3.221  -2.530  -0.546  0.00  0.00    +0.000 A 
ATOM     24  C   UNL     1      -2.890  -2.128   0.734  0.00  0.00    +0.005 A 
ATOM     25  C   UNL     1      -1.793  -1.314   0.942  0.00  0.00    -0.029 A 
ATOM     26  C   UNL     1      -1.432  -0.878   2.338  0.00  0.00    +0.045 C 
ENDBRANCH   6  20
BRANCH   9  27
ATOM     27  C   UNL     1       3.742   0.358  -1.076  0.00  0.00    +0.347 C 
ATOM     28  O   UNL     1       3.053  -0.550  -1.476  0.00  0.00    -0.248 OA
ATOM     29  O   UNL     1       4.671   0.900  -1.879  0.00  0.00    -0.248 OA
ENDBRANCH   9  27
BRANCH   9  30
ATOM     30  C   UNL     1       4.593   0.267   1.269  0.00  0.00    +0.035 C 
BRANCH  30  31
ATOM     31  C   UNL     1       5.977   0.661   0.823  0.00  0.00    -0.048 A 
ATOM     32  C   UNL     1       6.668  -0.136  -0.071  0.00  0.00    +0.003 A 
ATOM     33  C   UNL     1       7.936   0.228  -0.484  0.00  0.00    +0.000 A 
ATOM     34  C   UNL     1       8.518   1.383   0.006  0.00  0.00    +0.000 A 
ATOM     35  C   UNL     1       7.829   2.177   0.903  0.00  0.00    +0.000 A 
ATOM     36  C   UNL     1       6.559   1.816   1.312  0.00  0.00    +0.003 A 
ENDBRANCH  30  31
ENDBRANCH   9  30
TORSDOF 5
