REMARK  Name = ZINC40309489
REMARK  6 active torsions:
REMARK  status: ('A' for Active; 'I' for Inactive)
REMARK    1  A    between atoms: C_1  and  C_2
REMARK    2  A    between atoms: C_3  and  C_9
REMARK    3  A    between atoms: C_7  and  N_8
REMARK    4  A    between atoms: N_11  and  C_12
REMARK    5  A    between atoms: C_12  and  C_14
REMARK    6  A    between atoms: C_12  and  C_15
REMARK                            x       y       z     vdW  Elec       q    Type
REMARK                         _______ _______ _______ _____ _____    ______ ____
ROOT
ATOM      1  C   UNL     1      -0.228   0.041  -2.477  0.00  0.00    +0.245 C 
ATOM      2  O   UNL     1      -0.154   1.254  -2.486  0.00  0.00    -0.270 OA
ATOM      3  N   UNL     1      -0.427  -0.630  -3.629  0.00  0.00    -0.305 N 
ATOM      4  H   UNL     1      -0.486  -1.598  -3.622  0.00  0.00    +0.150 HD
ENDROOT
BRANCH   1   7
ATOM      5  C   UNL     1      -0.070   1.502   0.015  0.00  0.00    +0.046 C 
ATOM      6  C   UNL     1      -0.023  -0.005   0.004  0.00  0.00    -0.018 A 
ATOM      7  C   UNL     1      -0.099  -0.699  -1.203  0.00  0.00    +0.041 A 
ATOM      8  C   UNL     1      -0.055  -2.094  -1.205  0.00  0.00    +0.013 A 
ATOM      9  C   UNL     1       0.064  -2.782  -0.015  0.00  0.00    +0.003 A 
ATOM     10  C   UNL     1       0.140  -2.095   1.182  0.00  0.00    +0.023 A 
ATOM     11  C   UNL     1       0.103  -0.705   1.194  0.00  0.00    +0.028 A 
BRANCH  11  12
ATOM     12  N   UNL     1       0.186  -0.015   2.406  0.00  0.00    -0.358 N 
ATOM     13  H   UNL     1       0.156   0.955   2.414  0.00  0.00    +0.142 HD
ATOM     14  H   UNL     1       0.274  -0.505   3.238  0.00  0.00    +0.142 HD
ENDBRANCH  11  12
ENDBRANCH   1   7
BRANCH   3  15
ATOM     15  C   UNL     1      -0.554   0.103  -4.891  0.00  0.00    +0.101 C 
ATOM     16  C   UNL     1      -2.004   0.554  -5.075  0.00  0.00    +0.033 C 
BRANCH  15  17
ATOM     17  C   UNL     1      -0.159  -0.795  -6.035  0.00  0.00    -0.014 A 
ATOM     18  C   UNL     1      -0.261  -2.167  -5.905  0.00  0.00    +0.006 A 
ATOM     19  C   UNL     1       0.101  -2.991  -6.954  0.00  0.00    +0.000 A 
ATOM     20  C   UNL     1       0.566  -2.442  -8.135  0.00  0.00    +0.001 A 
ATOM     21  C   UNL     1       0.669  -1.071  -8.267  0.00  0.00    +0.015 A 
ATOM     22  C   UNL     1       0.302  -0.246  -7.218  0.00  0.00    +0.023 A 
ATOM     23 BR   UNL     1       0.436   1.632  -7.400  0.00  0.00    -0.050 Br
ENDBRANCH  15  17
ENDBRANCH   3  15
TORSDOF 4
