REMARK  Name = ZINC13644383
REMARK  7 active torsions:
REMARK  status: ('A' for Active; 'I' for Inactive)
REMARK    1  A    between atoms: C_6  and  O_7
REMARK    2  A    between atoms: O_7  and  C_8
REMARK    3  A    between atoms: C_8  and  C_9
REMARK    4  A    between atoms: N_12  and  C_15
REMARK    5  A    between atoms: C_19  and  C_20
REMARK    6  A    between atoms: C_20  and  C_21
REMARK    7  A    between atoms: C_21  and  C_22
REMARK                            x       y       z     vdW  Elec       q    Type
REMARK                         _______ _______ _______ _____ _____    ______ ____
ROOT
ATOM      1  C   UNL     1       7.695  -0.679   0.812  0.00  0.00    +0.232 C 
ENDROOT
BRANCH   1   2
ATOM      2  C   UNL     1       6.555   0.334   0.940  0.00  0.00    +0.030 C 
ATOM      3  C   UNL     1       7.129   1.754   0.934  0.00  0.00    +0.026 C 
ATOM      4  C   UNL     1       5.992   2.760   1.123  0.00  0.00    +0.105 C 
ATOM      5  N   UNL     1       5.309   2.494   2.396  0.00  0.00    -0.330 N 
ATOM      6  C   UNL     1       4.709   1.154   2.408  0.00  0.00    +0.105 C 
ATOM      7  C   UNL     1       5.808   0.100   2.256  0.00  0.00    +0.026 C 
BRANCH   5   8
ATOM      8  C   UNL     1       4.354   3.471   2.663  0.00  0.00    +0.036 A 
ATOM      9  C   UNL     1       3.242   3.628   1.836  0.00  0.00    +0.041 A 
ATOM     10  C   UNL     1       2.318   4.608   2.134  0.00  0.00    +0.084 A 
ATOM     11  C   UNL     1       3.514   5.270   3.995  0.00  0.00    +0.088 A 
ATOM     12  C   UNL     1       4.485   4.318   3.763  0.00  0.00    -0.010 A 
ATOM     13  N   UNL     1       2.422   5.447   3.201  0.00  0.00    -0.367 N 
ATOM     14  H   UNL     1       1.720   6.171   3.395  0.00  0.00    +0.165 HD
BRANCH  12  15
ATOM     15  C   UNL     1       5.667   4.191   4.689  0.00  0.00    +0.050 C 
BRANCH  15  16
ATOM     16  C   UNL     1       6.836   5.010   4.138  0.00  0.00    +0.130 C 
BRANCH  16  17
ATOM     17  C   UNL     1       8.047   4.808   5.013  0.00  0.00    +0.356 C 
ATOM     18  O   UNL     1       7.981   4.084   5.978  0.00  0.00    -0.246 OA
ATOM     19  O   UNL     1       9.198   5.433   4.720  0.00  0.00    -0.246 OA
ENDBRANCH  16  17
ENDBRANCH  15  16
ENDBRANCH  12  15
ENDBRANCH   5   8
ENDBRANCH   1   2
BRANCH   1  20
ATOM     20  O   UNL     1       7.151  -1.996   0.702  0.00  0.00    -0.492 OA
BRANCH  20  26
ATOM     21  C   UNL     1       9.399  -2.767   0.566  0.00  0.00    +0.046 A 
ATOM     22  C   UNL     1      10.288  -3.812   0.437  0.00  0.00    +0.007 A 
ATOM     23  C   UNL     1       9.833  -5.120   0.324  0.00  0.00    -0.041 A 
ATOM     24  C   UNL     1       8.479  -5.374   0.344  0.00  0.00    -0.023 A 
ATOM     25  C   UNL     1       7.581  -4.324   0.473  0.00  0.00    +0.051 A 
ATOM     26  C   UNL     1       8.035  -3.020   0.579  0.00  0.00    +0.121 A 
ATOM     27  C   UNL     1       7.918  -6.770   0.243  0.00  0.00    +0.143 C 
ATOM     28  N   UNL     1       8.981  -7.703  -0.141  0.00  0.00    -0.301 N 
ATOM     29  C   UNL     1      10.278  -7.569   0.542  0.00  0.00    +0.112 C 
ATOM     30  C   UNL     1      10.865  -6.207   0.173  0.00  0.00    +0.054 C 
ATOM     31  C   UNL     1       8.776  -8.665  -1.102  0.00  0.00    +0.151 C 
ATOM     32  N   UNL     1       7.553  -8.766  -1.723  0.00  0.00    -0.333 N 
ATOM     33  H   UNL     1       9.692 -10.192  -2.090  0.00  0.00    +0.158 HD
ATOM     34  H   UNL     1       6.836  -8.159  -1.483  0.00  0.00    +0.145 HD
ATOM     35  H   UNL     1       7.408  -9.444  -2.401  0.00  0.00    +0.145 HD
ATOM     36  N   UNL     1       9.795  -9.463  -1.384  0.00  0.00    -0.375 N 
ATOM     37  H   UNL     1      10.689  -9.348  -0.892  0.00  0.00    +0.158 HD
ENDBRANCH  20  26
ENDBRANCH   1  20
TORSDOF 7
