REMARK  Name = ZINC24841039
REMARK  12 active torsions:
REMARK  status: ('A' for Active; 'I' for Inactive)
REMARK    1  A    between atoms: C_1  and  C_2
REMARK    2  A    between atoms: C_5  and  C_8
REMARK    3  A    between atoms: C_8  and  C_9
REMARK    4  A    between atoms: C_9  and  C_10
REMARK    5  A    between atoms: N_13  and  C_16
REMARK    6  A    between atoms: C_16  and  C_17
REMARK    7  A    between atoms: N_19  and  C_20
REMARK    8  A    between atoms: C_22  and  S_27
REMARK    9  A    between atoms: C_25  and  C_26
REMARK   10  A    between atoms: S_27  and  N_30
REMARK   11  A    between atoms: N_30  and  C_31
REMARK   12  A    between atoms: N_30  and  C_32
REMARK                            x       y       z     vdW  Elec       q    Type
REMARK                         _______ _______ _______ _____ _____    ______ ____
ROOT
ATOM      1  C   UNL     1       3.411   2.229   1.340  0.00  0.00    +0.019 C 
ENDROOT
BRANCH   1   5
ATOM      2  C   UNL     1       0.097  -0.097  -0.035  0.00  0.00    -0.014 C 
ATOM      3  C   UNL     1      -0.031   1.427   0.039  0.00  0.00    -0.015 C 
ATOM      4  C   UNL     1       1.367   2.051   0.055  0.00  0.00    -0.078 C 
ATOM      5  N   UNL     1       2.115   1.548   1.214  0.00  0.00    +0.385 N 
ATOM      6  C   UNL     1       2.292   0.092   1.140  0.00  0.00    -0.078 C 
ATOM      7  C   UNL     1       0.922  -0.591   1.156  0.00  0.00    -0.015 C 
ATOM      8  H   UNL     1       1.526   1.769   2.116  0.00  0.00    -0.081 HD
BRANCH   2   9
ATOM      9  C   UNL     1      -1.295  -0.730   0.010  0.00  0.00    +0.008 C 
BRANCH   9  10
ATOM     10  C   UNL     1      -1.175  -2.242  -0.190  0.00  0.00    +0.035 C 
BRANCH  10  15
ATOM     11  C   UNL     1      -6.434  -4.630  -0.020  0.00  0.00    +0.044 C 
ATOM     12  C   UNL     1      -5.062  -4.008  -0.065  0.00  0.00    -0.050 A 
ATOM     13  C   UNL     1      -4.539  -3.575  -1.268  0.00  0.00    +0.003 A 
ATOM     14  C   UNL     1      -3.281  -3.003  -1.309  0.00  0.00    +0.004 A 
ATOM     15  C   UNL     1      -2.546  -2.865  -0.146  0.00  0.00    -0.047 A 
ATOM     16  C   UNL     1      -3.068  -3.303   1.057  0.00  0.00    +0.004 A 
ATOM     17  C   UNL     1      -4.328  -3.871   1.098  0.00  0.00    +0.003 A 
ENDBRANCH  10  15
ENDBRANCH   9  10
ENDBRANCH   2   9
ENDBRANCH   1   5
BRANCH   1  18
ATOM     18  C   UNL     1       4.032   1.885   2.669  0.00  0.00    +0.201 C 
ATOM     19  O   UNL     1       3.408   1.233   3.479  0.00  0.00    -0.278 OA
ATOM     20  N   UNL     1       5.281   2.302   2.957  0.00  0.00    -0.287 N 
ATOM     21  H   UNL     1       5.813   2.967   2.261  0.00  0.00    +0.155 HD
BRANCH  20  22
ATOM     22  C   UNL     1       5.901   1.888   4.141  0.00  0.00    +0.038 A 
ATOM     23  C   UNL     1       5.134   1.579   5.257  0.00  0.00    +0.052 A 
ATOM     24  C   UNL     1       5.748   1.166   6.423  0.00  0.00    +0.107 A 
ATOM     25  C   UNL     1       7.127   1.070   6.483  0.00  0.00    +0.029 A 
ATOM     26  C   UNL     1       7.893   1.382   5.376  0.00  0.00    +0.007 A 
ATOM     27  C   UNL     1       7.285   1.791   4.205  0.00  0.00    -0.029 A 
ATOM     28  C   UNL     1       8.121   2.131   2.999  0.00  0.00    +0.045 C 
BRANCH  24  29
ATOM     29  S   UNL     1       4.776   0.768   7.837  0.00  0.00    +0.060 S 
ATOM     30  O   UNL     1       3.486   0.414   7.356  0.00  0.00    -0.153 OA
ATOM     31  O   UNL     1       5.558  -0.110   8.634  0.00  0.00    -0.153 OA
BRANCH  29  32
ATOM     32  N   UNL     1       4.589   2.162   8.712  0.00  0.00    -0.183 NA
ATOM     33  C   UNL     1       3.451   3.045   8.448  0.00  0.00    +0.131 C 
ATOM     34  C   UNL     1       5.562   2.511   9.750  0.00  0.00    +0.131 C 
ENDBRANCH  29  32
ENDBRANCH  24  29
ENDBRANCH  20  22
ENDBRANCH   1  18
TORSDOF 8
