REMARK  Name = ZINC05286475
REMARK  4 active torsions:
REMARK  status: ('A' for Active; 'I' for Inactive)
REMARK    1  A    between atoms: C_11  and  C_13
REMARK    2  A    between atoms: C_13  and  C_23
REMARK    3  A    between atoms: N_14  and  N_15
REMARK    4  A    between atoms: N_15  and  C_16
REMARK                            x       y       z     vdW  Elec       q    Type
REMARK                         _______ _______ _______ _____ _____    ______ ____
ROOT
ATOM      1  C   UNL     1      -1.266  -0.760   0.018  0.00  0.00    +0.151 C 
ATOM      2  N   UNL     1      -1.251  -2.074  -0.097  0.00  0.00    -0.177 NA
ENDROOT
BRANCH   1  13
ATOM      3  C   UNL     1       4.069   2.717  -0.170  0.00  0.00    +0.002 A 
ATOM      4  C   UNL     1       3.454   2.703  -1.414  0.00  0.00    +0.002 A 
ATOM      5  C   UNL     1       2.291   2.017  -1.607  0.00  0.00    +0.030 A 
ATOM      6  C   UNL     1       1.705   1.315  -0.541  0.00  0.00    +0.088 A 
ATOM      7  C   UNL     1       2.330   1.329   0.720  0.00  0.00    +0.068 A 
ATOM      8  C   UNL     1       3.515   2.036   0.893  0.00  0.00    +0.028 A 
ATOM      9  N   UNL     1       1.768   0.643   1.781  0.00  0.00    -0.319 N 
ATOM     10  H   UNL     1       2.208   0.650   2.679  0.00  0.00    +0.169 HD
ATOM     11  C   UNL     1       0.616  -0.036   1.588  0.00  0.00    +0.277 A 
ATOM     12  O   UNL     1       0.099  -0.647   2.505  0.00  0.00    -0.265 OA
ATOM     13  C   UNL     1      -0.008  -0.025   0.251  0.00  0.00    +0.159 A 
ATOM     14  N   UNL     1       0.557   0.638  -0.732  0.00  0.00    -0.238 NA
ENDBRANCH   1  13
BRANCH   2  15
ATOM     15  N   UNL     1      -0.128  -2.707  -0.111  0.00  0.00    -0.237 N 
ATOM     16  H   UNL     1       0.702  -2.225   0.029  0.00  0.00    +0.174 HD
BRANCH  15  17
ATOM     17  C   UNL     1      -0.106  -4.085  -0.328  0.00  0.00    +0.048 A 
ATOM     18  C   UNL     1      -1.296  -4.777  -0.524  0.00  0.00    +0.027 A 
ATOM     19  C   UNL     1      -1.272  -6.140  -0.744  0.00  0.00    +0.040 A 
ATOM     20  C   UNL     1      -0.064  -6.819  -0.759  0.00  0.00    +0.124 A 
ATOM     21  C   UNL     1       1.122  -6.133  -0.559  0.00  0.00    +0.040 A 
ATOM     22  C   UNL     1       1.104  -4.769  -0.344  0.00  0.00    +0.027 A 
ATOM     23  F   UNL     1      -0.044  -8.154  -0.969  0.00  0.00    -0.205 F 
ENDBRANCH  15  17
ENDBRANCH   2  15
BRANCH   1  24
ATOM     24  C   UNL     1      -2.530  -0.031  -0.087  0.00  0.00    +0.282 C 
ATOM     25  O   UNL     1      -3.565  -0.636  -0.279  0.00  0.00    -0.294 OA
ENDBRANCH   1  24
TORSDOF 4
