REMARK  Name = ZINC22517900
REMARK  4 active torsions:
REMARK  status: ('A' for Active; 'I' for Inactive)
REMARK    1  A    between atoms: N_9  and  C_13
REMARK    2  A    between atoms: C_13  and  C_14
REMARK    3  A    between atoms: C_14  and  S_15
REMARK    4  A    between atoms: S_15  and  C_16
REMARK                            x       y       z     vdW  Elec       q    Type
REMARK                         _______ _______ _______ _____ _____    ______ ____
ROOT
ATOM      1  C   UNL     1      -3.320  -2.433  -3.172  0.00  0.00    +0.191 A 
ATOM      2  N   UNL     1      -2.568  -1.734  -4.014  0.00  0.00    -0.207 NA
ATOM      3  C   UNL     1      -2.882  -1.598  -5.291  0.00  0.00    +0.129 A 
ATOM      4  C   UNL     1      -4.063  -2.219  -5.786  0.00  0.00    +0.051 A 
ATOM      5  C   UNL     1      -4.604  -2.204  -7.147  0.00  0.00    -0.025 A 
ATOM      6  C   UNL     1      -5.751  -2.880  -7.358  0.00  0.00    -0.004 A 
ATOM      7  S   UNL     1      -6.178  -3.568  -5.781  0.00  0.00    -0.073 S 
ATOM      8  C   UNL     1      -4.811  -2.945  -4.838  0.00  0.00    +0.115 A 
ATOM      9  N   UNL     1      -4.428  -3.038  -3.579  0.00  0.00    -0.215 NA
ATOM     10  C   UNL     1      -6.501  -3.016  -8.648  0.00  0.00    +0.043 C 
ATOM     11  C   UNL     1      -5.971  -1.962  -9.630  0.00  0.00    +0.005 C 
ATOM     12  C   UNL     1      -4.440  -2.007  -9.619  0.00  0.00    +0.005 C 
ATOM     13  C   UNL     1      -3.914  -1.464  -8.290  0.00  0.00    +0.037 C 
ATOM     14  N   UNL     1      -2.073  -0.861  -6.136  0.00  0.00    -0.343 N 
ATOM     15  H   UNL     1      -2.340  -0.752  -7.197  0.00  0.00    +0.144 HD
ATOM     16  H   UNL     1      -1.161  -0.384  -5.747  0.00  0.00    +0.144 HD
ENDROOT
BRANCH   1  17
ATOM     17  S   UNL     1      -2.832  -2.567  -1.484  0.00  0.00    -0.084 S 
BRANCH  17  18
ATOM     18  C   UNL     1      -1.309  -1.589  -1.518  0.00  0.00    +0.098 C 
BRANCH  18  19
ATOM     19  C   UNL     1      -0.689  -1.562  -0.120  0.00  0.00    +0.146 C 
BRANCH  19  28
ATOM     20  C   UNL     1       3.734   2.829  -0.064  0.00  0.00    +0.001 A 
ATOM     21  C   UNL     1       4.702   1.857  -0.245  0.00  0.00    +0.002 A 
ATOM     22  C   UNL     1       4.324   0.526  -0.346  0.00  0.00    +0.029 A 
ATOM     23  C   UNL     1       3.003   0.190  -0.265  0.00  0.00    +0.121 A 
ATOM     24  C   UNL     1       2.000   1.151  -0.081  0.00  0.00    +0.065 A 
ATOM     25  C   UNL     1       2.402   2.495   0.019  0.00  0.00    +0.015 A 
ATOM     26  C   UNL     1       0.656   0.561  -0.024  0.00  0.00    +0.268 C 
ATOM     27  O   UNL     1      -0.327   1.260   0.127  0.00  0.00    -0.268 OA
ATOM     28  N   UNL     1       0.543  -0.770  -0.147  0.00  0.00    -0.167 N 
ATOM     29  S   UNL     1       2.106  -1.336  -0.340  0.00  0.00    +0.078 S 
ATOM     30  O   UNL     1       2.438  -2.090   0.818  0.00  0.00    -0.150 OA
ATOM     31  O   UNL     1       2.223  -1.841  -1.663  0.00  0.00    -0.150 OA
ENDBRANCH  19  28
ENDBRANCH  18  19
ENDBRANCH  17  18
ENDBRANCH   1  17
TORSDOF 4
