REMARK  Name = ZINC36547012
REMARK  12 active torsions:
REMARK  status: ('A' for Active; 'I' for Inactive)
REMARK    1  A    between atoms: C_1  and  C_2
REMARK    2  A    between atoms: C_2  and  C_3
REMARK    3  A    between atoms: C_3  and  C_4
REMARK    4  A    between atoms: N_6  and  C_7
REMARK    5  A    between atoms: N_6  and  C_14
REMARK    6  A    between atoms: C_14  and  C_16
REMARK    7  A    between atoms: C_14  and  C_23
REMARK    8  A    between atoms: C_19  and  O_22
REMARK    9  A    between atoms: N_25  and  C_26
REMARK   10  A    between atoms: C_26  and  S_27
REMARK   11  A    between atoms: S_27  and  C_30
REMARK   12  A    between atoms: C_33  and  C_36
REMARK                            x       y       z     vdW  Elec       q    Type
REMARK                         _______ _______ _______ _____ _____    ______ ____
ROOT
ATOM      1  C   UNL     1       1.734  -2.168  -3.349  0.00  0.00    +0.197 C 
ENDROOT
BRANCH   1   2
ATOM      2  C   UNL     1       2.654  -1.092  -2.833  0.00  0.00    -0.018 A 
ATOM      3  C   UNL     1       2.461  -0.567  -1.569  0.00  0.00    +0.009 A 
ATOM      4  C   UNL     1       3.303   0.420  -1.093  0.00  0.00    +0.046 A 
ATOM      5  C   UNL     1       4.343   0.884  -1.886  0.00  0.00    +0.117 A 
ATOM      6  C   UNL     1       4.535   0.355  -3.154  0.00  0.00    +0.046 A 
ATOM      7  C   UNL     1       3.693  -0.636  -3.623  0.00  0.00    +0.009 A 
BRANCH   5   8
ATOM      8  O   UNL     1       5.172   1.855  -1.421  0.00  0.00    -0.507 OA
ATOM      9  H   UNL     1       5.946   1.518  -0.948  0.00  0.00    +0.292 HD
ENDBRANCH   5   8
ENDBRANCH   1   2
BRANCH   1  10
ATOM     10  C   UNL     1       0.507  -1.534  -3.951  0.00  0.00    +0.240 C 
ATOM     11  O   UNL     1      -0.393  -1.151  -3.233  0.00  0.00    -0.273 OA
ATOM     12  N   UNL     1       0.409  -1.392  -5.288  0.00  0.00    -0.294 N 
ATOM     13  H   UNL     1       1.128  -1.698  -5.862  0.00  0.00    +0.150 HD
BRANCH  12  14
ATOM     14  C   UNL     1      -0.784  -0.775  -5.873  0.00  0.00    +0.278 C 
BRANCH  14  15
ATOM     15  S   UNL     1      -0.480   0.993  -6.143  0.00  0.00    +0.013 S 
ATOM     16  O   UNL     1      -1.606   1.593  -6.769  0.00  0.00    -0.168 OA
ATOM     17  O   UNL     1       0.097   1.573  -4.981  0.00  0.00    -0.168 OA
BRANCH  15  18
ATOM     18  C   UNL     1       0.795   1.054  -7.357  0.00  0.00    +0.090 A 
ATOM     19  C   UNL     1       2.121   1.062  -6.967  0.00  0.00    +0.027 A 
ATOM     20  C   UNL     1       3.122   1.109  -7.920  0.00  0.00    +0.005 A 
ATOM     21  C   UNL     1       2.796   1.148  -9.262  0.00  0.00    -0.050 A 
ATOM     22  C   UNL     1       1.470   1.139  -9.653  0.00  0.00    +0.005 A 
ATOM     23  C   UNL     1       0.469   1.087  -8.700  0.00  0.00    +0.027 A 
ATOM     24  C   UNL     1       3.886   1.200 -10.301  0.00  0.00    +0.044 C 
ENDBRANCH  15  18
ENDBRANCH  14  15
ENDBRANCH  12  14
ENDBRANCH   1  10
BRANCH   1  27
ATOM     25  C   UNL     1       2.264  -3.792  -1.611  0.00  0.00    +0.221 C 
ATOM     26  O   UNL     1       1.925  -4.582  -0.755  0.00  0.00    -0.275 OA
ATOM     27  N   UNL     1       1.338  -3.044  -2.243  0.00  0.00    -0.254 N 
BRANCH  27  28
ATOM     28  C   UNL     1      -0.002  -3.104  -1.843  0.00  0.00    +0.056 A 
ATOM     29  C   UNL     1      -0.438  -2.356  -0.756  0.00  0.00    +0.025 A 
ATOM     30  C   UNL     1      -1.761  -2.417  -0.364  0.00  0.00    +0.002 A 
ATOM     31  C   UNL     1      -2.652  -3.221  -1.051  0.00  0.00    +0.002 A 
ATOM     32  C   UNL     1      -2.222  -3.967  -2.134  0.00  0.00    +0.022 A 
ATOM     33  C   UNL     1      -0.901  -3.906  -2.535  0.00  0.00    +0.062 A 
ATOM     34 CL   UNL     1      -0.363  -4.837  -3.898  0.00  0.00    -0.082 Cl
ENDBRANCH  27  28
BRANCH  25  35
ATOM     35  C   UNL     1       3.721  -3.647  -1.967  0.00  0.00    +0.096 C 
BRANCH  35  37
ATOM     36  C   UNL     1       6.038  -4.412  -1.432  0.00  0.00    +0.004 C 
ATOM     37  C   UNL     1       4.559  -4.560  -1.070  0.00  0.00    +0.006 C 
ENDBRANCH  35  37
ENDBRANCH  25  35
ENDBRANCH   1  27
TORSDOF 10
