REMARK  Name = ZINC63428332
REMARK  7 active torsions:
REMARK  status: ('A' for Active; 'I' for Inactive)
REMARK    1  A    between atoms: C_1  and  C_2
REMARK    2  A    between atoms: C_5  and  N_8
REMARK    3  A    between atoms: N_8  and  C_9
REMARK    4  A    between atoms: C_9  and  C_10
REMARK    5  A    between atoms: C_22  and  C_24
REMARK    6  A    between atoms: C_24  and  C_25
REMARK    7  A    between atoms: C_25  and  C_26
REMARK                            x       y       z     vdW  Elec       q    Type
REMARK                         _______ _______ _______ _____ _____    ______ ____
ROOT
ATOM      1  N   UNL     1       0.265  -4.199  -0.041  0.00  0.00    -0.270 N 
ATOM      2  C   UNL     1      -0.040  -4.839  -1.187  0.00  0.00    +0.220 C 
ATOM      3  O   UNL     1      -0.301  -6.023  -1.169  0.00  0.00    -0.275 OA
ENDROOT
BRANCH   1   8
ATOM      4  C   UNL     1       1.207   1.395  -0.080  0.00  0.00    +0.044 C 
ATOM      5  C   UNL     1       0.957  -0.091  -0.070  0.00  0.00    -0.050 A 
ATOM      6  C   UNL     1       2.018  -0.970  -0.177  0.00  0.00    +0.005 A 
ATOM      7  C   UNL     1       1.792  -2.332  -0.167  0.00  0.00    +0.024 A 
ATOM      8  C   UNL     1       0.497  -2.819  -0.050  0.00  0.00    +0.036 A 
ATOM      9  C   UNL     1      -0.567  -1.933   0.058  0.00  0.00    +0.024 A 
ATOM     10  C   UNL     1      -0.334  -0.572   0.053  0.00  0.00    +0.005 A 
ENDBRANCH   1   8
BRANCH   1  11
ATOM     11  C   UNL     1       0.353  -4.948   1.215  0.00  0.00    +0.130 C 
BRANCH  11  12
ATOM     12  C   UNL     1      -1.018  -4.971   1.893  0.00  0.00    +0.116 C 
ATOM     13  C   UNL     1      -0.842  -5.557   3.280  0.00  0.00    -0.003 C 
ATOM     14  C   UNL     1      -1.568  -6.670   3.585  0.00  0.00    -0.007 A 
ATOM     15  C   UNL     1      -1.458  -7.301   4.901  0.00  0.00    +0.009 A 
ATOM     16  C   UNL     1      -2.200  -8.408   5.161  0.00  0.00    +0.001 A 
ATOM     17  C   UNL     1      -3.057  -8.950   4.202  0.00  0.00    +0.002 A 
ATOM     18  C   UNL     1      -3.204  -8.412   2.963  0.00  0.00    +0.024 A 
ATOM     19  C   UNL     1      -2.481  -7.263   2.593  0.00  0.00    +0.040 A 
ATOM     20  N   UNL     1      -2.634  -6.744   1.375  0.00  0.00    -0.284 N 
ATOM     21  C   UNL     1      -1.984  -5.669   0.962  0.00  0.00    +0.226 C 
ATOM     22  O   UNL     1      -2.165  -5.242  -0.163  0.00  0.00    -0.275 OA
ATOM     23  H   UNL     1      -3.249  -7.176   0.762  0.00  0.00    +0.155 HD
ENDBRANCH  11  12
ENDBRANCH   1  11
BRANCH   2  24
ATOM     24  C   UNL     1      -0.058  -4.082  -2.490  0.00  0.00    +0.101 C 
BRANCH  24  25
ATOM     25  C   UNL     1      -0.301  -5.058  -3.643  0.00  0.00    +0.044 C 
BRANCH  25  26
ATOM     26  C   UNL     1      -0.318  -4.302  -4.946  0.00  0.00    -0.047 A 
ATOM     27  C   UNL     1      -1.506  -3.787  -5.431  0.00  0.00    +0.003 A 
ATOM     28  C   UNL     1      -1.521  -3.093  -6.626  0.00  0.00    +0.000 A 
ATOM     29  C   UNL     1      -0.349  -2.914  -7.337  0.00  0.00    +0.000 A 
ATOM     30  C   UNL     1       0.838  -3.429  -6.853  0.00  0.00    +0.000 A 
ATOM     31  C   UNL     1       0.855  -4.119  -5.655  0.00  0.00    +0.003 A 
ENDBRANCH  25  26
ENDBRANCH  24  25
ENDBRANCH   2  24
TORSDOF 6
