REMARK  Name = ZINC18250027
REMARK  9 active torsions:
REMARK  status: ('A' for Active; 'I' for Inactive)
REMARK    1  A    between atoms: C_1  and  C_2
REMARK    2  A    between atoms: C_2  and  C_3
REMARK    3  A    between atoms: C_15  and  C_17
REMARK    4  A    between atoms: C_17  and  C_18
REMARK    5  A    between atoms: C_22  and  C_26
REMARK    6  A    between atoms: C_23  and  C_24
REMARK    7  A    between atoms: C_23  and  C_25
REMARK    8  A    between atoms: C_30  and  C_32
REMARK    9  A    between atoms: C_30  and  C_33
REMARK                            x       y       z     vdW  Elec       q    Type
REMARK                         _______ _______ _______ _____ _____    ______ ____
ROOT
ATOM      1  C   UNL     1      -3.311   3.803  -0.885  0.00  0.00    +0.220 C 
ATOM      2  O   UNL     1      -4.350   4.424  -0.813  0.00  0.00    -0.275 OA
ATOM      3  N   UNL     1      -2.426   3.850   0.131  0.00  0.00    -0.262 N 
ATOM      4  C   UNL     1      -1.233   3.132   0.037  0.00  0.00    +0.058 A 
ATOM      5  C   UNL     1      -1.223   1.747   0.017  0.00  0.00    +0.025 A 
ATOM      6  C   UNL     1      -0.013   1.076   0.008  0.00  0.00    +0.002 A 
ATOM      7  C   UNL     1       1.179   1.779   0.000  0.00  0.00    +0.002 A 
ATOM      8  C   UNL     1       1.171   3.163  -0.013  0.00  0.00    +0.025 A 
ATOM      9  C   UNL     1      -0.039   3.835  -0.004  0.00  0.00    +0.053 A 
ATOM     10  N   UNL     1      -0.121   5.220  -0.083  0.00  0.00    -0.316 N 
ATOM     11  C   UNL     1      -0.633   6.025   0.883  0.00  0.00    +0.017 C 
ATOM     12  C   UNL     1      -1.795   5.811   1.524  0.00  0.00    +0.033 C 
ATOM     13  C   UNL     1      -2.727   4.645   1.302  0.00  0.00    +0.117 C 
ATOM     14  C   UNL     1      -2.237   6.716   2.519  0.00  0.00    +0.163 C 
ATOM     15  O   UNL     1      -3.303   6.511   3.065  0.00  0.00    -0.292 OA
ATOM     16  C   UNL     1      -1.438   7.919   2.922  0.00  0.00    +0.086 C 
ATOM     17  C   UNL     1       0.047   7.623   2.675  0.00  0.00    -0.023 C 
ATOM     18  C   UNL     1       0.208   7.250   1.203  0.00  0.00    +0.058 C 
ATOM     19  C   UNL     1       0.497   6.458   3.558  0.00  0.00    +0.011 C 
ATOM     20  C   UNL     1       0.882   8.866   2.989  0.00  0.00    +0.011 C 
ATOM     21  H   UNL     1       0.212   5.644  -0.889  0.00  0.00    +0.152 HD
ENDROOT
BRANCH   1  23
ATOM     22  C   UNL     1      -4.166   3.098  -3.103  0.00  0.00    +0.013 C 
ATOM     23  C   UNL     1      -3.008   2.979  -2.110  0.00  0.00    +0.093 C 
ENDBRANCH   1  23
BRANCH  13  24
ATOM     24  C   UNL     1      -2.669   3.736   2.532  0.00  0.00    +0.032 C 
BRANCH  24  25
ATOM     25  C   UNL     1      -3.697   2.613   2.386  0.00  0.00    +0.004 C 
ATOM     26  C   UNL     1      -5.139   3.172   2.421  0.00  0.00    +0.031 C 
ATOM     27  C   UNL     1      -5.556   3.067   3.870  0.00  0.00    -0.027 C 
ATOM     28  C   UNL     1      -4.769   2.261   4.528  0.00  0.00    -0.071 C 
ATOM     29  C   UNL     1      -3.696   1.693   3.629  0.00  0.00    -0.011 C 
ATOM     30  C   UNL     1      -4.039   0.257   3.230  0.00  0.00    +0.016 C 
ATOM     31  C   UNL     1      -2.335   1.743   4.327  0.00  0.00    +0.016 C 
ATOM     32  C   UNL     1      -4.912   1.939   5.994  0.00  0.00    +0.039 C 
ENDBRANCH  24  25
ENDBRANCH  13  24
TORSDOF 3
