REMARK  Name = ZINC38615161
REMARK  9 active torsions:
REMARK  status: ('A' for Active; 'I' for Inactive)
REMARK    1  A    between atoms: C_1  and  O_2
REMARK    2  A    between atoms: O_2  and  C_3
REMARK    3  A    between atoms: C_6  and  C_9
REMARK    4  A    between atoms: C_9  and  C_11
REMARK    5  A    between atoms: C_9  and  N_29
REMARK    6  A    between atoms: C_11  and  N_12
REMARK    7  A    between atoms: C_13  and  C_15
REMARK    8  A    between atoms: C_15  and  N_16
REMARK    9  A    between atoms: C_20  and  C_21
REMARK                            x       y       z     vdW  Elec       q    Type
REMARK                         _______ _______ _______ _____ _____    ______ ____
ROOT
ATOM      1  N   UNL     1       4.693  -1.749  -3.639  0.00  0.00    -0.315 N 
ATOM      2  C   UNL     1       5.972  -1.901  -3.241  0.00  0.00    +0.231 C 
ATOM      3  O   UNL     1       6.413  -3.010  -3.029  0.00  0.00    -0.274 OA
ATOM      4  H   UNL     1       4.340  -0.861  -3.809  0.00  0.00    +0.149 HD
ENDROOT
BRANCH   1   5
ATOM      5  C   UNL     1       3.836  -2.924  -3.815  0.00  0.00    +0.093 C 
BRANCH   5   6
ATOM      6  C   UNL     1       2.411  -2.472  -4.139  0.00  0.00    -0.020 C 
BRANCH   6   7
ATOM      7  N   UNL     1       1.569  -3.649  -4.394  0.00  0.00    +0.385 N 
ATOM      8  C   UNL     1       2.087  -4.376  -5.559  0.00  0.00    -0.078 C 
ATOM      9  C   UNL     1       1.264  -5.647  -5.779  0.00  0.00    -0.019 C 
ATOM     10  C   UNL     1      -0.199  -5.264  -6.023  0.00  0.00    -0.004 C 
ATOM     11  C   UNL     1      -0.706  -4.443  -4.834  0.00  0.00    -0.019 C 
ATOM     12  C   UNL     1       0.190  -3.217  -4.649  0.00  0.00    -0.078 C 
ATOM     13  H   UNL     1       1.587  -4.254  -3.587  0.00  0.00    -0.081 HD
ENDBRANCH   6   7
BRANCH   6  17
ATOM     14  C   UNL     1       0.825  -0.275  -0.834  0.00  0.00    +0.120 A 
ATOM     15  C   UNL     1       1.328   0.398  -1.939  0.00  0.00    +0.046 A 
ATOM     16  C   UNL     1       1.840  -0.315  -3.006  0.00  0.00    +0.005 A 
ATOM     17  C   UNL     1       1.852  -1.697  -2.974  0.00  0.00    -0.059 A 
ATOM     18  C   UNL     1       1.351  -2.370  -1.875  0.00  0.00    +0.005 A 
ATOM     19  C   UNL     1       0.844  -1.662  -0.802  0.00  0.00    +0.046 A 
BRANCH  14  21
ATOM     20  C   UNL     1       0.335   1.849   0.115  0.00  0.00    +0.277 C 
ATOM     21  O   UNL     1       0.321   0.423   0.217  0.00  0.00    -0.495 OA
ENDBRANCH  14  21
ENDBRANCH   6  17
ENDBRANCH   5   6
ENDBRANCH   1   5
BRANCH   2  22
ATOM     22  C   UNL     1       6.853  -0.692  -3.061  0.00  0.00    +0.210 C 
BRANCH  22  23
ATOM     23  N   UNL     1       8.186  -1.119  -2.627  0.00  0.00    -0.246 N 
ATOM     24  C   UNL     1       8.444  -1.236  -1.336  0.00  0.00    +0.259 C 
ATOM     25  O   UNL     1       7.591  -0.994  -0.501  0.00  0.00    -0.269 OA
ATOM     26  C   UNL     1       9.753  -1.655  -0.950  0.00  0.00    +0.078 C 
ATOM     27  C   UNL     1      10.268  -1.851   0.298  0.00  0.00    +0.035 C 
ATOM     28  S   UNL     1      10.533  -1.854  -2.546  0.00  0.00    -0.061 S 
ATOM     29  C   UNL     1       9.131  -1.394  -3.553  0.00  0.00    +0.121 C 
ATOM     30  S   UNL     1       9.015  -1.318  -5.260  0.00  0.00    -0.027 S 
BRANCH  27  31
ATOM     31  C   UNL     1      11.609  -2.273   0.451  0.00  0.00    +0.013 A 
ATOM     32  C   UNL     1      12.319  -2.533   1.619  0.00  0.00    +0.015 A 
ATOM     33  C   UNL     1      13.622  -2.934   1.445  0.00  0.00    +0.008 A 
ATOM     34  C   UNL     1      14.116  -3.046   0.188  0.00  0.00    +0.046 A 
ATOM     35  S   UNL     1      12.828  -2.619  -0.803  0.00  0.00    -0.097 S 
ENDBRANCH  27  31
ENDBRANCH  22  23
ENDBRANCH   2  22
TORSDOF 8
