REMARK  Name = ZINC03091419
REMARK  4 active torsions:
REMARK  status: ('A' for Active; 'I' for Inactive)
REMARK    1  A    between atoms: C_1  and  C_2
REMARK    2  A    between atoms: C_3  and  C_11
REMARK    3  A    between atoms: C_11  and  C_13
REMARK    4  A    between atoms: C_11  and  O_17
REMARK                            x       y       z     vdW  Elec       q    Type
REMARK                         _______ _______ _______ _____ _____    ______ ____
ROOT
ATOM      1  C   UNL     1      -2.324   5.137  -0.702  0.00  0.00    +0.066 C 
ATOM      2  C   UNL     1      -2.317   3.675  -0.336  0.00  0.00    +0.053 A 
ATOM      3  C   UNL     1      -3.480   3.058   0.025  0.00  0.00    +0.070 A 
ATOM      4  C   UNL     1      -3.449   1.693   0.362  0.00  0.00    +0.259 A 
ATOM      5  O   UNL     1      -4.469   1.110   0.689  0.00  0.00    -0.267 OA
ATOM      6  N   UNL     1      -2.267   1.041   0.317  0.00  0.00    -0.295 N 
ATOM      7  H   UNL     1      -2.221   0.070   0.553  0.00  0.00    +0.172 HD
ATOM      8  C   UNL     1      -1.140   1.708  -0.050  0.00  0.00    +0.193 A 
ATOM      9  N   UNL     1      -1.177   2.989  -0.360  0.00  0.00    -0.221 NA
ATOM     10  N   UNL     1       0.054   1.040  -0.093  0.00  0.00    -0.329 N 
ATOM     11  H   UNL     1       0.091   0.098   0.138  0.00  0.00    +0.145 HD
ATOM     12  H   UNL     1       0.862   1.506  -0.357  0.00  0.00    +0.145 HD
ENDROOT
BRANCH   3  13
ATOM     13  C   UNL     1      -4.776   3.827   0.061  0.00  0.00    +0.202 C 
BRANCH  13  14
ATOM     14  C   UNL     1      -5.129   4.162   1.512  0.00  0.00    +0.220 C 
ATOM     15 CL   UNL     1      -3.867   5.249   2.202  0.00  0.00    -0.080 Cl
ATOM     16 CL   UNL     1      -6.730   4.990   1.565  0.00  0.00    -0.080 Cl
ATOM     17 CL   UNL     1      -5.206   2.642   2.478  0.00  0.00    -0.080 Cl
ENDBRANCH  13  14
BRANCH  13  18
ATOM     18  O   UNL     1      -5.817   3.033  -0.511  0.00  0.00    -0.383 OA
ATOM     19  H   UNL     1      -6.041   2.246   0.005  0.00  0.00    +0.210 HD
ENDBRANCH  13  18
ENDBRANCH   3  13
TORSDOF 3
