REMARK  Name = ZINC22059335
REMARK  8 active torsions:
REMARK  status: ('A' for Active; 'I' for Inactive)
REMARK    1  A    between atoms: C_1  and  C_2
REMARK    2  A    between atoms: C_4  and  O_43
REMARK    3  A    between atoms: C_14  and  C_26
REMARK    4  A    between atoms: C_16  and  C_18
REMARK    5  A    between atoms: C_16  and  C_22
REMARK    6  A    between atoms: C_26  and  C_28
REMARK    7  A    between atoms: C_28  and  O_29
REMARK    8  A    between atoms: C_39  and  C_40
REMARK                            x       y       z     vdW  Elec       q    Type
REMARK                         _______ _______ _______ _____ _____    ______ ____
ROOT
ATOM      1  C   UNL     1       0.159   1.885   0.093  0.00  0.00    +0.015 C 
ATOM      2  C   UNL     1       0.023   0.366   0.135  0.00  0.00    +0.012 C 
ATOM      3  C   UNL     1      -1.440   0.029   0.156  0.00  0.00    +0.044 C 
ATOM      4  C   UNL     1      -2.115   0.695   1.365  0.00  0.00    +0.154 C 
ATOM      5  C   UNL     1      -1.379   0.525   2.676  0.00  0.00    +0.153 C 
ATOM      6  C   UNL     1       0.143   0.715   2.607  0.00  0.00    +0.037 C 
ATOM      7  C   UNL     1       0.646  -0.146   1.470  0.00  0.00    +0.007 C 
ATOM      8  C   UNL     1       2.170  -0.099   1.166  0.00  0.00    +0.039 C 
ATOM      9  C   UNL     1       2.123  -0.836  -0.179  0.00  0.00    +0.162 C 
ATOM     10  C   UNL     1       0.950  -0.081  -0.905  0.00  0.00    +0.164 C 
ATOM     11  O   UNL     1       0.962  -0.606  -2.172  0.00  0.00    -0.332 OA
ATOM     12  C   UNL     1       2.341  -1.036  -2.387  0.00  0.00    +0.166 C 
ATOM     13  O   UNL     1       3.099  -0.679  -1.191  0.00  0.00    -0.343 OA
ATOM     14  C   UNL     1       2.381  -2.557  -2.578  0.00  0.00    +0.074 C 
ATOM     15  C   UNL     1       2.943  -0.366  -3.621  0.00  0.00    +0.074 C 
ATOM     16  C   UNL     1       0.762   0.206   3.920  0.00  0.00    +0.048 C 
ATOM     17  C   UNL     1       0.237   1.021   5.104  0.00  0.00    +0.194 C 
ATOM     18  C   UNL     1      -1.280   0.989   5.069  0.00  0.00    -0.020 C 
ATOM     19  C   UNL     1      -1.945   0.599   6.141  0.00  0.00    +0.054 C 
ATOM     20  C   UNL     1      -3.416   0.552   6.143  0.00  0.00    +0.179 C 
ATOM     21  O   UNL     1      -4.031   0.234   7.143  0.00  0.00    -0.288 OA
ATOM     22  C   UNL     1      -4.119   0.901   4.898  0.00  0.00    +0.047 C 
ATOM     23  C   UNL     1      -3.436   1.293   3.839  0.00  0.00    -0.009 C 
ATOM     24  C   UNL     1      -1.945   1.431   3.783  0.00  0.00    +0.047 C 
ATOM     25  C   UNL     1      -1.595   2.902   3.553  0.00  0.00    +0.023 C 
ATOM     26  F   UNL     1       0.692   0.455   6.304  0.00  0.00    -0.241 F 
ATOM     27  F   UNL     1      -1.598  -0.813   3.099  0.00  0.00    -0.238 F 
ENDROOT
BRANCH  10  28
ATOM     28  C   UNL     1       1.567   1.266  -1.202  0.00  0.00    +0.193 C 
ATOM     29  O   UNL     1       2.453   1.692  -0.501  0.00  0.00    -0.292 OA
BRANCH  28  30
ATOM     30  C   UNL     1       1.076   2.077  -2.374  0.00  0.00    +0.233 C 
BRANCH  30  31
ATOM     31  O   UNL     1       1.668   3.377  -2.334  0.00  0.00    -0.387 OA
ATOM     32  H   UNL     1       1.397   3.955  -3.060  0.00  0.00    +0.210 HD
ENDBRANCH  30  31
ENDBRANCH  28  30
ENDBRANCH  10  28
BRANCH   4  33
ATOM     33  O   UNL     1      -2.454   2.041   1.070  0.00  0.00    -0.389 OA
ATOM     34  H   UNL     1      -3.064   2.139   0.327  0.00  0.00    +0.210 HD
ENDBRANCH   4  33
TORSDOF 4
