REMARK  Name = ZINC35969668
REMARK  12 active torsions:
REMARK  status: ('A' for Active; 'I' for Inactive)
REMARK    1  A    between atoms: C_1  and  N_2
REMARK    2  A    between atoms: N_2  and  C_3
REMARK    3  A    between atoms: N_2  and  C_4
REMARK    4  A    between atoms: C_4  and  C_5
REMARK    5  A    between atoms: C_5  and  N_6
REMARK    6  A    between atoms: C_7  and  C_9
REMARK    7  A    between atoms: C_9  and  N_10
REMARK    8  A    between atoms: C_16  and  C_25
REMARK    9  A    between atoms: N_21  and  C_22
REMARK   10  A    between atoms: C_22  and  C_23
REMARK   11  A    between atoms: C_29  and  O_31
REMARK   12  A    between atoms: O_31  and  C_32
REMARK                            x       y       z     vdW  Elec       q    Type
REMARK                         _______ _______ _______ _____ _____    ______ ____
ROOT
ATOM      1  N   UNL     1      -4.221  -5.665  -0.286  0.00  0.00    -0.283 N 
ATOM      2  C   UNL     1      -4.298  -6.413  -1.549  0.00  0.00    +0.160 C 
ATOM      3  C   UNL     1      -4.335  -7.868  -1.138  0.00  0.00    +0.043 C 
ATOM      4  C   UNL     1      -4.283  -7.883   0.209  0.00  0.00    +0.058 C 
ATOM      5  C   UNL     1      -4.210  -6.568   0.712  0.00  0.00    +0.247 C 
ATOM      6  O   UNL     1      -4.148  -6.286   1.895  0.00  0.00    -0.270 OA
ATOM      7  C   UNL     1      -4.305  -9.231   0.900  0.00  0.00    +0.142 C 
ATOM      8  N   UNL     1      -4.383 -10.422   0.037  0.00  0.00    -0.288 N 
ATOM      9  C   UNL     1      -4.429 -10.245  -1.299  0.00  0.00    +0.307 C 
ATOM     10  O   UNL     1      -4.494 -11.221  -2.020  0.00  0.00    -0.252 OA
ATOM     11  N   UNL     1      -4.406  -9.027  -1.857  0.00  0.00    -0.253 N 
ATOM     12  H   UNL     1      -4.401 -11.313   0.420  0.00  0.00    +0.151 HD
ENDROOT
BRANCH   7  13
ATOM     13  C   UNL     1      -3.057  -9.346   1.737  0.00  0.00    -0.019 A 
ATOM     14  C   UNL     1      -1.855  -9.682   1.141  0.00  0.00    +0.006 A 
ATOM     15  C   UNL     1      -0.708  -9.787   1.906  0.00  0.00    +0.004 A 
ATOM     16  C   UNL     1      -0.760  -9.558   3.267  0.00  0.00    +0.046 A 
ATOM     17  C   UNL     1      -1.965  -9.220   3.867  0.00  0.00    +0.129 A 
ATOM     18  C   UNL     1      -3.114  -9.110   3.096  0.00  0.00    +0.052 A 
BRANCH  17  19
ATOM     19  O   UNL     1      -2.018  -8.994   5.206  0.00  0.00    -0.456 OA
BRANCH  19  20
ATOM     20  C   UNL     1      -2.710  -9.875   5.974  0.00  0.00    +0.128 A 
ATOM     21  C   UNL     1      -3.223 -11.035   5.412  0.00  0.00    +0.046 A 
ATOM     22  C   UNL     1      -3.925 -11.930   6.195  0.00  0.00    +0.004 A 
ATOM     23  C   UNL     1      -4.119 -11.669   7.540  0.00  0.00    +0.000 A 
ATOM     24  C   UNL     1      -3.610 -10.514   8.103  0.00  0.00    +0.004 A 
ATOM     25  C   UNL     1      -2.900  -9.619   7.325  0.00  0.00    +0.046 A 
ENDBRANCH  19  20
ENDBRANCH  17  19
ENDBRANCH   7  13
BRANCH   1  26
ATOM     26  C   UNL     1      -4.162  -4.208  -0.140  0.00  0.00    +0.204 C 
BRANCH  26  28
ATOM     27  N   UNL     1      -2.423  -2.453  -0.032  0.00  0.00    -0.316 N 
ATOM     28  C   UNL     1      -2.723  -3.761  -0.153  0.00  0.00    +0.230 C 
ATOM     29  O   UNL     1      -1.834  -4.578  -0.271  0.00  0.00    -0.274 OA
ATOM     30  H   UNL     1      -3.133  -1.799   0.063  0.00  0.00    +0.149 HD
BRANCH  27  31
ATOM     31  C   UNL     1      -1.024  -2.018  -0.044  0.00  0.00    +0.085 C 
BRANCH  31  32
ATOM     32  C   UNL     1      -0.961  -0.496   0.108  0.00  0.00    -0.061 C 
BRANCH  32  34
ATOM     33  C   UNL     1       0.498   1.407   0.120  0.00  0.00    -0.097 C 
ATOM     34  N   UNL     1       0.441  -0.060   0.095  0.00  0.00    +0.377 N 
ATOM     35  C   UNL     1       1.131  -0.597   1.276  0.00  0.00    -0.097 C 
ATOM     36  H   UNL     1       0.892  -0.400  -0.741  0.00  0.00    -0.083 HD
ENDBRANCH  32  34
ENDBRANCH  31  32
ENDBRANCH  27  31
ENDBRANCH  26  28
ENDBRANCH   1  26
BRANCH  11  37
ATOM     37  C   UNL     1      -4.461  -8.934  -3.318  0.00  0.00    +0.141 C 
BRANCH  37  38
ATOM     38  C   UNL     1      -3.061  -8.954  -3.875  0.00  0.00    -0.015 C 
ATOM     39  C   UNL     1      -2.728  -9.843  -4.778  0.00  0.00    +0.005 C 
ENDBRANCH  37  38
ENDBRANCH  11  37
TORSDOF 10
