REMARK  Name = ZINC37361065
REMARK  7 active torsions:
REMARK  status: ('A' for Active; 'I' for Inactive)
REMARK    1  A    between atoms: C_1  and  C_2
REMARK    2  A    between atoms: C_2  and  C_3
REMARK    3  A    between atoms: C_2  and  N_4
REMARK    4  A    between atoms: C_7  and  C_22
REMARK    5  A    between atoms: C_9  and  N_21
REMARK    6  A    between atoms: N_10  and  C_14
REMARK    7  A    between atoms: C_14  and  C_15
REMARK                            x       y       z     vdW  Elec       q    Type
REMARK                         _______ _______ _______ _____ _____    ______ ____
ROOT
ATOM      1  N   UNL     1      -1.056  -1.322  -0.194  0.00  0.00    -0.311 N 
ATOM      2  C   UNL     1      -1.892  -1.100  -1.273  0.00  0.00    +0.218 A 
ATOM      3  N   UNL     1      -3.131  -1.580  -1.218  0.00  0.00    -0.214 NA
ATOM      4  C   UNL     1      -3.998  -1.412  -2.209  0.00  0.00    +0.091 A 
ATOM      5  C   UNL     1      -3.576  -0.698  -3.354  0.00  0.00    +0.086 A 
ATOM      6  C   UNL     1      -4.153  -0.320  -4.560  0.00  0.00    +0.126 A 
ATOM      7  N   UNL     1      -3.226   0.360  -5.257  0.00  0.00    -0.244 N 
ATOM      8  N   UNL     1      -2.037   0.436  -4.522  0.00  0.00    -0.149 NA
ATOM      9  C   UNL     1      -2.195  -0.183  -3.374  0.00  0.00    +0.188 A 
ATOM     10  N   UNL     1      -1.419  -0.420  -2.298  0.00  0.00    -0.193 NA
ATOM     11  H   UNL     1      -1.377  -1.819   0.574  0.00  0.00    +0.149 HD
ENDROOT
BRANCH   4  12
ATOM     12  C   UNL     1      -5.369  -1.959  -2.118  0.00  0.00    +0.037 A 
ATOM     13  C   UNL     1      -5.842  -2.832  -3.100  0.00  0.00    +0.016 A 
ATOM     14  C   UNL     1      -7.120  -3.338  -3.011  0.00  0.00    +0.039 A 
ATOM     15  C   UNL     1      -7.939  -2.983  -1.948  0.00  0.00    +0.126 A 
ATOM     16  C   UNL     1      -7.477  -2.118  -0.971  0.00  0.00    +0.077 A 
ATOM     17  C   UNL     1      -6.194  -1.608  -1.046  0.00  0.00    +0.135 A 
ATOM     18  F   UNL     1      -5.742  -0.768  -0.089  0.00  0.00    -0.205 F 
ATOM     19  F   UNL     1      -9.191  -3.483  -1.867  0.00  0.00    -0.205 F 
ENDBRANCH   4  12
BRANCH   1  21
ATOM     20  C   UNL     1       0.319   0.646   0.272  0.00  0.00    +0.027 C 
ATOM     21  C   UNL     1       0.315  -0.805  -0.210  0.00  0.00    +0.067 C 
ATOM     22  C   UNL     1       1.190  -1.653   0.715  0.00  0.00    +0.027 C 
ENDBRANCH   1  21
BRANCH   6  23
ATOM     23  N   UNL     1      -5.445  -0.593  -4.968  0.00  0.00    -0.343 N 
ATOM     24  H   UNL     1      -6.078  -0.986  -4.347  0.00  0.00    +0.144 HD
ATOM     25  H   UNL     1      -5.720  -0.391  -5.877  0.00  0.00    +0.144 HD
ENDBRANCH   6  23
BRANCH   7  26
ATOM     26  C   UNL     1      -3.430   0.936  -6.588  0.00  0.00    +0.180 C 
BRANCH  26  27
ATOM     27  C   UNL     1      -3.944   2.346  -6.453  0.00  0.00    -0.026 A 
ATOM     28  C   UNL     1      -5.304   2.583  -6.389  0.00  0.00    +0.005 A 
ATOM     29  C   UNL     1      -5.775   3.877  -6.265  0.00  0.00    +0.000 A 
ATOM     30  C   UNL     1      -4.886   4.933  -6.203  0.00  0.00    +0.000 A 
ATOM     31  C   UNL     1      -3.526   4.696  -6.265  0.00  0.00    +0.000 A 
ATOM     32  C   UNL     1      -3.054   3.402  -6.386  0.00  0.00    +0.005 A 
ENDBRANCH  26  27
ENDBRANCH   7  26
TORSDOF 5
