REMARK  Name = ZINC20268326
REMARK  4 active torsions:
REMARK  status: ('A' for Active; 'I' for Inactive)
REMARK    1  A    between atoms: C_1  and  C_2
REMARK    2  A    between atoms: C_2  and  C_3
REMARK    3  A    between atoms: C_8  and  C_25
REMARK    4  A    between atoms: C_9  and  N_19
REMARK                            x       y       z     vdW  Elec       q    Type
REMARK                         _______ _______ _______ _____ _____    ______ ____
ROOT
ATOM      1  C   UNL     1       1.138  -1.157  -0.118  0.00  0.00    +0.179 C 
ATOM      2  C   UNL     1       0.915  -2.489  -0.873  0.00  0.00    +0.085 C 
ATOM      3  C   UNL     1       2.142  -2.552  -1.760  0.00  0.00    +0.027 A 
ATOM      4  C   UNL     1       2.465  -3.315  -2.878  0.00  0.00    +0.018 A 
ATOM      5  C   UNL     1       1.567  -4.313  -3.457  0.00  0.00    +0.100 A 
ATOM      6  C   UNL     1       2.017  -5.017  -4.585  0.00  0.00    +0.142 A 
ATOM      7  N   UNL     1       3.214  -4.783  -5.108  0.00  0.00    -0.216 NA
ATOM      8  C   UNL     1       4.060  -3.892  -4.623  0.00  0.00    +0.129 A 
ATOM      9  C   UNL     1       3.728  -3.120  -3.494  0.00  0.00    +0.063 A 
ATOM     10  C   UNL     1       4.595  -2.158  -2.945  0.00  0.00    +0.131 A 
ATOM     11  N   UNL     1       4.231  -1.468  -1.881  0.00  0.00    -0.197 NA
ATOM     12  C   UNL     1       3.051  -1.630  -1.272  0.00  0.00    +0.221 A 
ATOM     13  O   UNL     1       2.566  -1.000  -0.164  0.00  0.00    -0.473 OA
ATOM     14  N   UNL     1       5.831  -1.934  -3.522  0.00  0.00    -0.342 N 
ATOM     15  N   UNL     1       5.285  -3.716  -5.232  0.00  0.00    -0.343 N 
ATOM     16  H   UNL     1       5.926  -1.949  -4.487  0.00  0.00    +0.144 HD
ATOM     17  H   UNL     1       6.604  -1.762  -2.962  0.00  0.00    +0.144 HD
ATOM     18  H   UNL     1       5.359  -3.769  -6.197  0.00  0.00    +0.144 HD
ATOM     19  H   UNL     1       6.073  -3.540  -4.694  0.00  0.00    +0.144 HD
ENDROOT
BRANCH   6  20
ATOM     20  N   UNL     1       1.198  -5.969  -5.162  0.00  0.00    -0.314 N 
ATOM     21  C   UNL     1       0.314  -5.618  -6.281  0.00  0.00    +0.106 C 
ATOM     22  C   UNL     1       0.580  -6.583  -7.441  0.00  0.00    +0.019 C 
ATOM     23  C   UNL     1       0.426  -8.023  -6.947  0.00  0.00    +0.003 C 
ATOM     24  C   UNL     1       1.452  -8.298  -5.845  0.00  0.00    +0.019 C 
ATOM     25  C   UNL     1       1.201  -7.354  -4.671  0.00  0.00    +0.106 C 
ENDBRANCH   6  20
BRANCH   1  27
ATOM     26  C   UNL     1       0.829   0.083   2.029  0.00  0.00    +0.007 C 
ATOM     27  C   UNL     1       0.650  -1.265   1.328  0.00  0.00    +0.041 C 
ENDBRANCH   1  27
BRANCH   5  28
ATOM     28  C   UNL     1       0.275  -4.565  -2.892  0.00  0.00    +0.103 C 
ATOM     29  N   UNL     1      -0.750  -4.765  -2.444  0.00  0.00    -0.191 NA
ENDBRANCH   5  28
TORSDOF 3
