REMARK  Name = ZINC12402453
REMARK  6 active torsions:
REMARK  status: ('A' for Active; 'I' for Inactive)
REMARK    1  A    between atoms: C_1  and  C_2
REMARK    2  A    between atoms: C_2  and  O_30
REMARK    3  A    between atoms: C_6  and  O_10
REMARK    4  A    between atoms: C_11  and  C_24
REMARK    5  A    between atoms: C_13  and  C_15
REMARK    6  A    between atoms: N_17  and  C_18
REMARK                            x       y       z     vdW  Elec       q    Type
REMARK                         _______ _______ _______ _____ _____    ______ ____
ROOT
ATOM      1  C   UNL     1       0.705   1.225  -1.215  0.00  0.00    +0.042 C 
ATOM      2  C   UNL     1       0.417   1.814   0.168  0.00  0.00    +0.081 C 
ATOM      3  C   UNL     1       0.710   0.760   1.242  0.00  0.00    +0.090 C 
ATOM      4  C   UNL     1       2.203   0.551   1.309  0.00  0.00    +0.046 A 
ATOM      5  C   UNL     1       3.115   1.406   0.782  0.00  0.00    +0.044 A 
ATOM      6  C   UNL     1       4.387   0.885   1.030  0.00  0.00    +0.235 A 
ATOM      7  N   UNL     1       4.242  -0.244   1.685  0.00  0.00    -0.136 NA
ATOM      8  N   UNL     1       2.870  -0.470   1.871  0.00  0.00    -0.278 N 
ATOM      9  H   UNL     1       2.462  -1.254   2.339  0.00  0.00    +0.189 HD
ATOM     10  C   UNL     1       2.761   2.684   0.064  0.00  0.00    +0.071 C 
ATOM     11  C   UNL     1       1.306   3.039   0.396  0.00  0.00    +0.119 C 
ENDROOT
BRANCH  10  12
ATOM     12  C   UNL     1       3.671   3.794   0.523  0.00  0.00    -0.039 A 
ATOM     13  C   UNL     1       4.178   4.696  -0.394  0.00  0.00    +0.004 A 
ATOM     14  C   UNL     1       5.010   5.717   0.028  0.00  0.00    +0.000 A 
ATOM     15  C   UNL     1       5.342   5.830   1.365  0.00  0.00    +0.000 A 
ATOM     16  C   UNL     1       4.838   4.926   2.281  0.00  0.00    +0.000 A 
ATOM     17  C   UNL     1       4.003   3.907   1.860  0.00  0.00    +0.004 A 
ENDBRANCH  10  12
BRANCH  11  18
ATOM     18  C   UNL     1       1.210   3.467   1.838  0.00  0.00    +0.224 C 
ATOM     19  O   UNL     1       1.580   2.720   2.718  0.00  0.00    -0.275 OA
ATOM     20  N   UNL     1       0.714   4.681   2.148  0.00  0.00    -0.285 N 
ATOM     21  H   UNL     1       0.346   5.247   1.452  0.00  0.00    +0.155 HD
BRANCH  20  22
ATOM     22  C   UNL     1       0.729   5.125   3.475  0.00  0.00    +0.033 A 
ATOM     23  C   UNL     1      -0.268   5.973   3.937  0.00  0.00    +0.023 A 
ATOM     24  C   UNL     1      -0.252   6.406   5.249  0.00  0.00    +0.002 A 
ATOM     25  C   UNL     1       0.761   6.003   6.099  0.00  0.00    +0.000 A 
ATOM     26  C   UNL     1       1.758   5.161   5.641  0.00  0.00    +0.002 A 
ATOM     27  C   UNL     1       1.745   4.721   4.332  0.00  0.00    +0.023 A 
ENDBRANCH  20  22
ENDBRANCH  11  18
BRANCH   6  28
ATOM     28  O   UNL     1       5.568   1.448   0.659  0.00  0.00    -0.491 OA
ATOM     29  H   UNL     1       6.324   0.868   0.962  0.00  0.00    +0.294 HD
ENDBRANCH   6  28
BRANCH   2  30
ATOM     30  O   UNL     1      -0.957   2.201   0.243  0.00  0.00    -0.388 OA
ATOM     31  H   UNL     1      -1.579   1.474   0.108  0.00  0.00    +0.210 HD
ENDBRANCH   2  30
TORSDOF 5
