REMARK  Name = ZINC32800294
REMARK  5 active torsions:
REMARK  status: ('A' for Active; 'I' for Inactive)
REMARK    1  A    between atoms: C_1  and  C_2
REMARK    2  A    between atoms: C_2  and  C_4
REMARK    3  A    between atoms: C_2  and  N_12
REMARK    4  A    between atoms: N_12  and  C_13
REMARK    5  A    between atoms: C_13  and  C_14
REMARK                            x       y       z     vdW  Elec       q    Type
REMARK                         _______ _______ _______ _____ _____    ______ ____
ROOT
ATOM      1  N   UNL     1      -1.376  -0.512   0.012  0.00  0.00    -0.304 NA
ATOM      2  H   UNL     1      -1.974   0.053  -0.571  0.00  0.00    +0.123 HD
ENDROOT
BRANCH   1   4
ATOM      3  C   UNL     1      -0.019   1.526   0.010  0.00  0.00    +0.029 C 
ATOM      4  C   UNL     1       0.002  -0.004   0.002  0.00  0.00    +0.083 C 
BRANCH   4   5
ATOM      5  C   UNL     1       0.707  -0.490  -1.238  0.00  0.00    -0.012 A 
ATOM      6  C   UNL     1      -0.023  -0.817  -2.365  0.00  0.00    +0.008 A 
ATOM      7  C   UNL     1       0.623  -1.263  -3.502  0.00  0.00    +0.020 A 
ATOM      8  C   UNL     1       2.002  -1.382  -3.514  0.00  0.00    +0.042 A 
ATOM      9  C   UNL     1       2.733  -1.054  -2.386  0.00  0.00    +0.040 A 
ATOM     10  C   UNL     1       2.086  -0.603  -1.250  0.00  0.00    +0.047 A 
ATOM     11 CL   UNL     1       3.004  -0.186   0.164  0.00  0.00    -0.083 Cl
ATOM     12 CL   UNL     1       2.813  -1.942  -4.942  0.00  0.00    -0.083 Cl
ENDBRANCH   4   5
ENDBRANCH   1   4
BRANCH   1  13
ATOM     13  C   UNL     1      -1.898  -0.590   1.383  0.00  0.00    +0.135 C 
BRANCH  13  14
ATOM     14  C   UNL     1      -3.311  -1.115   1.354  0.00  0.00    +0.037 A 
ATOM     15  C   UNL     1      -3.620  -2.328   1.930  0.00  0.00    +0.093 A 
ATOM     16  C   UNL     1      -4.934  -2.797   1.893  0.00  0.00    +0.259 A 
ATOM     17  O   UNL     1      -5.214  -3.871   2.402  0.00  0.00    -0.267 OA
ATOM     18  N   UNL     1      -5.907  -2.053   1.287  0.00  0.00    -0.264 N 
ATOM     19  C   UNL     1      -7.237  -2.377   1.171  0.00  0.00    +0.104 A 
ATOM     20  C   UNL     1      -8.092  -1.563   0.553  0.00  0.00    +0.067 A 
ATOM     21  S   UNL     1      -7.027  -0.213   0.069  0.00  0.00    -0.059 S 
ATOM     22  C   UNL     1      -5.512  -0.861   0.741  0.00  0.00    +0.158 A 
ATOM     23  N   UNL     1      -4.282  -0.412   0.776  0.00  0.00    -0.338 N 
ATOM     24  H   UNL     1      -4.075   0.445   0.372  0.00  0.00    +0.168 HD
ENDBRANCH  13  14
ENDBRANCH   1  13
TORSDOF 4
