REMARK  Name = ZINC65638720
REMARK  8 active torsions:
REMARK  status: ('A' for Active; 'I' for Inactive)
REMARK    1  A    between atoms: C_1  and  C_2
REMARK    2  A    between atoms: C_6  and  N_25
REMARK    3  A    between atoms: C_11  and  C_13
REMARK    4  A    between atoms: N_15  and  C_16
REMARK    5  A    between atoms: C_16  and  C_17
REMARK    6  A    between atoms: N_20  and  C_22
REMARK    7  A    between atoms: C_22  and  C_23
REMARK    8  A    between atoms: C_22  and  C_24
REMARK                            x       y       z     vdW  Elec       q    Type
REMARK                         _______ _______ _______ _____ _____    ______ ____
ROOT
ATOM      1  C   UNL     1       1.692  -2.791   1.226  0.00  0.00    +0.029 C 
ATOM      2  C   UNL     1       1.858  -1.354   0.726  0.00  0.00    +0.083 C 
ATOM      3  C   UNL     1       1.938  -1.329  -0.809  0.00  0.00    +0.059 C 
ATOM      4  C   UNL     1       0.752  -0.493  -1.238  0.00  0.00    -0.022 A 
ATOM      5  C   UNL     1       0.310  -0.125  -2.494  0.00  0.00    +0.038 A 
ATOM      6  C   UNL     1      -0.821   0.658  -2.629  0.00  0.00    +0.127 A 
ATOM      7  C   UNL     1      -1.510   1.073  -1.504  0.00  0.00    +0.034 A 
ATOM      8  C   UNL     1      -1.073   0.709  -0.249  0.00  0.00    +0.026 A 
ATOM      9  C   UNL     1       0.069  -0.083  -0.103  0.00  0.00    +0.040 A 
ATOM     10  N   UNL     1       0.674  -0.559   1.062  0.00  0.00    -0.260 N 
ATOM     11  C   UNL     1       0.232  -0.321   2.313  0.00  0.00    +0.306 C 
ATOM     12  O   UNL     1      -0.824   0.252   2.486  0.00  0.00    -0.265 OA
ENDROOT
BRANCH  11  13
ATOM     13  C   UNL     1       1.042  -0.763   3.487  0.00  0.00    +0.300 C 
ATOM     14  O   UNL     1       2.147  -1.237   3.319  0.00  0.00    -0.265 OA
ATOM     15  N   UNL     1       0.547  -0.636   4.734  0.00  0.00    -0.307 N 
ATOM     16  H   UNL     1      -0.336  -0.258   4.869  0.00  0.00    +0.149 HD
BRANCH  15  17
ATOM     17  C   UNL     1       1.342  -1.070   5.886  0.00  0.00    +0.106 C 
BRANCH  17  18
ATOM     18  C   UNL     1       0.554  -0.817   7.173  0.00  0.00    -0.012 C 
ATOM     19  C   UNL     1      -0.631  -1.810   7.295  0.00  0.00    -0.015 C 
ATOM     20  C   UNL     1      -0.835  -1.867   8.829  0.00  0.00    -0.078 C 
ATOM     21  N   UNL     1       0.529  -1.802   9.394  0.00  0.00    +0.381 N 
ATOM     22  C   UNL     1       1.413  -1.148   8.412  0.00  0.00    -0.074 C 
ATOM     23  H   UNL     1       0.864  -2.735   9.584  0.00  0.00    -0.081 HD
BRANCH  21  24
ATOM     24  C   UNL     1       0.512  -1.022  10.639  0.00  0.00    -0.075 C 
ATOM     25  C   UNL     1      -0.396  -1.712  11.660  0.00  0.00    -0.014 C 
ATOM     26  C   UNL     1       1.931  -0.927  11.201  0.00  0.00    -0.014 C 
ENDBRANCH  21  24
ENDBRANCH  17  18
ENDBRANCH  15  17
ENDBRANCH  11  13
BRANCH   6  27
ATOM     27  N   UNL     1      -1.293   1.052  -3.976  0.00  0.00    +0.056 N 
ATOM     28  O   UNL     1      -0.689   0.690  -4.958  0.00  0.00    -0.126 OA
ATOM     29  O   UNL     1      -2.283   1.737  -4.093  0.00  0.00    -0.126 OA
ENDBRANCH   6  27
TORSDOF 5
