REMARK  Name = ZINC08986744
REMARK  4 active torsions:
REMARK  status: ('A' for Active; 'I' for Inactive)
REMARK    1  A    between atoms: C_11  and  C_21
REMARK    2  A    between atoms: C_13  and  N_16
REMARK    3  A    between atoms: C_21  and  C_23
REMARK    4  A    between atoms: C_28  and  O_29
REMARK                            x       y       z     vdW  Elec       q    Type
REMARK                         _______ _______ _______ _____ _____    ______ ____
ROOT
ATOM      1  C   UNL     1       2.663  -2.546  -1.040  0.00  0.00    +0.001 A 
ATOM      2  C   UNL     1       3.808  -1.768  -0.915  0.00  0.00    +0.002 A 
ATOM      3  C   UNL     1       3.724  -0.423  -0.695  0.00  0.00    +0.028 A 
ATOM      4  C   UNL     1       2.467   0.186  -0.593  0.00  0.00    +0.079 A 
ATOM      5  C   UNL     1       1.303  -0.611  -0.720  0.00  0.00    +0.065 A 
ATOM      6  C   UNL     1       1.421  -1.984  -0.945  0.00  0.00    +0.015 A 
ATOM      7  C   UNL     1      -0.001   0.048  -0.610  0.00  0.00    +0.266 A 
ATOM      8  O   UNL     1      -1.036  -0.586  -0.711  0.00  0.00    -0.267 OA
ATOM      9  N   UNL     1      -0.018   1.384  -0.392  0.00  0.00    -0.266 N 
ATOM     10  C   UNL     1      -1.220   2.016  -0.291  0.00  0.00    +0.108 A 
ATOM     11  C   UNL     1      -1.284   3.372  -0.064  0.00  0.00    +0.041 A 
ATOM     12  C   UNL     1      -0.087   4.122   0.055  0.00  0.00    +0.040 A 
ATOM     13  C   UNL     1       1.112   3.490  -0.051  0.00  0.00    +0.074 A 
ATOM     14  C   UNL     1       1.155   2.087  -0.280  0.00  0.00    +0.162 A 
ATOM     15  N   UNL     1       2.338   1.503  -0.378  0.00  0.00    -0.227 NA
ENDROOT
BRANCH  13  16
ATOM     16  N   UNL     1       2.300   4.217   0.065  0.00  0.00    -0.331 N 
ATOM     17  C   UNL     1       2.026   5.654   0.208  0.00  0.00    +0.086 C 
ATOM     18  C   UNL     1       3.350   6.421   0.252  0.00  0.00    -0.063 C 
ATOM     19  C   UNL     1       4.435   4.492   1.231  0.00  0.00    -0.063 C 
ATOM     20  C   UNL     1       3.112   3.724   1.187  0.00  0.00    +0.086 C 
ATOM     21  N   UNL     1       4.165   5.934   1.381  0.00  0.00    +0.381 N 
ATOM     22  H   UNL     1       3.657   6.094   2.260  0.00  0.00    -0.086 HD
ATOM     23  H   UNL     1       5.055   6.445   1.403  0.00  0.00    -0.086 HD
ENDBRANCH  13  16
BRANCH  11  24
ATOM     24  C   UNL     1      -2.593   4.042   0.048  0.00  0.00    +0.198 C 
ATOM     25  O   UNL     1      -3.616   3.385   0.037  0.00  0.00    -0.286 OA
BRANCH  24  26
ATOM     26  C   UNL     1      -2.661   5.510   0.174  0.00  0.00    +0.064 A 
ATOM     27  C   UNL     1      -2.942   6.097   1.411  0.00  0.00    +0.015 A 
ATOM     28  C   UNL     1      -3.000   7.469   1.523  0.00  0.00    +0.001 A 
ATOM     29  C   UNL     1      -2.790   8.271   0.412  0.00  0.00    +0.004 A 
ATOM     30  C   UNL     1      -2.516   7.704  -0.817  0.00  0.00    +0.046 A 
ATOM     31  C   UNL     1      -2.449   6.325  -0.948  0.00  0.00    +0.128 A 
BRANCH  31  32
ATOM     32  O   UNL     1      -2.181   5.767  -2.154  0.00  0.00    -0.506 OA
ATOM     33  H   UNL     1      -2.968   5.580  -2.685  0.00  0.00    +0.292 HD
ENDBRANCH  31  32
ENDBRANCH  24  26
ENDBRANCH  11  24
TORSDOF 4
