REMARK  Name = ZINC35971831
REMARK  8 active torsions:
REMARK  status: ('A' for Active; 'I' for Inactive)
REMARK    1  A    between atoms: C_1  and  C_2
REMARK    2  A    between atoms: C_5  and  C_9
REMARK    3  A    between atoms: C_6  and  C_8
REMARK    4  A    between atoms: N_14  and  C_17
REMARK    5  A    between atoms: C_17  and  C_18
REMARK    6  A    between atoms: N_20  and  N_21
REMARK    7  A    between atoms: N_27  and  C_31
REMARK    8  A    between atoms: C_31  and  C_32
REMARK                            x       y       z     vdW  Elec       q    Type
REMARK                         _______ _______ _______ _____ _____    ______ ____
ROOT
ATOM      1  C   UNL     1       0.169  -4.240   0.422  0.00  0.00    +0.142 C 
ATOM      2  C   UNL     1       1.591  -4.580   0.821  0.00  0.00    +0.058 C 
ATOM      3  C   UNL     1       2.263  -5.463   0.055  0.00  0.00    +0.043 C 
ATOM      4  C   UNL     1       3.633  -5.611   0.677  0.00  0.00    +0.160 C 
ATOM      5  N   UNL     1       3.615  -4.718   1.845  0.00  0.00    -0.283 N 
ATOM      6  C   UNL     1       2.402  -4.139   1.887  0.00  0.00    +0.247 C 
ATOM      7  O   UNL     1       2.050  -3.338   2.734  0.00  0.00    -0.270 OA
ATOM      8  N   UNL     1       1.683  -6.033  -1.043  0.00  0.00    -0.253 N 
ATOM      9  C   UNL     1       0.431  -5.770  -1.440  0.00  0.00    +0.307 C 
ATOM     10  O   UNL     1      -0.001  -6.326  -2.431  0.00  0.00    -0.252 OA
ATOM     11  N   UNL     1      -0.364  -4.907  -0.778  0.00  0.00    -0.288 N 
ATOM     12  H   UNL     1      -1.267  -4.731  -1.084  0.00  0.00    +0.151 HD
ENDROOT
BRANCH   1  17
ATOM     13  C   UNL     1      -0.125   1.467  -0.436  0.00  0.00    +0.044 C 
ATOM     14  C   UNL     1      -0.049  -0.021  -0.212  0.00  0.00    -0.050 A 
ATOM     15  C   UNL     1       1.159  -0.680  -0.353  0.00  0.00    +0.004 A 
ATOM     16  C   UNL     1       1.229  -2.045  -0.147  0.00  0.00    +0.006 A 
ATOM     17  C   UNL     1       0.092  -2.752   0.199  0.00  0.00    -0.020 A 
ATOM     18  C   UNL     1      -1.114  -2.093   0.340  0.00  0.00    -0.045 A 
ATOM     19  C   UNL     1      -1.184  -0.727   0.139  0.00  0.00    +0.007 A 
ATOM     20  C   UNL     1      -2.354  -2.863   0.717  0.00  0.00    +0.044 C 
ENDBRANCH   1  17
BRANCH   5  21
ATOM     21  C   UNL     1       4.715  -4.500   2.789  0.00  0.00    +0.205 C 
BRANCH  21  22
ATOM     22  C   UNL     1       5.573  -3.359   2.305  0.00  0.00    +0.244 C 
ATOM     23  O   UNL     1       5.293  -2.785   1.274  0.00  0.00    -0.273 OA
ATOM     24  N   UNL     1       6.650  -2.977   3.019  0.00  0.00    -0.247 N 
ATOM     25  H   UNL     1       6.874  -3.436   3.844  0.00  0.00    +0.169 HD
BRANCH  24  26
ATOM     26  N   UNL     1       7.428  -1.943   2.581  0.00  0.00    -0.223 NA
ATOM     27  C   UNL     1       8.789  -2.403   2.267  0.00  0.00    +0.133 C 
ATOM     28  C   UNL     1       9.606  -1.228   1.724  0.00  0.00    +0.177 C 
ATOM     29  O   UNL     1       9.601  -0.167   2.683  0.00  0.00    -0.377 OA
ATOM     30  C   UNL     1       8.292   0.306   3.012  0.00  0.00    +0.177 C 
ATOM     31  C   UNL     1       7.461  -0.853   3.567  0.00  0.00    +0.133 C 
ENDBRANCH  24  26
ENDBRANCH  21  22
ENDBRANCH   5  21
BRANCH   8  32
ATOM     32  C   UNL     1       2.473  -6.984  -1.828  0.00  0.00    +0.141 C 
BRANCH  32  33
ATOM     33  C   UNL     1       2.263  -8.376  -1.290  0.00  0.00    -0.015 C 
ATOM     34  C   UNL     1       1.860  -9.333  -2.089  0.00  0.00    +0.005 C 
ENDBRANCH  32  33
ENDBRANCH   8  32
TORSDOF 6
