REMARK  Name = ZINC66504291
REMARK  8 active torsions:
REMARK  status: ('A' for Active; 'I' for Inactive)
REMARK    1  A    between atoms: C_1  and  C_2
REMARK    2  A    between atoms: C_4  and  C_26
REMARK    3  A    between atoms: C_6  and  N_8
REMARK    4  A    between atoms: C_11  and  C_14
REMARK    5  A    between atoms: C_14  and  C_16
REMARK    6  A    between atoms: C_16  and  C_18
REMARK    7  A    between atoms: C_16  and  C_20
REMARK    8  A    between atoms: C_22  and  C_25
REMARK                            x       y       z     vdW  Elec       q    Type
REMARK                         _______ _______ _______ _____ _____    ______ ____
ROOT
ATOM      1  N   UNL     1       0.050  -2.797   2.392  0.00  0.00    -0.267 N 
ATOM      2  C   UNL     1       0.147  -2.187   3.724  0.00  0.00    +0.119 C 
ATOM      3  C   UNL     1       0.122  -3.376   4.702  0.00  0.00    +0.063 C 
ATOM      4  C   UNL     1       0.010  -4.587   3.802  0.00  0.00    +0.060 C 
ATOM      5  C   UNL     1      -0.030  -4.149   2.501  0.00  0.00    +0.250 C 
ATOM      6  O   UNL     1      -0.134  -4.976   1.441  0.00  0.00    -0.270 OA
ENDROOT
BRANCH   1  12
ATOM      7  C   UNL     1       0.067  -2.811  -2.524  0.00  0.00    +0.044 C 
ATOM      8  C   UNL     1       0.043  -2.071  -1.212  0.00  0.00    -0.048 A 
ATOM      9  C   UNL     1       0.008  -0.688  -1.200  0.00  0.00    +0.006 A 
ATOM     10  C   UNL     1      -0.013  -0.004   0.002  0.00  0.00    -0.048 A 
ATOM     11  C   UNL     1       0.001  -0.701   1.195  0.00  0.00    +0.027 A 
ATOM     12  C   UNL     1       0.035  -2.089   1.186  0.00  0.00    +0.037 A 
ATOM     13  C   UNL     1       0.051  -2.773  -0.023  0.00  0.00    +0.027 A 
ATOM     14  C   UNL     1      -0.051   1.502   0.010  0.00  0.00    +0.044 C 
ENDBRANCH   1  12
BRANCH   4  15
ATOM     15  C   UNL     1      -0.049  -5.914   4.219  0.00  0.00    +0.187 C 
ATOM     16  O   UNL     1      -0.140  -6.807   3.398  0.00  0.00    -0.290 OA
BRANCH  15  17
ATOM     17  C   UNL     1      -0.001  -6.244   5.689  0.00  0.00    +0.217 C 
BRANCH  17  18
ATOM     18  C   UNL     1       0.641  -7.594   5.879  0.00  0.00    +0.103 A 
ATOM     19  N   UNL     1       1.722  -7.893   6.555  0.00  0.00    -0.247 NA
ATOM     20  C   UNL     1       2.163  -9.133   6.630  0.00  0.00    +0.046 A 
ATOM     21  C   UNL     1       1.446 -10.082   5.976  0.00  0.00    +0.070 A 
ATOM     22  S   UNL     1       0.138  -9.085   5.281  0.00  0.00    -0.079 S 
ATOM     23  C   UNL     1       3.407  -9.481   7.406  0.00  0.00    +0.066 C 
ENDBRANCH  17  18
BRANCH  17  24
ATOM     24  C   UNL     1      -1.369  -6.270   6.231  0.00  0.00    +0.081 C 
ATOM     25  N   UNL     1      -2.425  -6.290   6.650  0.00  0.00    -0.195 NA
ENDBRANCH  17  24
ENDBRANCH  15  17
ENDBRANCH   4  15
TORSDOF 5
