REMARK  Name = ZINC27142635
REMARK  8 active torsions:
REMARK  status: ('A' for Active; 'I' for Inactive)
REMARK    1  A    between atoms: C_3  and  C_6
REMARK    2  A    between atoms: C_6  and  N_7
REMARK    3  A    between atoms: C_8  and  C_10
REMARK    4  A    between atoms: N_15  and  C_16
REMARK    5  A    between atoms: C_16  and  C_17
REMARK    6  A    between atoms: N_19  and  C_20
REMARK    7  A    between atoms: C_20  and  C_21
REMARK    8  A    between atoms: C_24  and  C_26
REMARK                            x       y       z     vdW  Elec       q    Type
REMARK                         _______ _______ _______ _____ _____    ______ ____
ROOT
ATOM      1  C   UNL     1      -0.805   0.231  -1.827  0.00  0.00    +0.020 C 
ENDROOT
BRANCH   1   6
ATOM      2  C   UNL     1      -2.198   1.888  -0.734  0.00  0.00    +0.020 C 
ATOM      3  C   UNL     1      -2.548   1.824   0.768  0.00  0.00    -0.008 C 
ATOM      4  C   UNL     1      -1.153   1.792   1.453  0.00  0.00    -0.020 C 
ATOM      5  C   UNL     1      -0.333   0.949   0.445  0.00  0.00    -0.077 C 
ATOM      6  N   UNL     1      -0.830   1.358  -0.886  0.00  0.00    +0.393 N 
ATOM      7  H   UNL     1      -0.177   2.138  -1.306  0.00  0.00    -0.080 HD
BRANCH   2   9
ATOM      8  N   UNL     1      -4.037   1.636  -2.367  0.00  0.00    -0.310 N 
ATOM      9  C   UNL     1      -3.165   1.047  -1.526  0.00  0.00    +0.200 C 
ATOM     10  O   UNL     1      -3.158  -0.160  -1.406  0.00  0.00    -0.278 OA
ATOM     11  H   UNL     1      -4.044   2.730  -2.476  0.00  0.00    +0.149 HD
BRANCH   8  12
ATOM     12  C   UNL     1      -4.978   0.818  -3.137  0.00  0.00    +0.178 C 
BRANCH  12  15
ATOM     13  C   UNL     1      -6.623   2.928  -5.672  0.00  0.00    +0.041 A 
ATOM     14  C   UNL     1      -5.553   2.107  -5.249  0.00  0.00    +0.046 A 
ATOM     15  C   UNL     1      -5.836   1.712  -3.995  0.00  0.00    +0.122 A 
ATOM     16  O   UNL     1      -7.010   2.255  -3.634  0.00  0.00    -0.466 OA
ATOM     17  C   UNL     1      -7.492   2.993  -4.647  0.00  0.00    +0.195 A 
ENDBRANCH  12  15
ENDBRANCH   8  12
ENDBRANCH   2   9
ENDBRANCH   1   6
BRANCH   1  18
ATOM     18  C   UNL     1       0.613  -0.018  -2.275  0.00  0.00    +0.197 C 
ATOM     19  O   UNL     1       1.513   0.675  -1.851  0.00  0.00    -0.278 OA
ATOM     20  N   UNL     1       0.880  -1.012  -3.145  0.00  0.00    -0.310 N 
ATOM     21  H   UNL     1       0.063  -1.641  -3.529  0.00  0.00    +0.149 HD
BRANCH  20  22
ATOM     22  C   UNL     1       2.258  -1.254  -3.580  0.00  0.00    +0.178 C 
BRANCH  22  23
ATOM     23  C   UNL     1       2.284  -2.411  -4.545  0.00  0.00    +0.123 A 
ATOM     24  C   UNL     1       2.156  -2.321  -5.883  0.00  0.00    +0.047 A 
ATOM     25  C   UNL     1       2.237  -3.631  -6.395  0.00  0.00    +0.050 A 
ATOM     26  C   UNL     1       2.412  -4.458  -5.330  0.00  0.00    +0.135 A 
ATOM     27  O   UNL     1       2.444  -3.703  -4.215  0.00  0.00    -0.458 OA
BRANCH  26  28
ATOM     28  C   UNL     1       2.550  -5.928  -5.387  0.00  0.00    +0.017 A 
ATOM     29  C   UNL     1       2.498  -6.590  -6.615  0.00  0.00    +0.013 A 
ATOM     30  C   UNL     1       2.633  -7.962  -6.661  0.00  0.00    +0.021 A 
ATOM     31  C   UNL     1       2.807  -8.684  -5.492  0.00  0.00    +0.041 A 
ATOM     32  C   UNL     1       2.853  -8.033  -4.271  0.00  0.00    +0.021 A 
ATOM     33  C   UNL     1       2.725  -6.661  -4.212  0.00  0.00    +0.013 A 
ATOM     34 CL   UNL     1       2.967 -10.411  -5.559  0.00  0.00    -0.084 Cl
ENDBRANCH  26  28
ENDBRANCH  22  23
ENDBRANCH  20  22
ENDBRANCH   1  18
TORSDOF 8
