REMARK  Name = ZINC67260878
REMARK  8 active torsions:
REMARK  status: ('A' for Active; 'I' for Inactive)
REMARK    1  A    between atoms: C_1  and  C_2
REMARK    2  A    between atoms: C_5  and  C_9
REMARK    3  A    between atoms: C_7  and  C_8
REMARK    4  A    between atoms: N_14  and  C_19
REMARK    5  A    between atoms: C_19  and  C_20
REMARK    6  A    between atoms: C_20  and  C_21
REMARK    7  A    between atoms: N_23  and  C_24
REMARK    8  A    between atoms: C_24  and  C_25
REMARK                            x       y       z     vdW  Elec       q    Type
REMARK                         _______ _______ _______ _____ _____    ______ ____
ROOT
ATOM      1  C   UNL     1       0.060  -4.256  -0.021  0.00  0.00    +0.094 A 
ATOM      2  C   UNL     1       0.169  -5.077  -1.155  0.00  0.00    +0.063 A 
ATOM      3  C   UNL     1       0.144  -6.368  -0.669  0.00  0.00    +0.132 A 
ATOM      4  C   UNL     1       0.216  -7.689  -1.300  0.00  0.00    +0.277 A 
ATOM      5  O   UNL     1       0.323  -7.798  -2.508  0.00  0.00    -0.265 OA
ATOM      6  N   UNL     1       0.161  -8.784  -0.509  0.00  0.00    -0.312 N 
ATOM      7  C   UNL     1       0.040  -8.641   0.859  0.00  0.00    +0.109 A 
ATOM      8  C   UNL     1      -0.026  -7.450   1.439  0.00  0.00    +0.131 A 
ATOM      9  N   UNL     1       0.024  -6.281   0.694  0.00  0.00    -0.233 N 
ATOM     10  N   UNL     1      -0.017  -5.042   1.036  0.00  0.00    -0.166 NA
ENDROOT
BRANCH   1  15
ATOM     11  C   UNL     1      -0.018   1.503   0.010  0.00  0.00    +0.044 C 
ATOM     12  C   UNL     1       0.002  -0.004   0.002  0.00  0.00    -0.047 A 
ATOM     13  C   UNL     1       0.006  -0.687  -1.201  0.00  0.00    +0.004 A 
ATOM     14  C   UNL     1       0.024  -2.066  -1.215  0.00  0.00    +0.010 A 
ATOM     15  C   UNL     1       0.040  -2.772  -0.013  0.00  0.00    +0.002 A 
ATOM     16  C   UNL     1       0.037  -2.080   1.196  0.00  0.00    +0.013 A 
ATOM     17  C   UNL     1       0.023  -0.699   1.197  0.00  0.00    -0.047 A 
ATOM     18  C   UNL     1       0.025   0.051   2.504  0.00  0.00    +0.044 C 
ENDBRANCH   1  15
BRANCH   6  19
ATOM     19  C   UNL     1       0.230 -10.121  -1.104  0.00  0.00    +0.134 C 
BRANCH  19  20
ATOM     20  C   UNL     1       1.691 -10.568  -1.186  0.00  0.00    +0.117 C 
BRANCH  20  21
ATOM     21  C   UNL     1       1.762 -11.944  -1.797  0.00  0.00    +0.215 C 
ATOM     22  O   UNL     1       0.744 -12.511  -2.134  0.00  0.00    -0.276 OA
ATOM     23  N   UNL     1       2.956 -12.544  -1.970  0.00  0.00    -0.311 N 
ATOM     24  H   UNL     1       3.770 -12.091  -1.700  0.00  0.00    +0.149 HD
BRANCH  23  25
ATOM     25  C   UNL     1       3.025 -13.881  -2.564  0.00  0.00    +0.142 C 
BRANCH  25  26
ATOM     26  C   UNL     1       4.464 -14.322  -2.645  0.00  0.00    +0.005 A 
ATOM     27  C   UNL     1       5.152 -14.217  -3.839  0.00  0.00    +0.011 A 
ATOM     28  C   UNL     1       6.472 -14.620  -3.915  0.00  0.00    +0.039 A 
ATOM     29  C   UNL     1       7.106 -15.130  -2.794  0.00  0.00    +0.126 A 
ATOM     30  C   UNL     1       6.418 -15.235  -1.598  0.00  0.00    +0.077 A 
ATOM     31  C   UNL     1       5.097 -14.826  -1.522  0.00  0.00    +0.131 A 
ATOM     32  F   UNL     1       4.426 -14.923  -0.354  0.00  0.00    -0.205 F 
ATOM     33  F   UNL     1       8.396 -15.524  -2.869  0.00  0.00    -0.205 F 
ENDBRANCH  25  26
ENDBRANCH  23  25
ENDBRANCH  20  21
ENDBRANCH  19  20
ENDBRANCH   6  19
TORSDOF 6
