REMARK  Name = ZINC32975620
REMARK  8 active torsions:
REMARK  status: ('A' for Active; 'I' for Inactive)
REMARK    1  A    between atoms: C_1  and  C_2
REMARK    2  A    between atoms: C_2  and  C_3
REMARK    3  A    between atoms: C_6  and  N_9
REMARK    4  A    between atoms: N_9  and  S_10
REMARK    5  A    between atoms: S_10  and  C_13
REMARK    6  A    between atoms: C_15  and  C_20
REMARK    7  A    between atoms: C_18  and  C_19
REMARK    8  A    between atoms: C_20  and  N_21
REMARK                            x       y       z     vdW  Elec       q    Type
REMARK                         _______ _______ _______ _____ _____    ______ ____
ROOT
ATOM      1  C   UNL     1       0.892  -1.741   6.409  0.00  0.00    +0.112 A 
ATOM      2  C   UNL     1       0.597  -2.477   7.541  0.00  0.00    +0.034 A 
ATOM      3  C   UNL     1      -0.706  -2.862   7.795  0.00  0.00    -0.028 A 
ATOM      4  C   UNL     1      -1.714  -2.512   6.916  0.00  0.00    +0.005 A 
ATOM      5  C   UNL     1      -1.419  -1.775   5.785  0.00  0.00    +0.005 A 
ATOM      6  C   UNL     1      -0.117  -1.386   5.533  0.00  0.00    -0.024 A 
ATOM      7  C   UNL     1       0.204  -0.578   4.302  0.00  0.00    +0.046 C 
ENDROOT
BRANCH   1   8
ATOM      8  S   UNL     1       2.553  -1.250   6.085  0.00  0.00    +0.073 S 
ATOM      9  O   UNL     1       2.830  -1.615   4.741  0.00  0.00    -0.150 OA
ATOM     10  O   UNL     1       3.334  -1.714   7.178  0.00  0.00    -0.150 OA
BRANCH   8  11
ATOM     11  N   UNL     1       2.594   0.405   6.144  0.00  0.00    -0.216 N 
ATOM     12  H   UNL     1       2.770   0.915   5.338  0.00  0.00    +0.174 HD
BRANCH  11  16
ATOM     13  C   UNL     1       1.941   2.377   9.753  0.00  0.00    -0.048 A 
ATOM     14  C   UNL     1       2.998   2.752   8.943  0.00  0.00    +0.005 A 
ATOM     15  C   UNL     1       3.218   2.099   7.746  0.00  0.00    +0.025 A 
ATOM     16  C   UNL     1       2.375   1.066   7.355  0.00  0.00    +0.048 A 
ATOM     17  C   UNL     1       1.315   0.693   8.170  0.00  0.00    +0.025 A 
ATOM     18  C   UNL     1       1.104   1.346   9.369  0.00  0.00    +0.005 A 
BRANCH  13  20
ATOM     19  C   UNL     1       2.482   2.388  12.173  0.00  0.00    +0.009 C 
ATOM     20  C   UNL     1       1.705   3.091  11.059  0.00  0.00    +0.032 C 
ENDBRANCH  13  20
ENDBRANCH  11  16
ENDBRANCH   8  11
ENDBRANCH   1   8
BRANCH   3  21
ATOM     21  C   UNL     1      -1.028  -3.665   9.029  0.00  0.00    +0.151 C 
BRANCH  21  22
ATOM     22  N   UNL     1      -1.340  -2.757  10.135  0.00  0.00    -0.237 N 
ATOM     23  C   UNL     1      -0.401  -2.273  10.992  0.00  0.00    +0.226 C 
ATOM     24  O   UNL     1       0.741  -2.660  11.117  0.00  0.00    -0.275 OA
ATOM     25  C   UNL     1      -1.064  -1.167  11.748  0.00  0.00    +0.087 C 
ATOM     26  C   UNL     1      -0.681  -0.907  13.186  0.00  0.00    +0.013 C 
ATOM     27  C   UNL     1      -1.576   0.244  13.682  0.00  0.00    +0.001 C 
ATOM     28  C   UNL     1      -3.059  -0.072  13.521  0.00  0.00    +0.001 C 
ATOM     29  C   UNL     1      -3.402  -0.494  12.078  0.00  0.00    +0.013 C 
ATOM     30  C   UNL     1      -2.532  -1.688  11.762  0.00  0.00    +0.087 C 
ATOM     31  C   UNL     1      -2.597  -2.310  10.402  0.00  0.00    +0.226 C 
ATOM     32  O   UNL     1      -3.571  -2.400   9.685  0.00  0.00    -0.275 OA
ENDBRANCH  21  22
ENDBRANCH   3  21
TORSDOF 6
