REMARK  Name = ZINC16495072
REMARK  8 active torsions:
REMARK  status: ('A' for Active; 'I' for Inactive)
REMARK    1  A    between atoms: C_1  and  C_2
REMARK    2  A    between atoms: C_8  and  C_9
REMARK    3  A    between atoms: C_8  and  N_66
REMARK    4  A    between atoms: C_9  and  C_10
REMARK    5  A    between atoms: C_10  and  N_11
REMARK    6  A    between atoms: C_12  and  C_14
REMARK    7  A    between atoms: C_22  and  C_25
REMARK    8  A    between atoms: C_25  and  C_26
REMARK                            x       y       z     vdW  Elec       q    Type
REMARK                         _______ _______ _______ _____ _____    ______ ____
ROOT
ATOM      1  C   UNL     1       5.475   3.493   4.699  0.00  0.00    +0.078 C 
ATOM      2  C   UNL     1       6.314   3.254   3.441  0.00  0.00    +0.032 C 
ATOM      3  C   UNL     1       7.580   4.112   3.507  0.00  0.00    +0.108 C 
ATOM      4  N   UNL     1       8.351   3.758   4.705  0.00  0.00    -0.308 N 
ATOM      5  C   UNL     1       7.582   4.023   5.928  0.00  0.00    +0.108 C 
ATOM      6  C   UNL     1       6.317   3.163   5.935  0.00  0.00    +0.032 C 
ATOM      7  C   UNL     1       9.564   4.421   4.728  0.00  0.00    +0.181 A 
ATOM      8  N   UNL     1      10.530   4.435   3.819  0.00  0.00    -0.208 NA
ATOM      9  C   UNL     1      11.607   5.146   4.058  0.00  0.00    +0.145 A 
ATOM     10  N   UNL     1      11.709   5.820   5.177  0.00  0.00    -0.192 NA
ATOM     11  S   UNL     1      10.224   5.462   5.950  0.00  0.00    +0.049 S 
ENDROOT
BRANCH   1  13
ATOM     12  N   UNL     1       3.366   2.720   3.663  0.00  0.00    -0.315 N 
ATOM     13  C   UNL     1       4.257   2.606   4.668  0.00  0.00    +0.216 C 
ATOM     14  O   UNL     1       4.079   1.790   5.547  0.00  0.00    -0.276 OA
ATOM     15  H   UNL     1       3.509   3.373   2.960  0.00  0.00    +0.149 HD
BRANCH  12  16
ATOM     16  C   UNL     1       2.182   1.858   3.633  0.00  0.00    +0.102 C 
BRANCH  16  17
ATOM     17  C   UNL     1       1.341   2.189   2.398  0.00  0.00    +0.000 C 
BRANCH  17  18
ATOM     18  C   UNL     1       0.104   1.288   2.367  0.00  0.00    -0.077 C 
BRANCH  18  25
ATOM     19  C   UNL     1      -2.691   1.492   2.604  0.00  0.00    -0.013 C 
ATOM     20  C   UNL     1      -2.050   1.033   1.293  0.00  0.00    -0.072 C 
ATOM     21  C   UNL     1      -2.905   1.504   0.115  0.00  0.00    -0.016 C 
ATOM     22  C   UNL     1      -2.248   1.060  -1.195  0.00  0.00    -0.003 C 
ATOM     23  C   UNL     1      -0.829   1.629  -1.265  0.00  0.00    -0.019 C 
ATOM     24  C   UNL     1      -0.034   1.155  -0.046  0.00  0.00    -0.078 C 
ATOM     25  N   UNL     1      -0.705   1.636   1.181  0.00  0.00    +0.381 N 
ATOM     26  H   UNL     1      -0.800   2.657   1.130  0.00  0.00    -0.081 HD
ENDBRANCH  18  25
ENDBRANCH  17  18
ENDBRANCH  16  17
ENDBRANCH  12  16
ENDBRANCH   1  13
BRANCH   9  27
ATOM     27  C   UNL     1      12.725   5.186   3.047  0.00  0.00    +0.112 C 
BRANCH  27  28
ATOM     28  C   UNL     1      12.493   6.324   2.088  0.00  0.00    -0.040 A 
ATOM     29  C   UNL     1      11.771   6.114   0.928  0.00  0.00    +0.005 A 
ATOM     30  C   UNL     1      11.553   7.160   0.050  0.00  0.00    +0.020 A 
ATOM     31  C   UNL     1      12.069   8.413   0.327  0.00  0.00    +0.041 A 
ATOM     32  C   UNL     1      12.798   8.621   1.484  0.00  0.00    +0.020 A 
ATOM     33  C   UNL     1      13.009   7.577   2.364  0.00  0.00    +0.005 A 
ATOM     34 CL   UNL     1      11.803   9.725  -0.779  0.00  0.00    -0.084 Cl
ENDBRANCH  27  28
ENDBRANCH   9  27
TORSDOF 7
