REMARK  Name = ZINC10833729
REMARK  7 active torsions:
REMARK  status: ('A' for Active; 'I' for Inactive)
REMARK    1  A    between atoms: C_4  and  N_9
REMARK    2  A    between atoms: C_5  and  C_7
REMARK    3  A    between atoms: C_10  and  C_12
REMARK    4  A    between atoms: C_12  and  N_45
REMARK    5  A    between atoms: C_13  and  C_14
REMARK    6  A    between atoms: C_13  and  N_45
REMARK    7  A    between atoms: C_19  and  N_45
REMARK                            x       y       z     vdW  Elec       q    Type
REMARK                         _______ _______ _______ _____ _____    ______ ____
ROOT
ATOM      1  N   UNL     1       1.703  -2.374   1.334  0.00  0.00    +0.393 N 
ATOM      2  H   UNL     1       2.164  -1.763   2.018  0.00  0.00    -0.080 HD
ENDROOT
BRANCH   1   3
ATOM      3  C   UNL     1       0.266  -2.467   1.665  0.00  0.00    -0.045 C 
ATOM      4  C   UNL     1      -0.184  -1.125   2.266  0.00  0.00    +0.009 C 
ATOM      5  C   UNL     1      -1.738  -1.121   2.335  0.00  0.00    +0.164 C 
ATOM      6  S   UNL     1      -2.148  -1.909   0.721  0.00  0.00    -0.033 S 
ATOM      7  O   UNL     1      -2.329  -0.893  -0.256  0.00  0.00    -0.174 OA
ATOM      8  O   UNL     1      -3.170  -2.874   0.923  0.00  0.00    -0.174 OA
ATOM      9  C   UNL     1      -0.560  -2.777   0.394  0.00  0.00    +0.151 C 
ENDBRANCH   1   3
BRANCH   1  10
ATOM     10  C   UNL     1       2.323  -3.715   1.393  0.00  0.00    +0.020 C 
BRANCH  10  12
ATOM     11  N   UNL     1       2.922  -5.346   3.154  0.00  0.00    -0.286 N 
ATOM     12  C   UNL     1       2.474  -4.115   2.839  0.00  0.00    +0.201 C 
ATOM     13  O   UNL     1       2.192  -3.328   3.718  0.00  0.00    -0.278 OA
ATOM     14  H   UNL     1       3.210  -5.952   2.453  0.00  0.00    +0.155 HD
BRANCH  11  18
ATOM     15  C   UNL     1       3.070  -6.551   7.145  0.00  0.00    +0.001 A 
ATOM     16  C   UNL     1       3.201  -5.212   6.814  0.00  0.00    +0.002 A 
ATOM     17  C   UNL     1       3.152  -4.811   5.494  0.00  0.00    +0.024 A 
ATOM     18  C   UNL     1       2.971  -5.749   4.487  0.00  0.00    +0.051 A 
ATOM     19  C   UNL     1       2.832  -7.105   4.819  0.00  0.00    +0.073 A 
ATOM     20  C   UNL     1       2.889  -7.497   6.159  0.00  0.00    +0.021 A 
BRANCH  19  21
ATOM     21  C   UNL     1       2.639  -8.083   3.791  0.00  0.00    +0.101 C 
ATOM     22  N   UNL     1       2.486  -8.858   2.975  0.00  0.00    -0.191 NA
ENDBRANCH  19  21
ENDBRANCH  11  18
ENDBRANCH  10  12
ENDBRANCH   1  10
BRANCH   1  23
ATOM     23  C   UNL     1       1.875  -1.798  -0.016  0.00  0.00    -0.002 C 
BRANCH  23  24
ATOM     24  C   UNL     1       1.347  -0.387  -0.015  0.00  0.00    +0.089 A 
ATOM     25  C   UNL     1       2.054   0.717   0.286  0.00  0.00    +0.042 A 
ATOM     26  C   UNL     1       1.173   1.815   0.162  0.00  0.00    +0.041 A 
ATOM     27  C   UNL     1      -0.021   1.317  -0.207  0.00  0.00    +0.195 A 
ATOM     28  O   UNL     1       0.090  -0.017  -0.312  0.00  0.00    -0.470 OA
ENDBRANCH  23  24
ENDBRANCH   1  23
TORSDOF 7
