REMARK  Name = ZINC52547656
REMARK  8 active torsions:
REMARK  status: ('A' for Active; 'I' for Inactive)
REMARK    1  A    between atoms: C_1  and  N_2
REMARK    2  A    between atoms: N_2  and  C_3
REMARK    3  A    between atoms: N_2  and  C_15
REMARK    4  A    between atoms: C_3  and  C_4
REMARK    5  A    between atoms: C_7  and  C_10
REMARK    6  A    between atoms: C_10  and  N_11
REMARK    7  A    between atoms: N_11  and  C_12
REMARK    8  A    between atoms: C_15  and  C_16
REMARK                            x       y       z     vdW  Elec       q    Type
REMARK                         _______ _______ _______ _____ _____    ______ ____
ROOT
ATOM      1  C   UNL     1      -0.106  -0.083  -2.424  0.00  0.00    -0.064 A 
ATOM      2  C   UNL     1      -1.079  -0.931  -2.919  0.00  0.00    +0.002 A 
ATOM      3  C   UNL     1      -1.808  -0.569  -4.036  0.00  0.00    +0.002 A 
ATOM      4  C   UNL     1      -1.565   0.641  -4.658  0.00  0.00    -0.064 A 
ATOM      5  C   UNL     1      -0.593   1.490  -4.163  0.00  0.00    +0.002 A 
ATOM      6  C   UNL     1       0.134   1.129  -3.043  0.00  0.00    +0.002 A 
ENDROOT
BRANCH   1   7
ATOM      7  C   UNL     1       0.690  -0.478  -1.207  0.00  0.00    -0.043 C 
BRANCH   7   9
ATOM      8  C   UNL     1      -0.018   1.465   0.010  0.00  0.00    -0.095 C 
ATOM      9  N   UNL     1       0.002  -0.004   0.002  0.00  0.00    +0.383 N 
ATOM     10  H   UNL     1      -0.945  -0.353   0.009  0.00  0.00    -0.081 HD
BRANCH   9  11
ATOM     11  C   UNL     1       0.713  -0.491   1.192  0.00  0.00    -0.042 C 
BRANCH  11  12
ATOM     12  C   UNL     1      -0.059  -0.109   2.429  0.00  0.00    -0.056 A 
ATOM     13  C   UNL     1       0.180   1.097   3.061  0.00  0.00    +0.024 A 
ATOM     14  C   UNL     1      -0.532   1.409   4.173  0.00  0.00    +0.055 A 
ATOM     15  S   UNL     1      -1.580  -0.025   4.354  0.00  0.00    -0.090 S 
ATOM     16  C   UNL     1      -1.003  -0.941   2.934  0.00  0.00    +0.048 A 
ATOM     17 BR   UNL     1      -0.439   2.960   5.250  0.00  0.00    -0.043 Br
ENDBRANCH  11  12
ENDBRANCH   9  11
ENDBRANCH   7   9
ENDBRANCH   1   7
BRANCH   4  18
ATOM     18  C   UNL     1      -2.360   1.035  -5.876  0.00  0.00    -0.046 C 
BRANCH  18  19
ATOM     19  N   UNL     1      -3.562   1.770  -5.460  0.00  0.00    +0.384 N 
ATOM     20  H   UNL     1      -4.127   1.182  -4.866  0.00  0.00    -0.085 HD
ATOM     21  H   UNL     1      -3.290   2.599  -4.953  0.00  0.00    -0.085 HD
BRANCH  19  22
ATOM     22  C   UNL     1      -4.336   2.155  -6.648  0.00  0.00    -0.072 C 
ATOM     23  C   UNL     1      -4.502   3.649  -6.930  0.00  0.00    -0.017 C 
ATOM     24  C   UNL     1      -5.690   2.830  -6.420  0.00  0.00    -0.017 C 
ENDBRANCH  19  22
ENDBRANCH  18  19
ENDBRANCH   4  18
TORSDOF 7
