REMARK  Name = ZINC08442406
REMARK  8 active torsions:
REMARK  status: ('A' for Active; 'I' for Inactive)
REMARK    1  A    between atoms: C_1  and  C_2
REMARK    2  A    between atoms: C_2  and  O_3
REMARK    3  A    between atoms: O_3  and  C_4
REMARK    4  A    between atoms: C_6  and  C_22
REMARK    5  A    between atoms: C_9  and  O_10
REMARK    6  A    between atoms: O_10  and  C_11
REMARK    7  A    between atoms: C_11  and  C_13
REMARK    8  A    between atoms: C_16  and  N_19
REMARK                            x       y       z     vdW  Elec       q    Type
REMARK                         _______ _______ _______ _____ _____    ______ ____
ROOT
ATOM      1  C   UNL     1       0.749  -1.796  -1.350  0.00  0.00    +0.163 A 
ATOM      2  C   UNL     1       0.211  -2.648  -0.398  0.00  0.00    +0.056 A 
ATOM      3  C   UNL     1       0.340  -4.017  -0.543  0.00  0.00    -0.006 A 
ATOM      4  C   UNL     1       1.003  -4.540  -1.638  0.00  0.00    +0.011 A 
ATOM      5  C   UNL     1       1.542  -3.696  -2.591  0.00  0.00    +0.050 A 
ATOM      6  C   UNL     1       1.412  -2.323  -2.455  0.00  0.00    +0.173 A 
ENDROOT
BRANCH   3   7
ATOM      7  C   UNL     1      -0.245  -4.941   0.493  0.00  0.00    +0.190 C 
ATOM      8  N   UNL     1      -0.613  -6.215  -0.149  0.00  0.00    -0.316 N 
ATOM      9  C   UNL     1      -1.821  -6.250  -0.802  0.00  0.00    +0.080 A 
ATOM     10  C   UNL     1      -2.876  -5.385  -0.477  0.00  0.00    +0.068 A 
ATOM     11  C   UNL     1      -4.083  -5.541  -1.271  0.00  0.00    -0.023 A 
ATOM     12  C   UNL     1      -4.017  -6.511  -2.209  0.00  0.00    -0.005 A 
ATOM     13  S   UNL     1      -2.391  -7.196  -2.040  0.00  0.00    -0.078 S 
ATOM     14  C   UNL     1      -5.092  -6.908  -3.172  0.00  0.00    +0.043 C 
ATOM     15  C   UNL     1      -6.419  -6.302  -2.691  0.00  0.00    +0.005 C 
ATOM     16  C   UNL     1      -6.196  -4.825  -2.356  0.00  0.00    +0.005 C 
ATOM     17  C   UNL     1      -5.341  -4.701  -1.093  0.00  0.00    +0.037 C 
ATOM     18  C   UNL     1      -2.661  -4.421   0.626  0.00  0.00    +0.248 C 
ATOM     19  O   UNL     1      -3.579  -3.765   1.083  0.00  0.00    -0.270 OA
ATOM     20  N   UNL     1      -1.405  -4.301   1.104  0.00  0.00    -0.289 N 
ATOM     21  H   UNL     1      -0.031  -6.991  -0.113  0.00  0.00    +0.149 HD
ATOM     22  H   UNL     1      -1.266  -3.759   1.897  0.00  0.00    +0.151 HD
ENDBRANCH   3   7
BRANCH   1  23
ATOM     23  O   UNL     1       0.623  -0.450  -1.209  0.00  0.00    -0.489 OA
BRANCH  23  25
ATOM     24  C   UNL     1      -0.111   1.548  -0.065  0.00  0.00    +0.048 C 
ATOM     25  C   UNL     1      -0.071   0.019  -0.051  0.00  0.00    +0.226 C 
ENDBRANCH  23  25
ENDBRANCH   1  23
BRANCH   6  26
ATOM     26  O   UNL     1       1.936  -1.492  -3.395  0.00  0.00    -0.419 OA
BRANCH  26  27
ATOM     27  C   UNL     1       3.132  -0.925  -3.142  0.00  0.00    +0.345 C 
ATOM     28  O   UNL     1       3.753  -1.237  -2.146  0.00  0.00    -0.245 OA
BRANCH  27  29
ATOM     29  C   UNL     1       3.687   0.076  -4.075  0.00  0.00    +0.060 A 
ATOM     30  C   UNL     1       2.972   0.441  -5.218  0.00  0.00    +0.017 A 
ATOM     31  C   UNL     1       3.496   1.377  -6.086  0.00  0.00    +0.033 A 
ATOM     32  C   UNL     1       4.727   1.953  -5.826  0.00  0.00    +0.126 A 
ATOM     33  C   UNL     1       5.441   1.596  -4.696  0.00  0.00    +0.033 A 
ATOM     34  C   UNL     1       4.926   0.666  -3.816  0.00  0.00    +0.017 A 
BRANCH  32  35
ATOM     35  N   UNL     1       5.283   2.956  -6.761  0.00  0.00    +0.056 N 
ATOM     36  O   UNL     1       4.662   3.270  -7.750  0.00  0.00    -0.126 OA
ATOM     37  O   UNL     1       6.359   3.462  -6.537  0.00  0.00    -0.126 OA
ENDBRANCH  32  35
ENDBRANCH  27  29
ENDBRANCH  26  27
ENDBRANCH   6  26
TORSDOF 7
