REMARK  Name = ZINC35778785
REMARK  14 active torsions:
REMARK  status: ('A' for Active; 'I' for Inactive)
REMARK    1  A    between atoms: C_1  and  C_2
REMARK    2  A    between atoms: C_7  and  O_8
REMARK    3  A    between atoms: O_8  and  C_9
REMARK    4  A    between atoms: C_9  and  C_10
REMARK    5  A    between atoms: C_20  and  C_22
REMARK    6  A    between atoms: C_22  and  N_23
REMARK    7  A    between atoms: N_23  and  C_24
REMARK    8  A    between atoms: N_23  and  C_34
REMARK    9  A    between atoms: C_24  and  C_25
REMARK   10  A    between atoms: C_25  and  C_27
REMARK   11  A    between atoms: C_25  and  O_33
REMARK   12  A    between atoms: C_34  and  C_35
REMARK   13  A    between atoms: C_35  and  C_36
REMARK   14  A    between atoms: C_35  and  C_37
REMARK                            x       y       z     vdW  Elec       q    Type
REMARK                         _______ _______ _______ _____ _____    ______ ____
ROOT
ATOM      1  C   UNL     1      -0.216  -0.144   4.466  0.00  0.00    +0.144 C 
ATOM      2  C   UNL     1       0.903   0.862   4.201  0.00  0.00    -0.014 A 
ATOM      3  C   UNL     1       2.256   0.533   4.267  0.00  0.00    +0.013 A 
ATOM      4  C   UNL     1       3.194   1.475   4.016  0.00  0.00    +0.046 A 
ATOM      5  S   UNL     1       2.189   2.910   3.666  0.00  0.00    -0.101 S 
ATOM      6  C   UNL     1       0.602   2.150   3.882  0.00  0.00    -0.004 A 
ATOM      7  C   UNL     1      -0.751   2.771   3.752  0.00  0.00    +0.061 C 
ATOM      8  C   UNL     1      -1.798   1.652   3.634  0.00  0.00    +0.113 C 
ATOM      9  N   UNL     1      -1.470   0.607   4.617  0.00  0.00    -0.292 N 
ATOM     10  C   UNL     1      -2.306   0.342   5.640  0.00  0.00    +0.200 C 
ATOM     11  O   UNL     1      -2.026  -0.521   6.444  0.00  0.00    -0.278 OA
ENDROOT
BRANCH   1  12
ATOM     12  C   UNL     1      -0.331  -1.114   3.288  0.00  0.00    +0.256 C 
BRANCH  12  13
ATOM     13  O   UNL     1      -0.491  -0.374   2.076  0.00  0.00    -0.490 OA
BRANCH  13  20
ATOM     14  C   UNL     1      -0.808   1.070  -0.331  0.00  0.00    +0.047 C 
ATOM     15  C   UNL     1      -0.766  -0.436  -0.286  0.00  0.00    -0.009 A 
ATOM     16  C   UNL     1      -0.879  -1.166  -1.453  0.00  0.00    +0.007 A 
ATOM     17  C   UNL     1      -0.841  -2.547  -1.413  0.00  0.00    +0.000 A 
ATOM     18  C   UNL     1      -0.690  -3.202  -0.204  0.00  0.00    +0.004 A 
ATOM     19  C   UNL     1      -0.576  -2.476   0.966  0.00  0.00    +0.046 A 
ATOM     20  C   UNL     1      -0.608  -1.090   0.927  0.00  0.00    +0.123 A 
ENDBRANCH  13  20
ENDBRANCH  12  13
ENDBRANCH   1  12
BRANCH  10  21
ATOM     21  C   UNL     1      -3.590   1.119   5.784  0.00  0.00    +0.019 C 
BRANCH  21  22
ATOM     22  N   UNL     1      -4.318   0.645   6.968  0.00  0.00    +0.387 N 
ATOM     23  H   UNL     1      -4.450  -0.353   6.905  0.00  0.00    -0.081 HD
BRANCH  22  24
ATOM     24  C   UNL     1      -5.627   1.309   7.036  0.00  0.00    -0.042 C 
BRANCH  24  25
ATOM     25  C   UNL     1      -6.504   0.828   5.878  0.00  0.00    +0.128 C 
BRANCH  25  26
ATOM     26  C   UNL     1      -7.907   1.343   6.063  0.00  0.00    -0.021 A 
ATOM     27  C   UNL     1      -8.245   2.606   5.612  0.00  0.00    +0.006 A 
ATOM     28  C   UNL     1      -9.533   3.079   5.781  0.00  0.00    +0.000 A 
ATOM     29  C   UNL     1     -10.483   2.289   6.401  0.00  0.00    +0.000 A 
ATOM     30  C   UNL     1     -10.146   1.026   6.851  0.00  0.00    +0.000 A 
ATOM     31  C   UNL     1      -8.859   0.552   6.678  0.00  0.00    +0.006 A 
ENDBRANCH  25  26
BRANCH  25  32
ATOM     32  O   UNL     1      -5.975   1.318   4.644  0.00  0.00    -0.389 OA
ATOM     33  H   UNL     1      -5.934   2.282   4.590  0.00  0.00    +0.210 HD
ENDBRANCH  25  32
ENDBRANCH  24  25
ENDBRANCH  22  24
BRANCH  22  34
ATOM     34  C   UNL     1      -3.546   0.961   8.177  0.00  0.00    -0.075 C 
BRANCH  34  35
ATOM     35  C   UNL     1      -4.229   0.338   9.396  0.00  0.00    -0.034 C 
ATOM     36  C   UNL     1      -4.211  -1.187   9.268  0.00  0.00    +0.005 C 
ATOM     37  C   UNL     1      -3.483   0.752  10.666  0.00  0.00    +0.005 C 
ENDBRANCH  34  35
ENDBRANCH  22  34
ENDBRANCH  21  22
ENDBRANCH  10  21
TORSDOF 11
