REMARK  Name = ZINC01291114
REMARK  7 active torsions:
REMARK  status: ('A' for Active; 'I' for Inactive)
REMARK    1  A    between atoms: C_1  and  C_2
REMARK    2  A    between atoms: N_7  and  C_10
REMARK    3  A    between atoms: C_10  and  C_11
REMARK    4  A    between atoms: N_13  and  C_14
REMARK    5  A    between atoms: C_23  and  C_24
REMARK    6  A    between atoms: C_24  and  O_26
REMARK    7  A    between atoms: O_26  and  C_27
REMARK                            x       y       z     vdW  Elec       q    Type
REMARK                         _______ _______ _______ _____ _____    ______ ____
ROOT
ATOM      1  C   UNL     1      -2.265   0.338  -6.115  0.00  0.00    +0.046 C 
ATOM      2  C   UNL     1      -0.777   0.159  -5.958  0.00  0.00    -0.015 A 
ATOM      3  C   UNL     1      -0.007  -0.281  -7.036  0.00  0.00    +0.076 A 
ATOM      4  C   UNL     1       1.378  -0.418  -6.789  0.00  0.00    +0.116 A 
ATOM      5  N   UNL     1       2.220  -0.827  -7.729  0.00  0.00    -0.230 NA
ATOM      6  C   UNL     1       1.810  -1.124  -8.932  0.00  0.00    +0.203 A 
ATOM      7  N   UNL     1       0.505  -1.032  -9.288  0.00  0.00    -0.290 N 
ATOM      8  C   UNL     1      -0.434  -0.627  -8.411  0.00  0.00    +0.263 A 
ATOM      9  O   UNL     1      -1.604  -0.547  -8.741  0.00  0.00    -0.267 OA
ATOM     10  S   UNL     1       1.540   0.074  -5.091  0.00  0.00    -0.062 S 
ATOM     11  C   UNL     1      -0.178   0.427  -4.760  0.00  0.00    +0.102 A 
ENDROOT
BRANCH  11  12
ATOM     12  C   UNL     1      -0.792   0.893  -3.515  0.00  0.00    +0.346 C 
ATOM     13  O   UNL     1      -1.991   1.091  -3.466  0.00  0.00    -0.244 OA
BRANCH  12  14
ATOM     14  O   UNL     1      -0.028   1.104  -2.424  0.00  0.00    -0.458 OA
BRANCH  14  15
ATOM     15  C   UNL     1      -0.704   1.566  -1.225  0.00  0.00    +0.177 C 
ATOM     16  C   UNL     1       0.045   1.060   0.010  0.00  0.00    +0.044 C 
ATOM     17  C   UNL     1      -0.667   1.547   1.273  0.00  0.00    +0.004 C 
ATOM     18  C   UNL     1      -0.697   3.077   1.285  0.00  0.00    +0.000 C 
ATOM     19  C   UNL     1      -1.446   3.582   0.050  0.00  0.00    +0.004 C 
ATOM     20  C   UNL     1      -0.734   3.095  -1.213  0.00  0.00    +0.044 C 
ENDBRANCH  14  15
ENDBRANCH  12  14
ENDBRANCH  11  12
BRANCH   7  21
ATOM     21  C   UNL     1       0.108  -1.380 -10.655  0.00  0.00    +0.222 C 
BRANCH  21  22
ATOM     22  C   UNL     1       0.177  -0.152 -11.526  0.00  0.00    +0.237 C 
ATOM     23  O   UNL     1       0.524   0.909 -11.052  0.00  0.00    -0.274 OA
ATOM     24  N   UNL     1      -0.147  -0.233 -12.832  0.00  0.00    -0.283 N 
ATOM     25  H   UNL     1      -0.361  -1.093 -13.226  0.00  0.00    +0.155 HD
BRANCH  24  26
ATOM     26  C   UNL     1      -0.173   0.924 -13.619  0.00  0.00    +0.053 A 
ATOM     27  C   UNL     1       0.735   1.947 -13.384  0.00  0.00    +0.044 A 
ATOM     28  C   UNL     1       0.710   3.086 -14.167  0.00  0.00    +0.043 A 
ATOM     29  C   UNL     1      -0.228   3.212 -15.177  0.00  0.00    +0.021 A 
ATOM     30  C   UNL     1      -1.137   2.197 -15.411  0.00  0.00    +0.023 A 
ATOM     31  C   UNL     1      -1.113   1.053 -14.635  0.00  0.00    +0.062 A 
ATOM     32 CL   UNL     1      -2.256  -0.220 -14.928  0.00  0.00    -0.082 Cl
ATOM     33 CL   UNL     1       1.850   4.362 -13.878  0.00  0.00    -0.083 Cl
ENDBRANCH  24  26
ENDBRANCH  21  22
ENDBRANCH   7  21
TORSDOF 6
