REMARK  Name = ZINC16021780
REMARK  9 active torsions:
REMARK  status: ('A' for Active; 'I' for Inactive)
REMARK    1  A    between atoms: C_1  and  C_2
REMARK    2  A    between atoms: C_2  and  C_3
REMARK    3  A    between atoms: C_2  and  C_4
REMARK    4  A    between atoms: C_4  and  C_5
REMARK    5  A    between atoms: C_5  and  C_7
REMARK    6  A    between atoms: C_5  and  N_17
REMARK    7  A    between atoms: N_9  and  C_10
REMARK    8  A    between atoms: C_10  and  C_11
REMARK    9  A    between atoms: C_18  and  C_20
REMARK                            x       y       z     vdW  Elec       q    Type
REMARK                         _______ _______ _______ _____ _____    ______ ____
ROOT
ATOM      1  N   UNL     1       2.430   4.102  -0.712  0.00  0.00    -0.305 N 
ATOM      2  C   UNL     1       1.325   3.474  -0.262  0.00  0.00    +0.200 C 
ATOM      3  O   UNL     1       0.307   4.104  -0.068  0.00  0.00    -0.278 OA
ATOM      4  H   UNL     1       3.245   3.598  -0.867  0.00  0.00    +0.149 HD
ENDROOT
BRANCH   2   5
ATOM      5  C   UNL     1       1.356   1.990  -0.000  0.00  0.00    +0.021 C 
ATOM      6  C   UNL     1       1.989   1.722   1.365  0.00  0.00    +0.028 C 
ATOM      7  C   UNL     1       1.806   0.274   1.742  0.00  0.00    -0.047 A 
ATOM      8  C   UNL     1       2.595  -0.251   2.754  0.00  0.00    +0.004 A 
ATOM      9  C   UNL     1       2.454  -1.569   3.136  0.00  0.00    +0.000 A 
ATOM     10  C   UNL     1       1.521  -2.372   2.505  0.00  0.00    +0.000 A 
ATOM     11  C   UNL     1       0.737  -1.851   1.496  0.00  0.00    +0.002 A 
ATOM     12  C   UNL     1       0.878  -0.526   1.111  0.00  0.00    -0.061 A 
ATOM     13  C   UNL     1       0.002  -0.004   0.002  0.00  0.00    -0.045 C 
ATOM     14  N   UNL     1      -0.022   1.465   0.010  0.00  0.00    +0.389 N 
ATOM     15  H   UNL     1      -0.521   1.802  -0.822  0.00  0.00    -0.084 HD
ATOM     16  H   UNL     1      -0.505   1.793   0.855  0.00  0.00    -0.084 HD
ENDBRANCH   2   5
BRANCH   1  17
ATOM     17  C   UNL     1       2.401   5.544  -0.966  0.00  0.00    +0.159 C 
BRANCH  17  18
ATOM     18  C   UNL     1       3.796   6.103  -0.854  0.00  0.00    +0.233 C 
ATOM     19  O   UNL     1       4.724   5.368  -0.588  0.00  0.00    -0.274 OA
ATOM     20  N   UNL     1       4.013   7.418  -1.050  0.00  0.00    -0.311 N 
ATOM     21  H   UNL     1       3.271   8.006  -1.262  0.00  0.00    +0.149 HD
BRANCH  20  22
ATOM     22  C   UNL     1       5.370   7.961  -0.941  0.00  0.00    +0.135 C 
BRANCH  22  23
ATOM     23  C   UNL     1       5.339   9.467  -1.207  0.00  0.00    +0.135 C 
ATOM     24  C   UNL     1       6.778  10.027  -1.214  0.00  0.00    +0.035 C 
ATOM     25  C   UNL     1       6.603  11.390  -0.487  0.00  0.00    +0.031 C 
ATOM     26  C   UNL     1       5.489  11.041   0.532  0.00  0.00    +0.160 C 
ATOM     27  O   UNL     1       4.620  10.131  -0.161  0.00  0.00    -0.375 OA
ENDBRANCH  22  23
ENDBRANCH  20  22
ENDBRANCH  17  18
BRANCH  17  28
ATOM     28  C   UNL     1       1.859   5.803  -2.373  0.00  0.00    +0.034 C 
BRANCH  28  30
ATOM     29  C   UNL     1      -0.453   6.216  -1.522  0.00  0.00    +0.007 C 
ATOM     30  C   UNL     1       0.400   5.349  -2.450  0.00  0.00    -0.015 C 
ATOM     31  C   UNL     1      -0.104   5.492  -3.887  0.00  0.00    +0.007 C 
ENDBRANCH  28  30
ENDBRANCH  17  28
ENDBRANCH   1  17
TORSDOF 7
