REMARK  Name = ZINC23437870
REMARK  13 active torsions:
REMARK  status: ('A' for Active; 'I' for Inactive)
REMARK    1  A    between atoms: C_1  and  C_2
REMARK    2  A    between atoms: C_2  and  N_3
REMARK    3  A    between atoms: C_7  and  C_9
REMARK    4  A    between atoms: C_9  and  N_10
REMARK    5  A    between atoms: C_11  and  C_13
REMARK    6  A    between atoms: C_13  and  C_14
REMARK    7  A    between atoms: C_14  and  C_15
REMARK    8  A    between atoms: C_18  and  C_29
REMARK    9  A    between atoms: N_19  and  C_20
REMARK   10  A    between atoms: C_23  and  C_26
REMARK   11  A    between atoms: C_26  and  C_27
REMARK   12  A    between atoms: C_32  and  C_36
REMARK   13  A    between atoms: C_34  and  C_35
REMARK                            x       y       z     vdW  Elec       q    Type
REMARK                         _______ _______ _______ _____ _____    ______ ____
ROOT
ATOM      1  C   UNL     1       0.005   0.549  -4.659  0.00  0.00    +0.025 A 
ATOM      2  C   UNL     1       0.522   1.764  -4.372  0.00  0.00    +0.024 A 
ATOM      3  C   UNL     1       0.554   1.897  -2.974  0.00  0.00    +0.028 A 
ATOM      4  C   UNL     1       0.050   0.747  -2.445  0.00  0.00    +0.054 A 
ATOM      5  N   UNL     1      -0.283  -0.086  -3.485  0.00  0.00    -0.313 N 
ENDROOT
BRANCH   4   6
ATOM      6  C   UNL     1      -0.106   0.446  -1.006  0.00  0.00    +0.002 A 
ATOM      7  C   UNL     1       0.354  -0.766  -0.489  0.00  0.00    +0.010 A 
ATOM      8  C   UNL     1       0.200  -1.043   0.854  0.00  0.00    +0.004 A 
ATOM      9  C   UNL     1      -0.403  -0.119   1.689  0.00  0.00    -0.050 A 
ATOM     10  C   UNL     1      -0.856   1.086   1.185  0.00  0.00    +0.007 A 
ATOM     11  C   UNL     1      -0.709   1.375  -0.157  0.00  0.00    -0.041 A 
ATOM     12  C   UNL     1      -1.203   2.689  -0.705  0.00  0.00    +0.044 C 
ATOM     13  C   UNL     1      -0.568  -0.429   3.155  0.00  0.00    +0.044 C 
ENDBRANCH   4   6
BRANCH   5  14
ATOM     14  C   UNL     1      -0.830  -1.370  -3.363  0.00  0.00    +0.047 A 
ATOM     15  C   UNL     1      -0.111  -2.477  -3.794  0.00  0.00    +0.026 A 
ATOM     16  C   UNL     1      -0.650  -3.742  -3.667  0.00  0.00    +0.006 A 
ATOM     17  C   UNL     1      -1.910  -3.906  -3.122  0.00  0.00    -0.033 A 
ATOM     18  C   UNL     1      -2.631  -2.806  -2.697  0.00  0.00    +0.006 A 
ATOM     19  C   UNL     1      -2.095  -1.538  -2.816  0.00  0.00    +0.026 A 
BRANCH  17  20
ATOM     20  C   UNL     1      -2.498  -5.287  -2.990  0.00  0.00    +0.153 C 
BRANCH  20  21
ATOM     21  C   UNL     1      -3.252  -5.618  -4.210  0.00  0.00    +0.067 C 
ATOM     22  N   UNL     1      -3.834  -5.873  -5.151  0.00  0.00    -0.196 NA
ENDBRANCH  20  21
ENDBRANCH  17  20
ENDBRANCH   5  14
BRANCH   1  23
ATOM     23  C   UNL     1      -0.211  -0.012  -6.040  0.00  0.00    +0.063 C 
BRANCH  23  24
ATOM     24  C   UNL     1       1.083  -0.664  -6.533  0.00  0.00    +0.102 C 
BRANCH  24  26
ATOM     25  N   UNL     1       1.876  -1.851  -8.553  0.00  0.00    -0.317 N 
ATOM     26  C   UNL     1       0.867  -1.226  -7.915  0.00  0.00    +0.213 C 
ATOM     27  O   UNL     1      -0.214  -1.116  -8.453  0.00  0.00    -0.276 OA
ATOM     28  H   UNL     1       2.857  -1.950  -8.066  0.00  0.00    +0.149 HD
BRANCH  25  29
ATOM     29  C   UNL     1       1.667  -2.397  -9.897  0.00  0.00    +0.089 C 
BRANCH  29  34
ATOM     30  N   UNL     1       3.951  -1.777 -10.603  0.00  0.00    +0.382 N 
ATOM     31  C   UNL     1       4.744  -1.990 -11.827  0.00  0.00    -0.078 C 
ATOM     32  C   UNL     1       4.238  -3.295 -12.478  0.00  0.00    -0.020 C 
ATOM     33  C   UNL     1       2.808  -3.448 -11.893  0.00  0.00    -0.016 C 
ATOM     34  C   UNL     1       2.999  -2.899 -10.457  0.00  0.00    -0.051 C 
ATOM     35  H   UNL     1       3.401  -0.828 -10.680  0.00  0.00    -0.081 HD
BRANCH  30  37
ATOM     36  C   UNL     1       5.834  -0.541  -9.639  0.00  0.00    -0.017 C 
ATOM     37  C   UNL     1       4.822  -1.669  -9.424  0.00  0.00    -0.082 C 
ENDBRANCH  30  37
ENDBRANCH  29  34
ENDBRANCH  25  29
ENDBRANCH  24  26
ENDBRANCH  23  24
ENDBRANCH   1  23
TORSDOF 10
