REMARK  Name = ZINC09065365
REMARK  6 active torsions:
REMARK  status: ('A' for Active; 'I' for Inactive)
REMARK    1  A    between atoms: C_6  and  C_7
REMARK    2  A    between atoms: C_10  and  C_11
REMARK    3  A    between atoms: C_10  and  O_18
REMARK    4  A    between atoms: N_23  and  C_24
REMARK    5  A    between atoms: C_24  and  C_25
REMARK    6  A    between atoms: C_25  and  N_53
REMARK                            x       y       z     vdW  Elec       q    Type
REMARK                         _______ _______ _______ _____ _____    ______ ____
ROOT
ATOM      1  C   UNL     1       0.374  -0.882   1.171  0.00  0.00    +0.144 C 
ATOM      2  C   UNL     1       0.371  -2.321   0.709  0.00  0.00    +0.071 C 
ATOM      3  C   UNL     1       0.063  -3.434   1.464  0.00  0.00    +0.133 C 
ATOM      4  C   UNL     1       0.746  -2.296  -0.644  0.00  0.00    +0.249 C 
ATOM      5  O   UNL     1       0.858  -3.266  -1.372  0.00  0.00    -0.282 OA
ATOM      6  C   UNL     1       0.976  -0.879  -1.036  0.00  0.00    +0.288 C 
ATOM      7  O   UNL     1       1.308  -0.509  -2.144  0.00  0.00    -0.266 OA
ATOM      8  N   UNL     1       0.765  -0.070   0.016  0.00  0.00    -0.285 N 
ENDROOT
BRANCH   1  14
ATOM      9  C   UNL     1      -1.988  -0.194   0.712  0.00  0.00    +0.007 A 
ATOM     10  C   UNL     1      -3.254   0.164   1.138  0.00  0.00    +0.020 A 
ATOM     11  C   UNL     1      -3.532   0.240   2.491  0.00  0.00    +0.041 A 
ATOM     12  C   UNL     1      -2.544  -0.048   3.417  0.00  0.00    +0.020 A 
ATOM     13  C   UNL     1      -1.281  -0.411   2.989  0.00  0.00    +0.007 A 
ATOM     14  C   UNL     1      -1.004  -0.486   1.637  0.00  0.00    -0.022 A 
ATOM     15 CL   UNL     1      -5.119   0.695   3.027  0.00  0.00    -0.084 Cl
ENDBRANCH   1  14
BRANCH   3  16
ATOM     16  C   UNL     1      -0.036  -4.756   0.821  0.00  0.00    +0.017 A 
ATOM     17  C   UNL     1      -0.837  -4.927  -0.313  0.00  0.00    +0.012 A 
ATOM     18  C   UNL     1      -0.922  -6.166  -0.912  0.00  0.00    +0.016 A 
ATOM     19  C   UNL     1      -0.224  -7.242  -0.387  0.00  0.00    +0.018 A 
ATOM     20  C   UNL     1       0.567  -7.080   0.738  0.00  0.00    +0.016 A 
ATOM     21  C   UNL     1       0.666  -5.846   1.345  0.00  0.00    +0.012 A 
ATOM     22 BR   UNL     1      -0.353  -8.939  -1.211  0.00  0.00    -0.050 Br
ENDBRANCH   3  16
BRANCH   3  23
ATOM     23  O   UNL     1      -0.147  -3.312   2.792  0.00  0.00    -0.506 OA
ATOM     24  H   UNL     1      -0.357  -4.209   3.180  0.00  0.00    +0.292 HD
ENDBRANCH   3  23
BRANCH   8  25
ATOM     25  C   UNL     1       0.899   1.389   0.007  0.00  0.00    +0.090 C 
BRANCH  25  26
ATOM     26  C   UNL     1       2.332   1.771   0.386  0.00  0.00    -0.059 C 
BRANCH  26  32
ATOM     27  C   UNL     1       2.316   3.769  -0.984  0.00  0.00    -0.050 C 
ATOM     28  C   UNL     1       2.404   5.297  -0.939  0.00  0.00    +0.141 C 
ATOM     29  O   UNL     1       3.644   5.681  -0.340  0.00  0.00    -0.383 OA
ATOM     30  C   UNL     1       3.823   5.178   0.987  0.00  0.00    +0.141 C 
ATOM     31  C   UNL     1       3.750   3.649   0.961  0.00  0.00    -0.050 C 
ATOM     32  N   UNL     1       2.447   3.246   0.392  0.00  0.00    +0.384 N 
ATOM     33  H   UNL     1       1.694   3.637   0.971  0.00  0.00    -0.082 HD
ENDBRANCH  26  32
ENDBRANCH  25  26
ENDBRANCH   8  25
TORSDOF 6
