REMARK  Name = ZINC63453830
REMARK  9 active torsions:
REMARK  status: ('A' for Active; 'I' for Inactive)
REMARK    1  A    between atoms: C_1  and  C_2
REMARK    2  A    between atoms: C_5  and  C_31
REMARK    3  A    between atoms: N_8  and  C_10
REMARK    4  A    between atoms: C_10  and  C_11
REMARK    5  A    between atoms: C_11  and  C_12
REMARK    6  A    between atoms: C_12  and  N_13
REMARK    7  A    between atoms: C_14  and  C_16
REMARK    8  A    between atoms: C_16  and  C_17
REMARK    9  A    between atoms: CA_25  and  C_27
REMARK                            x       y       z     vdW  Elec       q    Type
REMARK                         _______ _______ _______ _____ _____    ______ ____
ROOT
ATOM      1  N   UNL     1       5.224  -2.232   3.241  0.00  0.00    -0.315 N 
ATOM      2  C   UNL     1       6.130  -2.548   4.188  0.00  0.00    +0.217 C 
ATOM      3  O   UNL     1       5.812  -3.256   5.120  0.00  0.00    -0.275 OA
ATOM      4  H   UNL     1       5.479  -1.666   2.496  0.00  0.00    +0.149 HD
ENDROOT
BRANCH   1   5
ATOM      5  C   UNL     1       3.856  -2.746   3.337  0.00  0.00    +0.102 C 
BRANCH   5   6
ATOM      6  C   UNL     1       3.038  -2.243   2.146  0.00  0.00    +0.000 C 
BRANCH   6   7
ATOM      7  C   UNL     1       1.608  -2.779   2.245  0.00  0.00    -0.077 C 
BRANCH   7  13
ATOM      8  C   UNL     1      -0.166   1.204   0.019  0.00  0.00    +0.005 C 
ATOM      9  C   UNL     1      -0.042  -0.319  -0.059  0.00  0.00    -0.031 C 
ATOM     10  C   UNL     1      -1.440  -0.945  -0.100  0.00  0.00    +0.003 C 
ATOM     11  C   UNL     1      -1.305  -2.470  -0.100  0.00  0.00    -0.031 C 
ATOM     12  C   UNL     1      -0.511  -2.906   1.134  0.00  0.00    -0.076 C 
ATOM     13  N   UNL     1       0.823  -2.296   1.101  0.00  0.00    +0.380 N 
ATOM     14  C   UNL     1       0.706  -0.835   1.172  0.00  0.00    -0.076 C 
ATOM     15  C   UNL     1      -2.697  -3.106  -0.063  0.00  0.00    +0.005 C 
ATOM     16  H   UNL     1       1.289  -2.554   0.244  0.00  0.00    -0.082 HD
ENDBRANCH   7  13
ENDBRANCH   6   7
ENDBRANCH   5   6
ENDBRANCH   1   5
BRANCH   2  17
ATOM     17  C   UNL     1       7.538  -2.020   4.090  0.00  0.00    +0.129 C 
BRANCH  17  18
ATOM     18  C   UNL     1       8.307  -2.406   5.327  0.00  0.00    -0.019 C 
ATOM     19  C   UNL     1       8.485  -1.659   6.441  0.00  0.00    +0.002 A 
ATOM     20  C   UNL     1       8.033  -0.315   6.818  0.00  0.00    +0.030 A 
ATOM     21  C   UNL     1       8.378   0.177   8.031  0.00  0.00    +0.042 A 
ATOM     22  C   UNL     1       9.155  -0.565   8.933  0.00  0.00    +0.022 A 
ATOM     23  C   UNL     1       9.607  -1.806   8.657  0.00  0.00    +0.027 A 
ATOM     24  C   UNL     1       9.303  -2.421   7.411  0.00  0.00    +0.044 A 
ATOM     25  N   UNL     1       9.620  -3.593   6.916  0.00  0.00    -0.368 N 
ATOM     26  CA  UNL     1       9.031  -3.710   5.577  0.00  0.00    +0.221 C 
ATOM     27 CL   UNL     1       7.846   1.767   8.481  0.00  0.00    -0.084 Cl
ATOM     28  H   UNL     1      10.151  -4.271   7.362  0.00  0.00    +0.161 HD
BRANCH  26  29
ATOM     29  C   UNL     1      10.117  -3.907   4.551  0.00  0.00    +0.382 C 
ATOM     30  O   UNL     1      11.289  -3.830   4.881  0.00  0.00    -0.244 OA
ATOM     31  OXT UNL     1       9.825  -4.142   3.391  0.00  0.00    -0.244 OA
ENDBRANCH  26  29
ENDBRANCH  17  18
ENDBRANCH   2  17
TORSDOF 7
