REMARK  Name = ZINC36603234
REMARK  15 active torsions:
REMARK  status: ('A' for Active; 'I' for Inactive)
REMARK    1  A    between atoms: C_1  and  C_2
REMARK    2  A    between atoms: C_5  and  C_7
REMARK    3  A    between atoms: C_7  and  N_8
REMARK    4  A    between atoms: N_8  and  C_9
REMARK    5  A    between atoms: C_9  and  C_11
REMARK    6  A    between atoms: C_9  and  C_20
REMARK    7  A    between atoms: C_12  and  O_19
REMARK    8  A    between atoms: C_14  and  O_18
REMARK    9  A    between atoms: C_16  and  O_17
REMARK   10  A    between atoms: N_22  and  C_23
REMARK   11  A    between atoms: C_23  and  C_24
REMARK   12  A    between atoms: C_23  and  C_25
REMARK   13  A    between atoms: C_23  and  C_26
REMARK   14  A    between atoms: C_27  and  C_29
REMARK   15  A    between atoms: C_29  and  C_30
REMARK                            x       y       z     vdW  Elec       q    Type
REMARK                         _______ _______ _______ _____ _____    ______ ____
ROOT
ATOM      1  C   UNL     1       3.137  -3.223  -2.015  0.00  0.00    +0.200 C 
ENDROOT
BRANCH   1   2
ATOM      2  C   UNL     1       4.388  -3.759  -1.368  0.00  0.00    +0.065 A 
ATOM      3  C   UNL     1       5.367  -4.361  -2.144  0.00  0.00    +0.129 A 
ATOM      4  C   UNL     1       6.518  -4.855  -1.549  0.00  0.00    +0.091 A 
ATOM      5  C   UNL     1       6.690  -4.747  -0.177  0.00  0.00    +0.124 A 
ATOM      6  C   UNL     1       5.711  -4.144   0.599  0.00  0.00    +0.091 A 
ATOM      7  C   UNL     1       4.562  -3.646   0.003  0.00  0.00    +0.129 A 
BRANCH   7   8
ATOM      8  O   UNL     1       3.606  -3.052   0.763  0.00  0.00    -0.506 OA
ATOM      9  H   UNL     1       2.934  -3.662   1.098  0.00  0.00    +0.292 HD
ENDBRANCH   7   8
BRANCH   5  10
ATOM     10  O   UNL     1       7.817  -5.231   0.407  0.00  0.00    -0.507 OA
ATOM     11  H   UNL     1       8.538  -4.589   0.465  0.00  0.00    +0.292 HD
ENDBRANCH   5  10
BRANCH   3  12
ATOM     12  O   UNL     1       5.198  -4.467  -3.488  0.00  0.00    -0.506 OA
ATOM     13  H   UNL     1       5.610  -3.753  -3.994  0.00  0.00    +0.292 HD
ENDBRANCH   3  12
ENDBRANCH   1   2
BRANCH   1  14
ATOM     14  C   UNL     1       3.201  -1.718  -2.060  0.00  0.00    +0.239 C 
ATOM     15  O   UNL     1       2.369  -1.058  -1.474  0.00  0.00    -0.273 OA
ATOM     16  N   UNL     1       4.182  -1.105  -2.752  0.00  0.00    -0.309 N 
ATOM     17  H   UNL     1       4.847  -1.633  -3.221  0.00  0.00    +0.149 HD
BRANCH  16  18
ATOM     18  C   UNL     1       4.244   0.358  -2.796  0.00  0.00    +0.026 C 
ATOM     19  C   UNL     1       4.397   0.904  -1.375  0.00  0.00    +0.031 C 
ATOM     20  C   UNL     1       5.443   0.792  -3.641  0.00  0.00    +0.031 C 
ATOM     21  C   UNL     1       2.957   0.904  -3.417  0.00  0.00    +0.031 C 
ENDBRANCH  16  18
ENDBRANCH   1  14
BRANCH   1  22
ATOM     22  N   UNL     1       1.968  -3.639  -1.237  0.00  0.00    -0.278 N 
ATOM     23  C   UNL     1       1.570  -4.926  -1.254  0.00  0.00    +0.221 C 
ATOM     24  O   UNL     1       2.181  -5.741  -1.913  0.00  0.00    -0.275 OA
BRANCH  22  25
ATOM     25  C   UNL     1       1.230  -2.655  -0.440  0.00  0.00    +0.183 C 
BRANCH  25  30
ATOM     26  C   UNL     1      -1.145   0.645  -3.425  0.00  0.00    +0.086 C 
ATOM     27  C   UNL     1      -0.867  -0.579  -2.591  0.00  0.00    +0.102 A 
ATOM     28  C   UNL     1      -1.718  -1.600  -2.385  0.00  0.00    +0.045 A 
ATOM     29  C   UNL     1      -1.052  -2.526  -1.549  0.00  0.00    +0.046 A 
ATOM     30  C   UNL     1       0.166  -2.014  -1.294  0.00  0.00    +0.122 A 
ATOM     31  O   UNL     1       0.274  -0.838  -1.932  0.00  0.00    -0.463 OA
ENDBRANCH  25  30
ENDBRANCH  22  25
BRANCH  23  32
ATOM     32  C   UNL     1       0.367  -5.354  -0.453  0.00  0.00    +0.131 C 
BRANCH  32  33
ATOM     33  C   UNL     1       0.137  -6.832  -0.643  0.00  0.00    -0.039 A 
ATOM     34  C   UNL     1      -0.670  -7.279  -1.672  0.00  0.00    +0.004 A 
ATOM     35  C   UNL     1      -0.881  -8.634  -1.845  0.00  0.00    +0.000 A 
ATOM     36  C   UNL     1      -0.284  -9.542  -0.991  0.00  0.00    +0.000 A 
ATOM     37  C   UNL     1       0.524  -9.094   0.038  0.00  0.00    +0.000 A 
ATOM     38  C   UNL     1       0.739  -7.739   0.209  0.00  0.00    +0.004 A 
ENDBRANCH  32  33
ENDBRANCH  23  32
ENDBRANCH   1  22
TORSDOF 11
