REMARK  Name = ZINC09661079
REMARK  3 active torsions:
REMARK  status: ('A' for Active; 'I' for Inactive)
REMARK    1  A    between atoms: C_1  and  N_2
REMARK    2  A    between atoms: N_8  and  S_11
REMARK    3  A    between atoms: S_11  and  C_14
REMARK                            x       y       z     vdW  Elec       q    Type
REMARK                         _______ _______ _______ _____ _____    ______ ____
ROOT
ATOM      1  C   UNL     1      -4.968   5.686  -6.677  0.00  0.00    +0.143 C 
ATOM      2  N   UNL     1      -4.138   5.031  -5.663  0.00  0.00    -0.227 N 
ATOM      3  C   UNL     1      -4.315   5.169  -4.332  0.00  0.00    +0.246 C 
ATOM      4  O   UNL     1      -5.158   5.834  -3.770  0.00  0.00    -0.273 OA
ATOM      5  C   UNL     1      -3.240   4.321  -3.692  0.00  0.00    +0.115 C 
ATOM      6  C   UNL     1      -3.867   3.216  -2.848  0.00  0.00    +0.052 C 
ATOM      7  C   UNL     1      -2.759   2.330  -2.267  0.00  0.00    +0.112 C 
ATOM      8  N   UNL     1      -1.799   3.183  -1.554  0.00  0.00    -0.176 NA
ATOM      9  C   UNL     1      -1.197   4.321  -2.263  0.00  0.00    +0.112 C 
ATOM     10  C   UNL     1      -2.313   5.188  -2.846  0.00  0.00    +0.052 C 
ATOM     11  N   UNL     1      -2.511   3.748  -4.830  0.00  0.00    -0.285 N 
ATOM     12  C   UNL     1      -3.109   4.220  -5.941  0.00  0.00    +0.309 C 
ATOM     13  O   UNL     1      -2.754   3.942  -7.070  0.00  0.00    -0.252 OA
ATOM     14  H   UNL     1      -1.750   3.148  -4.791  0.00  0.00    +0.151 HD
ENDROOT
BRANCH   8  15
ATOM     15  S   UNL     1      -1.406   2.872   0.025  0.00  0.00    +0.067 S 
ATOM     16  O   UNL     1      -2.493   2.143   0.578  0.00  0.00    -0.152 OA
ATOM     17  O   UNL     1      -0.951   4.098   0.579  0.00  0.00    -0.152 OA
BRANCH  15  18
ATOM     18  C   UNL     1      -0.022   1.781   0.012  0.00  0.00    +0.143 A 
ATOM     19  C   UNL     1       1.300   2.079   0.001  0.00  0.00    +0.036 A 
ATOM     20  C   UNL     1       2.220   1.048  -0.013  0.00  0.00    +0.010 A 
ATOM     21  C   UNL     1       1.773  -0.232  -0.016  0.00  0.00    +0.047 A 
ATOM     22  S   UNL     1       0.002  -0.004   0.002  0.00  0.00    -0.077 S 
ENDBRANCH  15  18
ENDBRANCH   8  15
TORSDOF 2
