REMARK  Name = ZINC62500553
REMARK  5 active torsions:
REMARK  status: ('A' for Active; 'I' for Inactive)
REMARK    1  A    between atoms: C_1  and  C_2
REMARK    2  A    between atoms: C_5  and  C_8
REMARK    3  A    between atoms: C_8  and  N_9
REMARK    4  A    between atoms: C_15  and  N_18
REMARK    5  A    between atoms: C_19  and  C_21
REMARK                            x       y       z     vdW  Elec       q    Type
REMARK                         _______ _______ _______ _____ _____    ______ ____
ROOT
ATOM      1  N   UNL     1      -0.045  -4.587   2.477  0.00  0.00    -0.299 N 
ATOM      2  C   UNL     1       0.075  -5.912   2.694  0.00  0.00    +0.302 C 
ATOM      3  O   UNL     1      -0.398  -6.703   1.901  0.00  0.00    -0.253 OA
ATOM      4  N   UNL     1       0.719  -6.359   3.790  0.00  0.00    -0.286 N 
ATOM      5  C   UNL     1       1.189  -5.420   4.817  0.00  0.00    +0.111 C 
ATOM      6  C   UNL     1       0.641  -5.862   6.178  0.00  0.00    +0.041 C 
ATOM      7  C   UNL     1       1.033  -7.320   6.432  0.00  0.00    +0.076 C 
ATOM      8  C   UNL     1       0.418  -8.211   5.351  0.00  0.00    +0.041 C 
ATOM      9  C   UNL     1       0.958  -7.796   3.984  0.00  0.00    +0.111 C 
ATOM     10  H   UNL     1       0.267  -3.956   3.143  0.00  0.00    +0.150 HD
ENDROOT
BRANCH   7  11
ATOM     11  N   UNL     1       0.539  -7.736   7.747  0.00  0.00    -0.312 N 
ATOM     12  C   UNL     1       1.148  -8.740   8.409  0.00  0.00    +0.216 C 
ATOM     13  O   UNL     1       2.104  -9.299   7.915  0.00  0.00    -0.276 OA
ATOM     14  H   UNL     1      -0.226  -7.289   8.141  0.00  0.00    +0.149 HD
BRANCH  12  15
ATOM     15  C   UNL     1       0.640  -9.168   9.761  0.00  0.00    +0.075 C 
ATOM     16  C   UNL     1       0.715  -7.987  10.731  0.00  0.00    +0.013 C 
ATOM     17  C   UNL     1       0.199  -8.422  12.104  0.00  0.00    +0.001 C 
ATOM     18  C   UNL     1       1.060  -9.571  12.632  0.00  0.00    +0.000 C 
ATOM     19  C   UNL     1       0.985 -10.752  11.662  0.00  0.00    +0.001 C 
ATOM     20  C   UNL     1       1.501 -10.318  10.289  0.00  0.00    +0.013 C 
ENDBRANCH  12  15
ENDBRANCH   7  11
BRANCH   1  21
ATOM     21  C   UNL     1      -0.648  -4.101   1.233  0.00  0.00    +0.109 C 
BRANCH  21  26
ATOM     22  C   UNL     1       0.002   1.521  -0.004  0.00  0.00    +0.007 C 
ATOM     23  C   UNL     1       0.018  -0.009  -0.010  0.00  0.00    -0.014 C 
ATOM     24  C   UNL     1      -1.420  -0.534   0.005  0.00  0.00    +0.003 C 
ATOM     25  C   UNL     1      -1.404  -2.064  -0.001  0.00  0.00    +0.005 C 
ATOM     26  C   UNL     1      -0.664  -2.571   1.239  0.00  0.00    +0.006 C 
ATOM     27  C   UNL     1       0.773  -2.046   1.224  0.00  0.00    +0.005 C 
ATOM     28  C   UNL     1       0.758  -0.516   1.230  0.00  0.00    +0.003 C 
ENDBRANCH  21  26
ENDBRANCH   1  21
TORSDOF 4
