REMARK  Name = ZINC06149473
REMARK  14 active torsions:
REMARK  status: ('A' for Active; 'I' for Inactive)
REMARK    1  A    between atoms: C_1  and  C_2
REMARK    2  A    between atoms: C_2  and  C_3
REMARK    3  A    between atoms: C_3  and  C_4
REMARK    4  A    between atoms: C_3  and  C_5
REMARK    5  A    between atoms: C_3  and  N_6
REMARK    6  A    between atoms: C_7  and  C_11
REMARK    7  A    between atoms: C_11  and  C_13
REMARK    8  A    between atoms: C_11  and  N_67
REMARK    9  A    between atoms: C_17  and  O_25
REMARK   10  A    between atoms: O_25  and  C_26
REMARK   11  A    between atoms: C_27  and  C_28
REMARK   12  A    between atoms: C_27  and  N_67
REMARK   13  A    between atoms: C_33  and  C_34
REMARK   14  A    between atoms: C_33  and  N_67
REMARK                            x       y       z     vdW  Elec       q    Type
REMARK                         _______ _______ _______ _____ _____    ______ ____
ROOT
ATOM      1  C   UNL     1       3.745   1.339  -0.425  0.00  0.00    +0.040 C 
ENDROOT
BRANCH   1   2
ATOM      2  C   UNL     1       4.486   1.174   0.877  0.00  0.00    +0.011 A 
ATOM      3  C   UNL     1       5.281   0.092   1.069  0.00  0.00    +0.017 A 
ATOM      4  C   UNL     1       5.990  -0.037   2.343  0.00  0.00    +0.002 A 
ATOM      5  C   UNL     1       6.828  -1.129   2.595  0.00  0.00    +0.055 A 
ATOM      6  C   UNL     1       7.478  -1.222   3.809  0.00  0.00    +0.121 A 
ATOM      7  C   UNL     1       7.303  -0.237   4.779  0.00  0.00    +0.047 A 
ATOM      8  C   UNL     1       6.481   0.842   4.542  0.00  0.00    +0.030 A 
ATOM      9  C   UNL     1       5.817   0.956   3.325  0.00  0.00    +0.049 A 
ATOM     10  N   UNL     1       4.989   2.030   3.068  0.00  0.00    -0.322 N 
ATOM     11  H   UNL     1       4.866   2.735   3.767  0.00  0.00    +0.169 HD
ATOM     12  C   UNL     1       4.346   2.142   1.893  0.00  0.00    +0.251 A 
ATOM     13  O   UNL     1       3.623   3.105   1.702  0.00  0.00    -0.268 OA
BRANCH   6  14
ATOM     14  O   UNL     1       8.293  -2.282   4.061  0.00  0.00    -0.495 OA
ATOM     15  C   UNL     1       8.935  -2.317   5.336  0.00  0.00    +0.277 C 
ENDBRANCH   6  14
ENDBRANCH   1   2
BRANCH   1  17
ATOM     16  N   UNL     1       1.416   0.332  -0.679  0.00  0.00    -0.225 N 
ATOM     17  C   UNL     1       2.262   1.249  -0.174  0.00  0.00    +0.143 A 
ATOM     18  N   UNL     1       1.546   2.047   0.578  0.00  0.00    -0.115 NA
ATOM     19  N   UNL     1       0.323   1.642   0.538  0.00  0.00    -0.023 NA
ATOM     20  N   UNL     1       0.241   0.605  -0.221  0.00  0.00    -0.043 NA
BRANCH  16  21
ATOM     21  C   UNL     1       1.764  -0.770  -1.580  0.00  0.00    +0.061 C 
ATOM     22  C   UNL     1       2.356  -0.205  -2.872  0.00  0.00    +0.036 C 
ATOM     23  C   UNL     1       2.792  -1.678  -0.902  0.00  0.00    +0.036 C 
BRANCH  21  25
ATOM     24  C   UNL     1       0.870  -2.729  -2.847  0.00  0.00    +0.006 C 
ATOM     25  C   UNL     1       0.506  -1.579  -1.906  0.00  0.00    +0.026 C 
ENDBRANCH  21  25
ENDBRANCH  16  21
ENDBRANCH   1  17
BRANCH   1  26
ATOM     26  N   UNL     1       4.061   2.670  -0.986  0.00  0.00    +0.397 N 
ATOM     27  H   UNL     1       3.955   3.377  -0.249  0.00  0.00    -0.079 HD
BRANCH  26  28
ATOM     28  C   UNL     1       3.132   2.985  -2.092  0.00  0.00    -0.001 C 
BRANCH  28  29
ATOM     29  C   UNL     1       1.951   3.731  -1.526  0.00  0.00    +0.089 A 
ATOM     30  C   UNL     1       1.908   5.048  -1.255  0.00  0.00    +0.042 A 
ATOM     31  C   UNL     1       0.619   5.319  -0.744  0.00  0.00    +0.041 A 
ATOM     32  C   UNL     1      -0.050   4.152  -0.733  0.00  0.00    +0.195 A 
ATOM     33  O   UNL     1       0.760   3.195  -1.214  0.00  0.00    -0.470 OA
ENDBRANCH  28  29
ENDBRANCH  26  28
BRANCH  26  34
ATOM     34  C   UNL     1       5.456   2.693  -1.476  0.00  0.00    -0.034 C 
BRANCH  34  35
ATOM     35  C   UNL     1       6.378   2.878  -0.299  0.00  0.00    -0.027 A 
ATOM     36  C   UNL     1       7.285   2.015   0.220  0.00  0.00    +0.009 A 
ATOM     37  C   UNL     1       8.030   2.404   1.317  0.00  0.00    +0.008 A 
ATOM     38  C   UNL     1       7.832   3.637   1.842  0.00  0.00    +0.045 A 
ATOM     39  S   UNL     1       6.564   4.295   0.771  0.00  0.00    -0.103 S 
ENDBRANCH  34  35
ENDBRANCH  26  34
ENDBRANCH   1  26
TORSDOF 10
