REMARK  Name = ZINC41514551
REMARK  11 active torsions:
REMARK  status: ('A' for Active; 'I' for Inactive)
REMARK    1  A    between atoms: C_1  and  C_2
REMARK    2  A    between atoms: C_2  and  O_3
REMARK    3  A    between atoms: O_3  and  C_4
REMARK    4  A    between atoms: C_7  and  C_10
REMARK    5  A    between atoms: C_15  and  C_32
REMARK    6  A    between atoms: C_17  and  O_31
REMARK    7  A    between atoms: C_18  and  C_21
REMARK    8  A    between atoms: C_21  and  N_22
REMARK    9  A    between atoms: N_22  and  C_23
REMARK   10  A    between atoms: N_22  and  C_24
REMARK   11  A    between atoms: C_24  and  C_25
REMARK                            x       y       z     vdW  Elec       q    Type
REMARK                         _______ _______ _______ _____ _____    ______ ____
ROOT
ATOM      1  C   UNL     1      -1.997  -6.057  -0.011  0.00  0.00    +0.058 C 
ATOM      2  C   UNL     1      -3.239  -6.594   0.095  0.00  0.00    +0.176 C 
ATOM      3  C   UNL     1      -3.560  -8.024   0.212  0.00  0.00    +0.232 C 
ATOM      4  O   UNL     1      -2.784  -8.963   0.235  0.00  0.00    -0.283 OA
ATOM      5  C   UNL     1      -5.031  -8.067   0.297  0.00  0.00    +0.071 A 
ATOM      6  C   UNL     1      -5.950  -9.110   0.420  0.00  0.00    -0.033 A 
ATOM      7  C   UNL     1      -7.287  -8.836   0.474  0.00  0.00    +0.050 A 
ATOM      8  C   UNL     1      -7.735  -7.519   0.407  0.00  0.00    +0.122 A 
ATOM      9  C   UNL     1      -6.834  -6.474   0.285  0.00  0.00    +0.020 A 
ATOM     10  C   UNL     1      -5.471  -6.735   0.229  0.00  0.00    +0.145 A 
ATOM     11  O   UNL     1      -4.407  -5.910   0.118  0.00  0.00    -0.451 OA
ATOM     12  C   UNL     1      -5.468 -10.536   0.492  0.00  0.00    +0.045 C 
ENDROOT
BRANCH   1  16
ATOM     13  C   UNL     1      -1.497  -1.847   0.020  0.00  0.00    +0.121 A 
ATOM     14  C   UNL     1      -0.381  -2.677   0.030  0.00  0.00    +0.046 A 
ATOM     15  C   UNL     1      -0.538  -4.044   0.020  0.00  0.00    +0.011 A 
ATOM     16  C   UNL     1      -1.824  -4.599  -0.000  0.00  0.00    -0.021 A 
ATOM     17  C   UNL     1      -2.944  -3.759  -0.010  0.00  0.00    +0.011 A 
ATOM     18  C   UNL     1      -2.776  -2.393   0.005  0.00  0.00    +0.046 A 
BRANCH  13  19
ATOM     19  O   UNL     1      -1.337  -0.499   0.030  0.00  0.00    -0.492 OA
BRANCH  19  21
ATOM     20  C   UNL     1      -0.016   1.525   0.054  0.00  0.00    +0.048 C 
ATOM     21  C   UNL     1       0.004  -0.005   0.044  0.00  0.00    +0.225 C 
ENDBRANCH  19  21
ENDBRANCH  13  19
ENDBRANCH   1  16
BRANCH   8  22
ATOM     22  O   UNL     1      -9.066  -7.257   0.462  0.00  0.00    -0.506 OA
ATOM     23  H   UNL     1      -9.403  -7.120   1.358  0.00  0.00    +0.292 HD
ENDBRANCH   8  22
BRANCH   9  24
ATOM     24  C   UNL     1      -7.333  -5.053   0.213  0.00  0.00    -0.035 C 
BRANCH  24  25
ATOM     25  N   UNL     1      -7.419  -4.495   1.569  0.00  0.00    +0.383 N 
ATOM     26  C   UNL     1      -8.437  -5.226   2.335  0.00  0.00    -0.095 C 
ATOM     27  H   UNL     1      -6.525  -4.585   2.027  0.00  0.00    -0.081 HD
BRANCH  25  28
ATOM     28  C   UNL     1      -7.790  -3.076   1.492  0.00  0.00    -0.043 C 
BRANCH  28  29
ATOM     29  C   UNL     1      -7.759  -2.473   2.872  0.00  0.00    -0.064 A 
ATOM     30  C   UNL     1      -8.894  -2.494   3.661  0.00  0.00    +0.002 A 
ATOM     31  C   UNL     1      -8.865  -1.940   4.928  0.00  0.00    +0.000 A 
ATOM     32  C   UNL     1      -7.702  -1.367   5.405  0.00  0.00    +0.000 A 
ATOM     33  C   UNL     1      -6.567  -1.347   4.617  0.00  0.00    +0.000 A 
ATOM     34  C   UNL     1      -6.594  -1.904   3.352  0.00  0.00    +0.002 A 
ENDBRANCH  28  29
ENDBRANCH  25  28
ENDBRANCH  24  25
ENDBRANCH   9  24
TORSDOF 8
