REMARK  Name = ZINC35652972
REMARK  5 active torsions:
REMARK  status: ('A' for Active; 'I' for Inactive)
REMARK    1  A    between atoms: C_4  and  C_7
REMARK    2  A    between atoms: C_16  and  O_31
REMARK    3  A    between atoms: C_18  and  O_30
REMARK    4  A    between atoms: C_20  and  S_23
REMARK    5  A    between atoms: S_23  and  C_24
REMARK                            x       y       z     vdW  Elec       q    Type
REMARK                         _______ _______ _______ _____ _____    ______ ____
ROOT
ATOM      1  C   UNL     1       3.711  -0.707  -0.038  0.00  0.00    +0.282 C 
ATOM      2  O   UNL     1       4.516  -0.265   1.057  0.00  0.00    -0.345 OA
ATOM      3  C   UNL     1       3.961  -0.541   2.349  0.00  0.00    +0.197 C 
ATOM      4  C   UNL     1       3.722  -2.048   2.458  0.00  0.00    +0.177 C 
ATOM      5  C   UNL     1       2.830  -2.483   1.288  0.00  0.00    +0.184 C 
ATOM      6  O   UNL     1       3.470  -2.115   0.070  0.00  0.00    -0.339 OA
ATOM      7  C   UNL     1       2.622  -3.996   1.369  0.00  0.00    +0.178 C 
ATOM      8  C   UNL     1       1.987  -4.327   2.725  0.00  0.00    +0.185 C 
ATOM      9  C   UNL     1       2.868  -3.786   3.853  0.00  0.00    +0.212 C 
ATOM     10  O   UNL     1       3.071  -2.380   3.682  0.00  0.00    -0.355 OA
ENDROOT
BRANCH   1  14
ATOM     11  C   UNL     1      -0.016   1.379   0.010  0.00  0.00    +0.000 A 
ATOM     12  C   UNL     1       1.117   1.976   0.530  0.00  0.00    +0.000 A 
ATOM     13  C   UNL     1       2.323   1.301   0.515  0.00  0.00    +0.008 A 
ATOM     14  C   UNL     1       2.396   0.029  -0.020  0.00  0.00    +0.008 A 
ATOM     15  C   UNL     1       1.263  -0.569  -0.539  0.00  0.00    +0.008 A 
ATOM     16  C   UNL     1       0.057   0.107  -0.526  0.00  0.00    +0.000 A 
ENDBRANCH   1  14
BRANCH   8  17
ATOM     17  O   UNL     1       1.861  -5.744   2.858  0.00  0.00    -0.386 OA
ATOM     18  H   UNL     1       1.466  -6.027   3.694  0.00  0.00    +0.210 HD
ENDBRANCH   8  17
BRANCH   7  19
ATOM     19  O   UNL     1       1.758  -4.419   0.313  0.00  0.00    -0.386 OA
ATOM     20  H   UNL     1       1.584  -5.370   0.305  0.00  0.00    +0.210 HD
ENDBRANCH   7  19
BRANCH   9  21
ATOM     21  S   UNL     1       4.471  -4.634   3.823  0.00  0.00    -0.091 S 
BRANCH  21  22
ATOM     22  C   UNL     1       5.246  -4.133   5.324  0.00  0.00    +0.010 A 
ATOM     23  C   UNL     1       4.586  -3.276   6.197  0.00  0.00    +0.015 A 
ATOM     24  C   UNL     1       5.196  -2.886   7.372  0.00  0.00    +0.001 A 
ATOM     25  C   UNL     1       6.462  -3.348   7.683  0.00  0.00    +0.000 A 
ATOM     26  C   UNL     1       7.122  -4.201   6.817  0.00  0.00    +0.001 A 
ATOM     27  C   UNL     1       6.516  -4.600   5.642  0.00  0.00    +0.015 A 
ENDBRANCH  21  22
ENDBRANCH   9  21
TORSDOF 5
