REMARK  Name = ZINC40061452
REMARK  7 active torsions:
REMARK  status: ('A' for Active; 'I' for Inactive)
REMARK    1  A    between atoms: C_7  and  C_10
REMARK    2  A    between atoms: C_13  and  S_23
REMARK    3  A    between atoms: N_15  and  C_16
REMARK    4  A    between atoms: C_16  and  C_17
REMARK    5  A    between atoms: S_23  and  C_24
REMARK    6  A    between atoms: C_24  and  C_25
REMARK    7  A    between atoms: N_27  and  C_28
REMARK                            x       y       z     vdW  Elec       q    Type
REMARK                         _______ _______ _______ _____ _____    ______ ____
ROOT
ATOM      1  C   UNL     1       0.763  -3.112  -0.002  0.00  0.00    +0.147 C 
ATOM      2  N   UNL     1      -0.540  -3.170  -0.083  0.00  0.00    -0.169 NA
ATOM      3  N   UNL     1      -0.990  -4.496  -0.098  0.00  0.00    -0.237 N 
ATOM      4  C   UNL     1       0.209  -5.346  -0.013  0.00  0.00    +0.237 C 
ATOM      5  N   UNL     1       1.328  -4.390   0.041  0.00  0.00    -0.283 N 
ATOM      6  H   UNL     1      -1.911  -4.795  -0.152  0.00  0.00    +0.171 HD
ENDROOT
BRANCH   1  13
ATOM      7  C   UNL     1      -0.503   1.243  -0.108  0.00  0.00    +0.001 A 
ATOM      8  C   UNL     1       0.568   2.138  -0.053  0.00  0.00    +0.002 A 
ATOM      9  C   UNL     1       1.853   1.712   0.025  0.00  0.00    +0.026 A 
ATOM     10  C   UNL     1       2.135   0.322   0.052  0.00  0.00    +0.043 A 
ATOM     11  N   UNL     1       3.276  -0.336   0.123  0.00  0.00    -0.380 N 
ATOM     12  C   UNL     1       3.005  -1.777   0.118  0.00  0.00    +0.152 C 
ATOM     13  C   UNL     1       1.502  -1.920   0.033  0.00  0.00    +0.022 C 
ATOM     14  C   UNL     1       1.003  -0.617  -0.006  0.00  0.00    +0.006 A 
ATOM     15  C   UNL     1      -0.308  -0.101  -0.086  0.00  0.00    +0.010 A 
ATOM     16  H   UNL     1       4.156   0.070   0.171  0.00  0.00    +0.160 HD
ENDBRANCH   1  13
BRANCH   5  17
ATOM     17  C   UNL     1       2.754  -4.715   0.126  0.00  0.00    +0.140 C 
BRANCH  17  18
ATOM     18  C   UNL     1       3.167  -4.817   1.595  0.00  0.00    +0.136 C 
ATOM     19  C   UNL     1       4.691  -5.040   1.697  0.00  0.00    +0.035 C 
ATOM     20  C   UNL     1       4.799  -6.058   2.865  0.00  0.00    +0.031 C 
ATOM     21  C   UNL     1       3.509  -6.889   2.651  0.00  0.00    +0.160 C 
ATOM     22  O   UNL     1       2.522  -5.942   2.204  0.00  0.00    -0.375 OA
ENDBRANCH  17  18
ENDBRANCH   5  17
BRANCH   4  23
ATOM     23  S   UNL     1       0.161  -6.366   1.486  0.00  0.00    -0.109 S 
BRANCH  23  24
ATOM     24  C   UNL     1       0.054  -5.158   2.835  0.00  0.00    +0.168 C 
BRANCH  24  25
ATOM     25  C   UNL     1       0.006  -5.883   4.155  0.00  0.00    +0.227 C 
ATOM     26  O   UNL     1       0.040  -7.095   4.184  0.00  0.00    -0.275 OA
ATOM     27  N   UNL     1      -0.075  -5.184   5.305  0.00  0.00    -0.285 N 
ATOM     28  H   UNL     1      -0.025  -4.215   5.288  0.00  0.00    +0.155 HD
BRANCH  27  29
ATOM     29  C   UNL     1      -0.231  -5.857   6.524  0.00  0.00    +0.037 A 
ATOM     30  C   UNL     1       0.338  -5.340   7.680  0.00  0.00    +0.027 A 
ATOM     31  C   UNL     1       0.185  -6.003   8.882  0.00  0.00    +0.051 A 
ATOM     32  C   UNL     1      -0.537  -7.186   8.938  0.00  0.00    +0.162 A 
ATOM     33  C   UNL     1      -1.110  -7.705   7.783  0.00  0.00    +0.164 A 
ATOM     34  C   UNL     1      -0.959  -7.037   6.577  0.00  0.00    +0.072 A 
ATOM     35  O   UNL     1      -1.829  -8.860   7.820  0.00  0.00    -0.485 OA
ATOM     36  C   UNL     1      -1.650  -9.693   8.970  0.00  0.00    +0.270 C 
ATOM     37  C   UNL     1      -1.716  -8.806  10.221  0.00  0.00    +0.270 C 
ATOM     38  O   UNL     1      -0.674  -7.828  10.132  0.00  0.00    -0.485 OA
ENDBRANCH  27  29
ENDBRANCH  24  25
ENDBRANCH  23  24
ENDBRANCH   4  23
TORSDOF 7
