REMARK  Name = ZINC40155252
REMARK  7 active torsions:
REMARK  status: ('A' for Active; 'I' for Inactive)
REMARK    1  A    between atoms: C_1  and  N_2
REMARK    2  A    between atoms: C_3  and  C_5
REMARK    3  A    between atoms: C_5  and  N_11
REMARK    4  A    between atoms: C_12  and  C_14
REMARK    5  A    between atoms: C_17  and  N_20
REMARK    6  A    between atoms: N_20  and  S_21
REMARK    7  A    between atoms: S_21  and  C_24
REMARK                            x       y       z     vdW  Elec       q    Type
REMARK                         _______ _______ _______ _____ _____    ______ ____
ROOT
ATOM      1  C   UNL     1      -0.208  -3.313   2.418  0.00  0.00    +0.037 A 
ATOM      2  C   UNL     1       0.983  -3.921   2.827  0.00  0.00    +0.015 A 
ATOM      3  C   UNL     1       1.060  -4.515   4.066  0.00  0.00    +0.025 A 
ATOM      4  C   UNL     1      -0.046  -4.513   4.911  0.00  0.00    +0.048 A 
ATOM      5  C   UNL     1      -1.234  -3.909   4.506  0.00  0.00    +0.025 A 
ATOM      6  C   UNL     1      -1.315  -3.307   3.272  0.00  0.00    +0.015 A 
ENDROOT
BRANCH   1   8
ATOM      7  N   UNL     1       0.774  -2.681   0.269  0.00  0.00    -0.297 N 
ATOM      8  C   UNL     1      -0.294  -2.675   1.091  0.00  0.00    +0.245 C 
ATOM      9  O   UNL     1      -1.329  -2.142   0.739  0.00  0.00    -0.270 OA
ATOM     10  H   UNL     1       1.621  -3.040   0.578  0.00  0.00    +0.150 HD
BRANCH   7  11
ATOM     11  C   UNL     1       0.656  -2.146  -1.089  0.00  0.00    +0.111 C 
ATOM     12  C   UNL     1      -0.400  -2.941  -1.861  0.00  0.00    +0.035 C 
ATOM     13  C   UNL     1       0.016  -4.412  -1.926  0.00  0.00    +0.003 C 
ATOM     14  C   UNL     1       1.365  -4.529  -2.639  0.00  0.00    +0.000 C 
ATOM     15  C   UNL     1       2.420  -3.735  -1.868  0.00  0.00    +0.003 C 
ATOM     16  C   UNL     1       2.005  -2.264  -1.802  0.00  0.00    +0.035 C 
BRANCH  11  19
ATOM     17  C   UNL     1       0.393   1.520  -0.025  0.00  0.00    +0.128 C 
ATOM     18  N   UNL     1       0.701   0.088  -0.028  0.00  0.00    -0.317 N 
ATOM     19  C   UNL     1       0.247  -0.697  -1.025  0.00  0.00    +0.236 C 
ATOM     20  O   UNL     1      -0.491  -0.237  -1.870  0.00  0.00    -0.273 OA
ATOM     21  H   UNL     1       1.231  -0.296   0.688  0.00  0.00    +0.148 HD
ENDBRANCH  11  19
ENDBRANCH   7  11
ENDBRANCH   1   8
BRANCH   4  22
ATOM     22  N   UNL     1       0.035  -5.114   6.162  0.00  0.00    -0.216 N 
ATOM     23  H   UNL     1       0.433  -5.995   6.251  0.00  0.00    +0.174 HD
BRANCH  22  24
ATOM     24  S   UNL     1      -0.546  -4.329   7.498  0.00  0.00    +0.072 S 
ATOM     25  O   UNL     1      -1.881  -3.946   7.196  0.00  0.00    -0.150 OA
ATOM     26  O   UNL     1      -0.221  -5.139   8.619  0.00  0.00    -0.150 OA
BRANCH  24  27
ATOM     27  C   UNL     1       0.378  -2.838   7.669  0.00  0.00    +0.109 A 
ATOM     28  C   UNL     1       1.597  -2.852   8.321  0.00  0.00    +0.031 A 
ATOM     29  C   UNL     1       2.323  -1.684   8.455  0.00  0.00    +0.040 A 
ATOM     30  C   UNL     1       1.829  -0.499   7.937  0.00  0.00    +0.124 A 
ATOM     31  C   UNL     1       0.608  -0.486   7.284  0.00  0.00    +0.040 A 
ATOM     32  C   UNL     1      -0.114  -1.657   7.147  0.00  0.00    +0.031 A 
ATOM     33  F   UNL     1       2.538   0.644   8.068  0.00  0.00    -0.205 F 
ENDBRANCH  24  27
ENDBRANCH  22  24
ENDBRANCH   4  22
TORSDOF 6
