REMARK  Name = ZINC21584467
REMARK  6 active torsions:
REMARK  status: ('A' for Active; 'I' for Inactive)
REMARK    1  A    between atoms: C_8  and  C_10
REMARK    2  A    between atoms: N_13  and  C_16
REMARK    3  A    between atoms: C_16  and  C_17
REMARK    4  A    between atoms: C_17  and  C_18
REMARK    5  A    between atoms: N_20  and  C_21
REMARK    6  A    between atoms: C_22  and  C_31
REMARK                            x       y       z     vdW  Elec       q    Type
REMARK                         _______ _______ _______ _____ _____    ______ ____
ROOT
ATOM      1  C   UNL     1       5.278   2.845  -1.308  0.00  0.00    -0.070 C 
ENDROOT
BRANCH   1   5
ATOM      2  C   UNL     1       1.328   1.893   0.025  0.00  0.00    +0.072 C 
ATOM      3  C   UNL     1       1.516   2.681  -1.274  0.00  0.00    -0.006 C 
ATOM      4  C   UNL     1       2.905   3.324  -1.279  0.00  0.00    -0.078 C 
ATOM      5  N   UNL     1       3.930   2.278  -1.167  0.00  0.00    +0.380 N 
ATOM      6  C   UNL     1       3.799   1.538   0.094  0.00  0.00    -0.078 C 
ATOM      7  C   UNL     1       2.437   0.843   0.140  0.00  0.00    -0.006 C 
ATOM      8  H   UNL     1       3.774   1.566  -1.991  0.00  0.00    -0.082 HD
BRANCH   2  16
ATOM      9  C   UNL     1      -3.656   2.697  -0.776  0.00  0.00    +0.002 C 
ATOM     10  C   UNL     1      -2.575   3.772  -0.810  0.00  0.00    +0.002 C 
ATOM     11  C   UNL     1      -2.147   4.097   0.600  0.00  0.00    +0.019 C 
ATOM     12  C   UNL     1      -0.949   3.218   1.004  0.00  0.00    +0.108 C 
ATOM     13  N   UNL     1      -1.093   1.828   0.528  0.00  0.00    -0.301 N 
ATOM     14  C   UNL     1      -2.344   1.106   0.591  0.00  0.00    +0.108 C 
ATOM     15  C   UNL     1      -3.140   1.321  -0.714  0.00  0.00    +0.019 C 
ATOM     16  C   UNL     1      -0.014   1.209   0.009  0.00  0.00    +0.219 C 
ATOM     17  O   UNL     1      -0.126   0.102  -0.476  0.00  0.00    -0.275 OA
ENDBRANCH   2  16
ENDBRANCH   1   5
BRANCH   1  18
ATOM     18  C   UNL     1       5.306   3.807  -2.497  0.00  0.00    +0.077 C 
BRANCH  18  19
ATOM     19  C   UNL     1       6.688   4.388  -2.641  0.00  0.00    +0.216 C 
ATOM     20  O   UNL     1       7.566   4.065  -1.868  0.00  0.00    -0.276 OA
ATOM     21  N   UNL     1       6.950   5.268  -3.628  0.00  0.00    -0.279 N 
ATOM     22  H   UNL     1       6.155   5.561  -4.329  0.00  0.00    +0.155 HD
BRANCH  21  23
ATOM     23  C   UNL     1       8.224   5.803  -3.761  0.00  0.00    +0.090 A 
ATOM     24  C   UNL     1       8.684   6.707  -4.704  0.00  0.00    +0.084 A 
ATOM     25  C   UNL     1      10.077   7.122  -4.623  0.00  0.00    -0.018 A 
ATOM     26  C   UNL     1      10.783   6.553  -3.622  0.00  0.00    -0.004 A 
ATOM     27  S   UNL     1       9.626   5.498  -2.791  0.00  0.00    -0.077 S 
ATOM     28  C   UNL     1      12.230   6.753  -3.293  0.00  0.00    +0.043 C 
ATOM     29  C   UNL     1      12.538   8.256  -3.257  0.00  0.00    +0.005 C 
ATOM     30  C   UNL     1      12.946   8.698  -4.658  0.00  0.00    +0.001 C 
ATOM     31  C   UNL     1      12.193   7.883  -5.708  0.00  0.00    +0.005 C 
ATOM     32  C   UNL     1      10.692   8.124  -5.593  0.00  0.00    +0.037 C 
BRANCH  24  33
ATOM     33  C   UNL     1       7.818   7.218  -5.723  0.00  0.00    +0.102 C 
ATOM     34  N   UNL     1       7.131   7.623  -6.532  0.00  0.00    -0.191 NA
ENDBRANCH  24  33
ENDBRANCH  21  23
ENDBRANCH  18  19
ENDBRANCH   1  18
TORSDOF 6
