REMARK  Name = ZINC64023900
REMARK  7 active torsions:
REMARK  status: ('A' for Active; 'I' for Inactive)
REMARK    1  A    between atoms: C_1  and  C_2
REMARK    2  A    between atoms: C_2  and  O_3
REMARK    3  A    between atoms: O_3  and  C_4
REMARK    4  A    between atoms: C_9  and  C_10
REMARK    5  A    between atoms: C_25  and  C_27
REMARK    6  A    between atoms: C_27  and  C_28
REMARK    7  A    between atoms: C_28  and  C_29
REMARK                            x       y       z     vdW  Elec       q    Type
REMARK                         _______ _______ _______ _____ _____    ______ ____
ROOT
ATOM      1  C   UNL     1       1.990  -1.397  -3.491  0.00  0.00    +0.136 C 
ATOM      2  C   UNL     1       3.356  -0.882  -3.024  0.00  0.00    +0.131 C 
ATOM      3  C   UNL     1       4.316  -2.063  -3.102  0.00  0.00    -0.035 C 
ATOM      4  C   UNL     1       4.839  -2.201  -1.890  0.00  0.00    -0.001 A 
ATOM      5  C   UNL     1       5.869  -3.114  -1.367  0.00  0.00    +0.010 A 
ATOM      6  C   UNL     1       6.164  -2.989  -0.045  0.00  0.00    +0.001 A 
ATOM      7  C   UNL     1       5.546  -2.060   0.796  0.00  0.00    +0.002 A 
ATOM      8  C   UNL     1       4.593  -1.179   0.399  0.00  0.00    +0.026 A 
ATOM      9  C   UNL     1       4.201  -1.210  -0.971  0.00  0.00    +0.043 A 
ATOM     10  N   UNL     1       3.329  -0.461  -1.622  0.00  0.00    -0.375 N 
ATOM     11  C   UNL     1       4.486  -2.887  -4.355  0.00  0.00    +0.052 C 
ATOM     12  C   UNL     1       3.074  -3.291  -4.815  0.00  0.00    +0.113 C 
ATOM     13  N   UNL     1       2.188  -2.122  -4.756  0.00  0.00    -0.292 N 
ATOM     14  C   UNL     1       1.552  -1.708  -5.869  0.00  0.00    +0.216 C 
ATOM     15  O   UNL     1       0.820  -0.742  -5.826  0.00  0.00    -0.276 OA
ATOM     16  H   UNL     1       2.767   0.236  -1.250  0.00  0.00    +0.160 HD
ENDROOT
BRANCH   1  22
ATOM     17  C   UNL     1       0.225  -2.005  -1.818  0.00  0.00    +0.125 A 
ATOM     18  C   UNL     1      -0.306  -2.865  -0.868  0.00  0.00    +0.046 A 
ATOM     19  C   UNL     1       0.353  -4.038  -0.555  0.00  0.00    +0.004 A 
ATOM     20  C   UNL     1       1.542  -4.354  -1.187  0.00  0.00    +0.001 A 
ATOM     21  C   UNL     1       2.073  -3.498  -2.134  0.00  0.00    +0.009 A 
ATOM     22  C   UNL     1       1.414  -2.327  -2.455  0.00  0.00    +0.017 A 
BRANCH  17  23
ATOM     23  O   UNL     1      -0.423  -0.851  -2.128  0.00  0.00    -0.492 OA
BRANCH  23  25
ATOM     24  C   UNL     1      -2.221   0.749  -1.911  0.00  0.00    +0.048 C 
ATOM     25  C   UNL     1      -1.642  -0.584  -1.432  0.00  0.00    +0.225 C 
ENDBRANCH  23  25
ENDBRANCH  17  23
ENDBRANCH   1  22
BRANCH  14  26
ATOM     26  C   UNL     1       1.749  -2.446  -7.168  0.00  0.00    +0.102 C 
BRANCH  26  27
ATOM     27  C   UNL     1       0.920  -1.777  -8.266  0.00  0.00    +0.064 C 
BRANCH  27  28
ATOM     28  C   UNL     1       1.117  -2.514  -9.566  0.00  0.00    +0.042 A 
ATOM     29  C   UNL     1       0.018  -2.991 -10.255  0.00  0.00    +0.023 A 
ATOM     30  C   UNL     1       0.211  -3.668 -11.449  0.00  0.00    +0.003 A 
ATOM     31  C   UNL     1       1.508  -3.841 -11.907  0.00  0.00    +0.020 A 
ATOM     32  C   UNL     1       2.558  -3.337 -11.164  0.00  0.00    +0.111 A 
ATOM     33  N   UNL     1       2.337  -2.693 -10.034  0.00  0.00    -0.260 NA
ENDBRANCH  27  28
ENDBRANCH  26  27
ENDBRANCH  14  26
TORSDOF 6
