REMARK  Name = ZINC52538526
REMARK  5 active torsions:
REMARK  status: ('A' for Active; 'I' for Inactive)
REMARK    1  A    between atoms: C_1  and  O_2
REMARK    2  A    between atoms: O_2  and  C_3
REMARK    3  A    between atoms: C_3  and  C_5
REMARK    4  A    between atoms: C_8  and  C_23
REMARK    5  A    between atoms: C_13  and  C_15
REMARK                            x       y       z     vdW  Elec       q    Type
REMARK                         _______ _______ _______ _____ _____    ______ ____
ROOT
ATOM      1  C   UNL     1       0.381  -2.132  -1.170  0.00  0.00    +0.269 C 
ATOM      2  O   UNL     1      -0.278  -2.924  -0.290  0.00  0.00    -0.280 OA
ATOM      3  C   UNL     1       1.022  -2.682  -2.228  0.00  0.00    +0.055 C 
ATOM      4  C   UNL     1       1.140  -4.145  -2.387  0.00  0.00    +0.078 C 
ATOM      5  N   UNL     1       1.268  -4.627  -3.622  0.00  0.00    -0.192 NA
ATOM      6  C   UNL     1       1.306  -3.823  -4.681  0.00  0.00    +0.155 C 
ATOM      7  S   UNL     1       1.204  -4.530  -6.237  0.00  0.00    -0.017 S 
ATOM      8  N   UNL     1       1.421  -2.490  -4.598  0.00  0.00    -0.314 N 
ATOM      9  C   UNL     1       1.647  -1.827  -3.312  0.00  0.00    +0.139 C 
ATOM     10  H   UNL     1       1.350  -1.954  -5.403  0.00  0.00    +0.149 HD
ENDROOT
BRANCH   9  11
ATOM     11  C   UNL     1       3.128  -1.694  -3.066  0.00  0.00    -0.020 A 
ATOM     12  C   UNL     1       3.984  -2.715  -3.438  0.00  0.00    +0.009 A 
ATOM     13  C   UNL     1       5.343  -2.595  -3.213  0.00  0.00    +0.041 A 
ATOM     14  C   UNL     1       5.848  -1.452  -2.616  0.00  0.00    +0.158 A 
ATOM     15  C   UNL     1       4.989  -0.429  -2.244  0.00  0.00    +0.159 A 
ATOM     16  C   UNL     1       3.630  -0.550  -2.475  0.00  0.00    +0.047 A 
ATOM     17  F   UNL     1       5.479   0.687  -1.661  0.00  0.00    -0.202 F 
ATOM     18  F   UNL     1       7.175  -1.335  -2.396  0.00  0.00    -0.202 F 
ENDBRANCH   9  11
BRANCH   4  19
ATOM     19  C   UNL     1       1.119  -5.037  -1.225  0.00  0.00    +0.036 A 
ATOM     20  C   UNL     1       0.637  -6.337  -1.127  0.00  0.00    +0.017 A 
ATOM     21  C   UNL     1       0.755  -6.925   0.108  0.00  0.00    +0.008 A 
ATOM     22  C   UNL     1       1.318  -6.220   1.123  0.00  0.00    +0.046 A 
ATOM     23  S   UNL     1       1.711  -4.741   0.430  0.00  0.00    -0.095 S 
ENDBRANCH   4  19
BRANCH   1  24
ATOM     24  C   UNL     1       0.400  -0.667  -0.975  0.00  0.00    +0.379 C 
ATOM     25  O   UNL     1       1.089   0.032  -1.691  0.00  0.00    -0.241 OA
BRANCH  24  27
ATOM     26  C   UNL     1      -0.280   1.314   0.129  0.00  0.00    +0.280 C 
ATOM     27  O   UNL     1      -0.347  -0.107  -0.003  0.00  0.00    -0.462 OA
ENDBRANCH  24  27
ENDBRANCH   1  24
TORSDOF 4
