REMARK  Name = ZINC35324420
REMARK  6 active torsions:
REMARK  status: ('A' for Active; 'I' for Inactive)
REMARK    1  A    between atoms: C_1  and  O_2
REMARK    2  A    between atoms: O_2  and  C_3
REMARK    3  A    between atoms: C_4  and  C_14
REMARK    4  A    between atoms: C_8  and  O_9
REMARK    5  A    between atoms: O_9  and  C_10
REMARK    6  A    between atoms: N_24  and  C_25
REMARK                            x       y       z     vdW  Elec       q    Type
REMARK                         _______ _______ _______ _____ _____    ______ ____
ROOT
ATOM      1  C   UNL     1      -1.599  -0.594  -2.245  0.00  0.00    +0.084 C 
ATOM      2  C   UNL     1      -2.406  -1.878  -2.457  0.00  0.00    +0.110 C 
ATOM      3  C   UNL     1      -2.319  -2.353  -3.878  0.00  0.00    +0.219 C 
ATOM      4  O   UNL     1      -2.282  -3.546  -4.098  0.00  0.00    -0.275 OA
ATOM      5  N   UNL     1      -2.280  -1.495  -4.921  0.00  0.00    -0.270 N 
ATOM      6  C   UNL     1      -2.187  -0.131  -4.643  0.00  0.00    +0.133 A 
ATOM      7  C   UNL     1      -1.868   0.335  -3.402  0.00  0.00    +0.089 A 
ATOM      8  N   UNL     1      -1.853   1.666  -3.449  0.00  0.00    -0.238 NA
ATOM      9  C   UNL     1      -2.150   2.059  -4.661  0.00  0.00    +0.205 A 
ATOM     10  N   UNL     1      -2.369   0.955  -5.441  0.00  0.00    -0.287 N 
ATOM     11  H   UNL     1      -2.316  -1.818  -5.835  0.00  0.00    +0.156 HD
ENDROOT
BRANCH   1  13
ATOM     12  C   UNL     1       0.607  -0.608  -1.057  0.00  0.00    +0.169 A 
ATOM     13  C   UNL     1      -0.129  -0.921  -2.189  0.00  0.00    +0.011 A 
ATOM     14  C   UNL     1       0.483  -1.534  -3.267  0.00  0.00    +0.057 A 
ATOM     15  C   UNL     1       1.834  -1.838  -3.220  0.00  0.00    +0.170 A 
ATOM     16  C   UNL     1       2.578  -1.526  -2.086  0.00  0.00    +0.211 A 
ATOM     17  C   UNL     1       1.964  -0.905  -1.006  0.00  0.00    +0.208 A 
ATOM     18  O   UNL     1       3.869  -1.923  -2.287  0.00  0.00    -0.449 OA
ATOM     19  C   UNL     1       3.820  -2.847  -3.390  0.00  0.00    +0.467 C 
ATOM     20  O   UNL     1       2.659  -2.431  -4.133  0.00  0.00    -0.452 OA
BRANCH  12  22
ATOM     21  C   UNL     1      -0.017   1.425   0.010  0.00  0.00    +0.277 C 
ATOM     22  O   UNL     1       0.002  -0.004   0.002  0.00  0.00    -0.491 OA
ENDBRANCH  12  22
BRANCH  17  23
ATOM     23  O   UNL     1       2.688  -0.593   0.102  0.00  0.00    -0.488 OA
ATOM     24  C   UNL     1       2.765  -1.585   1.128  0.00  0.00    +0.277 C 
ENDBRANCH  17  23
ENDBRANCH   1  13
BRANCH  10  25
ATOM     25  C   UNL     1      -2.712   0.946  -6.801  0.00  0.00    +0.051 A 
ATOM     26  C   UNL     1      -2.005   0.149  -7.691  0.00  0.00    +0.026 A 
ATOM     27  C   UNL     1      -2.344   0.141  -9.030  0.00  0.00    +0.003 A 
ATOM     28  C   UNL     1      -3.386   0.927  -9.485  0.00  0.00    +0.020 A 
ATOM     29  C   UNL     1      -4.093   1.723  -8.600  0.00  0.00    +0.043 A 
ATOM     30  C   UNL     1      -3.762   1.730  -7.258  0.00  0.00    +0.046 A 
ATOM     31 CL   UNL     1      -5.401   2.709  -9.176  0.00  0.00    -0.083 Cl
ENDBRANCH  10  25
TORSDOF 4
