REMARK  Name = ZINC30397770
REMARK  9 active torsions:
REMARK  status: ('A' for Active; 'I' for Inactive)
REMARK    1  A    between atoms: C_1  and  C_2
REMARK    2  A    between atoms: C_2  and  C_4
REMARK    3  A    between atoms: C_2  and  S_17
REMARK    4  A    between atoms: C_4  and  C_6
REMARK    5  A    between atoms: S_17  and  C_18
REMARK    6  A    between atoms: N_22  and  C_23
REMARK    7  A    between atoms: C_23  and  C_24
REMARK    8  A    between atoms: C_24  and  C_25
REMARK    9  A    between atoms: C_24  and  C_26
REMARK                            x       y       z     vdW  Elec       q    Type
REMARK                         _______ _______ _______ _____ _____    ______ ____
ROOT
ATOM      1  C   UNL     1       0.731  -0.503   1.223  0.00  0.00    +0.176 C 
ATOM      2  O   UNL     1       0.109  -0.806   2.219  0.00  0.00    -0.291 OA
ENDROOT
BRANCH   1   3
ATOM      3  C   UNL     1       2.195  -0.624   1.206  0.00  0.00    +0.020 A 
ATOM      4  C   UNL     1       2.915  -0.270   0.059  0.00  0.00    +0.015 A 
ATOM      5  C   UNL     1       4.287  -0.382   0.043  0.00  0.00    +0.048 A 
ATOM      6  C   UNL     1       4.961  -0.847   1.165  0.00  0.00    +0.142 A 
ATOM      7  C   UNL     1       4.249  -1.202   2.314  0.00  0.00    +0.076 A 
ATOM      8  C   UNL     1       2.874  -1.087   2.340  0.00  0.00    +0.038 A 
ATOM      9  N   UNL     1       4.948  -1.669   3.436  0.00  0.00    -0.280 N 
ATOM     10  C   UNL     1       6.283  -1.471   3.504  0.00  0.00    +0.255 C 
ATOM     11  O   UNL     1       6.914  -1.893   4.451  0.00  0.00    -0.272 OA
ATOM     12  C   UNL     1       6.985  -0.725   2.399  0.00  0.00    +0.325 C 
ATOM     13  O   UNL     1       6.314  -0.960   1.158  0.00  0.00    -0.481 OA
ATOM     14  H   UNL     1       4.481  -2.128   4.152  0.00  0.00    +0.155 HD
ENDBRANCH   1   3
BRANCH   1  16
ATOM     15  C   UNL     1      -0.019   1.526   0.010  0.00  0.00    +0.028 C 
ATOM     16  C   UNL     1       0.002  -0.004   0.002  0.00  0.00    +0.122 C 
BRANCH  16  17
ATOM     17  S   UNL     1      -1.700  -0.632   0.015  0.00  0.00    -0.073 S 
BRANCH  17  18
ATOM     18  C   UNL     1      -2.365  -0.093  -1.525  0.00  0.00    +0.210 A 
ATOM     19  N   UNL     1      -1.734   0.599  -2.450  0.00  0.00    -0.101 NA
ATOM     20  N   UNL     1      -2.509   0.825  -3.449  0.00  0.00    -0.022 NA
ATOM     21  N   UNL     1      -3.670   0.305  -3.242  0.00  0.00    -0.043 NA
ATOM     22  N   UNL     1      -3.619  -0.319  -1.983  0.00  0.00    -0.220 N 
BRANCH  22  23
ATOM     23  C   UNL     1      -4.693  -1.053  -1.310  0.00  0.00    +0.151 C 
BRANCH  23  24
ATOM     24  C   UNL     1      -5.513  -0.086  -0.455  0.00  0.00    +0.004 C 
ATOM     25  C   UNL     1      -6.220   0.924  -1.362  0.00  0.00    +0.009 C 
ATOM     26  C   UNL     1      -6.556  -0.870   0.344  0.00  0.00    +0.009 C 
ENDBRANCH  23  24
ENDBRANCH  22  23
ENDBRANCH  17  18
ENDBRANCH  16  17
ENDBRANCH   1  16
TORSDOF 6
