REMARK  Name = ZINC60352713
REMARK  5 active torsions:
REMARK  status: ('A' for Active; 'I' for Inactive)
REMARK    1  A    between atoms: C_4  and  S_7
REMARK    2  A    between atoms: S_7  and  C_8
REMARK    3  A    between atoms: C_13  and  N_14
REMARK    4  A    between atoms: C_15  and  C_17
REMARK    5  A    between atoms: C_20  and  C_25
REMARK                            x       y       z     vdW  Elec       q    Type
REMARK                         _______ _______ _______ _____ _____    ______ ____
ROOT
ATOM      1  C   UNL     1       3.529  -2.677  -0.408  0.00  0.00    +0.038 A 
ATOM      2  C   UNL     1       2.191  -3.042  -0.427  0.00  0.00    +0.066 A 
ATOM      3  C   UNL     1       1.785  -4.226   0.171  0.00  0.00    +0.163 A 
ATOM      4  C   UNL     1       2.719  -5.049   0.788  0.00  0.00    +0.164 A 
ATOM      5  C   UNL     1       4.057  -4.685   0.809  0.00  0.00    +0.073 A 
ATOM      6  C   UNL     1       4.467  -3.504   0.208  0.00  0.00    +0.051 A 
ATOM      7  O   UNL     1       2.338  -6.219   1.373  0.00  0.00    -0.485 OA
ATOM      8  C   UNL     1       0.944  -6.371   1.660  0.00  0.00    +0.270 C 
ATOM      9  C   UNL     1       0.148  -5.934   0.422  0.00  0.00    +0.270 C 
ATOM     10  O   UNL     1       0.466  -4.566   0.146  0.00  0.00    -0.485 OA
ENDROOT
BRANCH   6  11
ATOM     11  N   UNL     1       5.821  -3.140   0.226  0.00  0.00    -0.280 N 
ATOM     12  C   UNL     1       6.774  -4.093   0.256  0.00  0.00    +0.254 C 
ATOM     13  O   UNL     1       6.461  -5.264   0.366  0.00  0.00    -0.270 OA
ATOM     14  H   UNL     1       6.071  -2.203   0.216  0.00  0.00    +0.155 HD
BRANCH  12  15
ATOM     15  C   UNL     1       8.189  -3.717   0.157  0.00  0.00    +0.101 A 
ATOM     16  C   UNL     1       9.178  -4.704   0.070  0.00  0.00    +0.020 A 
ATOM     17  C   UNL     1      10.506  -4.323  -0.022  0.00  0.00    +0.030 A 
ATOM     18  C   UNL     1      10.840  -2.975  -0.027  0.00  0.00    +0.085 A 
ATOM     19  N   UNL     1       9.869  -2.014   0.059  0.00  0.00    -0.319 N 
ATOM     20  H   UNL     1      10.120  -1.077   0.054  0.00  0.00    +0.169 HD
ATOM     21  C   UNL     1       8.569  -2.353   0.143  0.00  0.00    +0.261 A 
ATOM     22  O   UNL     1       7.717  -1.484   0.214  0.00  0.00    -0.267 OA
BRANCH  18  23
ATOM     23  C   UNL     1      12.246  -2.577  -0.125  0.00  0.00    +0.151 A 
ATOM     24  C   UNL     1      12.720  -1.294  -0.135  0.00  0.00    +0.051 A 
ATOM     25  C   UNL     1      14.117  -1.381  -0.241  0.00  0.00    +0.042 A 
ATOM     26  C   UNL     1      14.431  -2.694  -0.290  0.00  0.00    +0.196 A 
ATOM     27  O   UNL     1      13.302  -3.412  -0.214  0.00  0.00    -0.461 OA
ENDBRANCH  18  23
ENDBRANCH  12  15
ENDBRANCH   6  11
BRANCH   1  28
ATOM     28  S   UNL     1       4.044  -1.174  -1.170  0.00  0.00    -0.087 S 
BRANCH  28  32
ATOM     29  C   UNL     1       0.185   0.693  -2.632  0.00  0.00    +0.000 A 
ATOM     30  C   UNL     1       0.711   1.064  -1.407  0.00  0.00    +0.001 A 
ATOM     31  C   UNL     1       1.887   0.497  -0.958  0.00  0.00    +0.015 A 
ATOM     32  C   UNL     1       2.543  -0.448  -1.738  0.00  0.00    +0.013 A 
ATOM     33  C   UNL     1       2.012  -0.818  -2.969  0.00  0.00    +0.015 A 
ATOM     34  C   UNL     1       0.836  -0.246  -3.411  0.00  0.00    +0.001 A 
ENDBRANCH  28  32
ENDBRANCH   1  28
TORSDOF 5
