REMARK  Name = ZINC66119461
REMARK  5 active torsions:
REMARK  status: ('A' for Active; 'I' for Inactive)
REMARK    1  A    between atoms: C_6  and  C_7
REMARK    2  A    between atoms: C_7  and  C_9
REMARK    3  A    between atoms: C_7  and  N_12
REMARK    4  A    between atoms: C_18  and  N_21
REMARK    5  A    between atoms: C_22  and  C_24
REMARK                            x       y       z     vdW  Elec       q    Type
REMARK                         _______ _______ _______ _____ _____    ______ ____
ROOT
ATOM      1  N   UNL     1      -3.474  -1.951   1.217  0.00  0.00    -0.292 N 
ATOM      2  C   UNL     1      -2.258  -2.480   1.459  0.00  0.00    +0.303 C 
ATOM      3  O   UNL     1      -1.281  -2.050   0.876  0.00  0.00    -0.253 OA
ATOM      4  N   UNL     1      -2.126  -3.486   2.346  0.00  0.00    -0.286 N 
ATOM      5  C   UNL     1      -0.795  -3.995   2.707  0.00  0.00    +0.111 C 
ATOM      6  C   UNL     1      -0.651  -3.960   4.231  0.00  0.00    +0.041 C 
ATOM      7  C   UNL     1      -1.812  -4.728   4.868  0.00  0.00    +0.076 C 
ATOM      8  C   UNL     1      -3.136  -4.058   4.492  0.00  0.00    +0.041 C 
ATOM      9  C   UNL     1      -3.308  -4.090   2.975  0.00  0.00    +0.111 C 
ATOM     10  H   UNL     1      -4.263  -2.344   1.621  0.00  0.00    +0.151 HD
ENDROOT
BRANCH   7  11
ATOM     11  N   UNL     1      -1.659  -4.724   6.325  0.00  0.00    -0.312 N 
ATOM     12  C   UNL     1      -2.217  -5.704   7.063  0.00  0.00    +0.216 C 
ATOM     13  O   UNL     1      -2.846  -6.588   6.522  0.00  0.00    -0.276 OA
ATOM     14  H   UNL     1      -1.156  -4.017   6.758  0.00  0.00    +0.149 HD
BRANCH  12  15
ATOM     15  C   UNL     1      -2.060  -5.700   8.562  0.00  0.00    +0.075 C 
ATOM     16  C   UNL     1      -0.729  -6.301   9.043  0.00  0.00    +0.013 C 
ATOM     17  C   UNL     1      -1.527  -6.959  10.181  0.00  0.00    +0.001 C 
ATOM     18  C   UNL     1      -2.754  -6.883   9.257  0.00  0.00    +0.013 C 
ENDBRANCH  12  15
ENDBRANCH   7  11
BRANCH   1  19
ATOM     19  C   UNL     1      -3.603  -0.782   0.343  0.00  0.00    +0.108 C 
BRANCH  19  25
ATOM     20  C   UNL     1      -5.160  -0.387  -1.577  0.00  0.00    +0.007 A 
ATOM     21  C   UNL     1      -6.428  -0.361  -2.126  0.00  0.00    +0.020 A 
ATOM     22  C   UNL     1      -7.524  -0.699  -1.353  0.00  0.00    +0.041 A 
ATOM     23  C   UNL     1      -7.349  -1.065  -0.030  0.00  0.00    +0.020 A 
ATOM     24  C   UNL     1      -6.081  -1.091   0.518  0.00  0.00    +0.007 A 
ATOM     25  C   UNL     1      -4.986  -0.753  -0.255  0.00  0.00    -0.027 A 
ATOM     26 CL   UNL     1      -9.117  -0.665  -2.041  0.00  0.00    -0.084 Cl
ENDBRANCH  19  25
BRANCH  19  27
ATOM     27  C   UNL     1      -3.373   0.492   1.158  0.00  0.00    +0.014 C 
ATOM     28  C   UNL     1      -2.354   1.499   0.622  0.00  0.00    +0.006 C 
ATOM     29  C   UNL     1      -2.018   0.652   1.850  0.00  0.00    +0.006 C 
ENDBRANCH  19  27
ENDBRANCH   1  19
TORSDOF 5
