REMARK  Name = ZINC00894111
REMARK  7 active torsions:
REMARK  status: ('A' for Active; 'I' for Inactive)
REMARK    1  A    between atoms: C_1  and  C_2
REMARK    2  A    between atoms: C_5  and  C_32
REMARK    3  A    between atoms: C_9  and  C_14
REMARK    4  A    between atoms: C_14  and  C_16
REMARK    5  A    between atoms: C_14  and  N_63
REMARK    6  A    between atoms: N_20  and  C_21
REMARK    7  A    between atoms: C_28  and  C_31
REMARK                            x       y       z     vdW  Elec       q    Type
REMARK                         _______ _______ _______ _____ _____    ______ ____
ROOT
ATOM      1  C   UNL     1       0.002  -0.004   0.002  0.00  0.00    +0.039 C 
ENDROOT
BRANCH   1  10
ATOM      2  C   UNL     1      -3.572   3.750   0.500  0.00  0.00    +0.044 C 
ATOM      3  C   UNL     1      -2.231   4.424   0.365  0.00  0.00    -0.041 A 
ATOM      4  C   UNL     1      -2.142   5.787   0.389  0.00  0.00    +0.004 A 
ATOM      5  C   UNL     1      -0.911   6.418   0.264  0.00  0.00    +0.005 A 
ATOM      6  C   UNL     1       0.244   5.681   0.114  0.00  0.00    -0.026 A 
ATOM      7  C   UNL     1       0.179   4.292   0.087  0.00  0.00    +0.052 A 
ATOM      8  C   UNL     1      -1.071   3.657   0.214  0.00  0.00    +0.002 A 
ATOM      9  C   UNL     1      -1.130   2.194   0.180  0.00  0.00    +0.018 A 
ATOM     10  C   UNL     1       0.027   1.502   0.036  0.00  0.00    +0.011 A 
ATOM     11  C   UNL     1       1.255   2.188  -0.087  0.00  0.00    +0.251 A 
ATOM     12  O   UNL     1       2.283   1.547  -0.220  0.00  0.00    -0.268 OA
ATOM     13  N   UNL     1       1.318   3.531  -0.062  0.00  0.00    -0.322 N 
ATOM     14  H   UNL     1       2.205   3.984  -0.152  0.00  0.00    +0.169 HD
ATOM     15  C   UNL     1       1.573   6.378  -0.021  0.00  0.00    +0.046 C 
ENDBRANCH   1  10
BRANCH   1  22
ATOM     16  C   UNL     1       0.817  -1.941  -1.200  0.00  0.00    -0.077 C 
ATOM     17  C   UNL     1       1.662  -2.386  -2.396  0.00  0.00    -0.015 C 
ATOM     18  C   UNL     1       0.991  -1.919  -3.691  0.00  0.00    -0.018 C 
ATOM     19  C   UNL     1       0.827  -0.397  -3.651  0.00  0.00    -0.015 C 
ATOM     20  C   UNL     1       0.006  -0.009  -2.419  0.00  0.00    -0.077 C 
ATOM     21  C   UNL     1       1.862  -2.307  -4.887  0.00  0.00    +0.007 C 
ATOM     22  N   UNL     1       0.717  -0.466  -1.206  0.00  0.00    +0.389 N 
ATOM     23  H   UNL     1       1.664  -0.068  -1.205  0.00  0.00    -0.080 HD
ENDBRANCH   1  22
BRANCH   1  24
ATOM     24  C   UNL     1       0.701  -0.546   1.222  0.00  0.00    +0.143 A 
ATOM     25  N   UNL     1       1.994  -0.582   1.433  0.00  0.00    -0.115 NA
ATOM     26  N   UNL     1       2.195  -1.115   2.588  0.00  0.00    -0.023 NA
ATOM     27  N   UNL     1       1.063  -1.428   3.117  0.00  0.00    -0.044 NA
ATOM     28  N   UNL     1       0.118  -1.093   2.306  0.00  0.00    -0.227 N 
BRANCH  28  29
ATOM     29  C   UNL     1      -1.320  -1.274   2.522  0.00  0.00    +0.111 C 
ATOM     30  C   UNL     1      -1.755  -0.550   3.813  0.00  0.00    +0.027 C 
ATOM     31  C   UNL     1      -2.823  -1.487   4.431  0.00  0.00    +0.002 C 
ATOM     32  C   UNL     1      -2.256  -2.897   4.132  0.00  0.00    +0.002 C 
ATOM     33  C   UNL     1      -1.639  -2.765   2.724  0.00  0.00    +0.027 C 
ENDBRANCH  28  29
ENDBRANCH   1  24
TORSDOF 4
