REMARK  Name = ZINC22188777
REMARK  11 active torsions:
REMARK  status: ('A' for Active; 'I' for Inactive)
REMARK    1  A    between atoms: C_1  and  C_2
REMARK    2  A    between atoms: C_4  and  N_26
REMARK    3  A    between atoms: C_6  and  C_7
REMARK    4  A    between atoms: C_7  and  O_9
REMARK    5  A    between atoms: O_9  and  C_10
REMARK    6  A    between atoms: C_10  and  C_12
REMARK    7  A    between atoms: C_10  and  C_13
REMARK    8  A    between atoms: C_27  and  C_29
REMARK    9  A    between atoms: C_29  and  C_30
REMARK   10  A    between atoms: C_29  and  C_31
REMARK   11  A    between atoms: C_29  and  C_32
REMARK                            x       y       z     vdW  Elec       q    Type
REMARK                         _______ _______ _______ _____ _____    ______ ____
ROOT
ATOM      1  O   UNL     1      -4.761  -2.963   0.009  0.00  0.00    -0.448 OA
ENDROOT
BRANCH   1   2
ATOM      2  C   UNL     1      -5.269  -1.712   0.018  0.00  0.00    +0.347 C 
ATOM      3  O   UNL     1      -6.474  -1.545   0.025  0.00  0.00    -0.244 OA
BRANCH   2   9
ATOM      4  C   UNL     1      -6.146   1.228   0.037  0.00  0.00    +0.045 C 
ATOM      5  C   UNL     1      -4.715   0.757   0.028  0.00  0.00    -0.028 A 
ATOM      6  C   UNL     1      -3.673   1.645   0.034  0.00  0.00    +0.035 A 
ATOM      7  C   UNL     1      -2.384   1.156   0.020  0.00  0.00    +0.073 A 
ATOM      8  S   UNL     1      -2.615  -0.562   0.012  0.00  0.00    -0.067 S 
ATOM      9  C   UNL     1      -4.399  -0.595   0.020  0.00  0.00    +0.101 A 
BRANCH   7  10
ATOM     10  N   UNL     1      -1.191   1.867   0.018  0.00  0.00    -0.280 N 
ATOM     11  C   UNL     1      -0.014   1.209   0.009  0.00  0.00    +0.223 C 
ATOM     12  O   UNL     1       0.002  -0.004   0.002  0.00  0.00    -0.275 OA
ATOM     13  H   UNL     1      -1.206   2.966   0.024  0.00  0.00    +0.155 HD
BRANCH  11  14
ATOM     14  C   UNL     1       1.280   1.980   0.001  0.00  0.00    +0.039 C 
ATOM     15  C   UNL     1       2.457   1.002  -0.016  0.00  0.00    +0.020 C 
ATOM     16  C   UNL     1       1.337   2.867  -1.245  0.00  0.00    +0.020 C 
ATOM     17  C   UNL     1       1.361   2.854   1.254  0.00  0.00    +0.020 C 
ENDBRANCH  11  14
ENDBRANCH   7  10
ENDBRANCH   2   9
ENDBRANCH   1   2
BRANCH   1  18
ATOM     18  C   UNL     1      -5.697  -4.043   0.008  0.00  0.00    +0.259 C 
ATOM     19  C   UNL     1      -6.038  -4.421  -1.435  0.00  0.00    +0.062 C 
BRANCH  18  20
ATOM     20  C   UNL     1      -5.092  -5.232   0.709  0.00  0.00    +0.259 C 
ATOM     21  O   UNL     1      -3.971  -5.162   1.165  0.00  0.00    -0.271 OA
ATOM     22  N   UNL     1      -5.798  -6.374   0.829  0.00  0.00    -0.266 N 
ATOM     23  C   UNL     1      -5.241  -7.470   1.476  0.00  0.00    +0.154 A 
ATOM     24  C   UNL     1      -5.962  -8.668   1.610  0.00  0.00    +0.126 A 
ATOM     25  C   UNL     1      -5.341  -9.746   2.265  0.00  0.00    +0.183 A 
ATOM     26  N   UNL     1      -6.251 -10.772   2.249  0.00  0.00    -0.216 NA
ATOM     27  H   UNL     1      -7.869  -8.398   0.703  0.00  0.00    +0.167 HD
ATOM     28  C   UNL     1      -7.374 -10.313   1.627  0.00  0.00    +0.199 A 
ATOM     29  N   UNL     1      -7.197  -9.082   1.242  0.00  0.00    -0.340 N 
ATOM     30  N   UNL     1      -4.108  -9.593   2.734  0.00  0.00    -0.214 NA
ATOM     31  C   UNL     1      -3.473  -8.448   2.591  0.00  0.00    +0.225 A 
ATOM     32  N   UNL     1      -4.011  -7.412   1.974  0.00  0.00    -0.218 NA
ATOM     33  H   UNL     1      -6.815  -6.438   0.416  0.00  0.00    +0.156 HD
ENDBRANCH  18  20
ENDBRANCH   1  18
TORSDOF 6
