REMARK  Name = ZINC38683552
REMARK  9 active torsions:
REMARK  status: ('A' for Active; 'I' for Inactive)
REMARK    1  A    between atoms: C_1  and  O_2
REMARK    2  A    between atoms: O_2  and  C_3
REMARK    3  A    between atoms: C_3  and  C_5
REMARK    4  A    between atoms: C_8  and  C_11
REMARK    5  A    between atoms: C_16  and  O_25
REMARK    6  A    between atoms: C_20  and  N_24
REMARK    7  A    between atoms: C_21  and  C_22
REMARK    8  A    between atoms: O_25  and  C_26
REMARK    9  A    between atoms: C_26  and  C_28
REMARK                            x       y       z     vdW  Elec       q    Type
REMARK                         _______ _______ _______ _____ _____    ______ ____
ROOT
ATOM      1  C   UNL     1       0.849  -6.371   1.252  0.00  0.00    +0.098 C 
ATOM      2  C   UNL     1       2.290  -6.807   1.265  0.00  0.00    +0.008 A 
ATOM      3  C   UNL     1       2.999  -6.852   0.077  0.00  0.00    +0.012 A 
ATOM      4  C   UNL     1       4.321  -7.250   0.071  0.00  0.00    +0.047 A 
ATOM      5  C   UNL     1       4.944  -7.607   1.258  0.00  0.00    +0.135 A 
ATOM      6  C   UNL     1       4.238  -7.562   2.449  0.00  0.00    +0.093 A 
ATOM      7  C   UNL     1       2.908  -7.162   2.454  0.00  0.00    +0.138 A 
ATOM      8  O   UNL     1       2.230  -7.125   3.628  0.00  0.00    -0.441 OA
ATOM      9  C   UNL     1       0.887  -7.125   3.627  0.00  0.00    +0.199 C 
ATOM     10  C   UNL     1       0.175  -6.777   2.532  0.00  0.00    +0.098 C 
ENDROOT
BRANCH   1  14
ATOM     11  C   UNL     1       0.659  -2.119   0.836  0.00  0.00    +0.059 A 
ATOM     12  C   UNL     1       0.071  -2.945  -0.124  0.00  0.00    +0.015 A 
ATOM     13  C   UNL     1       0.136  -4.316   0.016  0.00  0.00    +0.005 A 
ATOM     14  C   UNL     1       0.782  -4.873   1.105  0.00  0.00    -0.035 A 
ATOM     15  C   UNL     1       1.366  -4.061   2.061  0.00  0.00    +0.005 A 
ATOM     16  C   UNL     1       1.314  -2.689   1.930  0.00  0.00    +0.015 A 
BRANCH  11  17
ATOM     17  C   UNL     1       0.593  -0.651   0.693  0.00  0.00    +0.339 C 
ATOM     18  O   UNL     1       1.110   0.065   1.528  0.00  0.00    -0.245 OA
BRANCH  17  20
ATOM     19  C   UNL     1      -0.064   1.322  -0.439  0.00  0.00    +0.280 C 
ATOM     20  O   UNL     1      -0.039  -0.105  -0.364  0.00  0.00    -0.464 OA
ENDBRANCH  17  20
ENDBRANCH  11  17
ENDBRANCH   1  14
BRANCH   9  21
ATOM     21  N   UNL     1       0.219  -7.488   4.770  0.00  0.00    -0.328 N 
ATOM     22  H   UNL     1       0.717  -7.739   5.563  0.00  0.00    +0.145 HD
ATOM     23  H   UNL     1      -0.751  -7.493   4.784  0.00  0.00    +0.145 HD
ENDBRANCH   9  21
BRANCH  10  24
ATOM     24  C   UNL     1      -1.256  -6.797   2.596  0.00  0.00    +0.101 C 
ATOM     25  N   UNL     1      -2.390  -6.812   2.647  0.00  0.00    -0.191 NA
ENDBRANCH  10  24
BRANCH   5  26
ATOM     26  O   UNL     1       6.245  -7.999   1.253  0.00  0.00    -0.422 OA
BRANCH  26  27
ATOM     27  C   UNL     1       7.182  -7.082   0.938  0.00  0.00    +0.345 C 
ATOM     28  O   UNL     1       6.862  -5.922   0.765  0.00  0.00    -0.245 OA
BRANCH  27  29
ATOM     29  C   UNL     1       8.592  -7.486   0.803  0.00  0.00    +0.067 A 
ATOM     30  C   UNL     1       8.956  -8.825   0.871  0.00  0.00    +0.015 A 
ATOM     31  C   UNL     1      10.286  -9.203   0.744  0.00  0.00    +0.001 A 
ATOM     32  C   UNL     1      11.276  -8.289   0.549  0.00  0.00    +0.008 A 
ATOM     33  C   UNL     1      10.981  -6.918   0.470  0.00  0.00    -0.017 A 
ATOM     34  C   UNL     1       9.637  -6.487   0.590  0.00  0.00    -0.004 A 
ATOM     35  C   UNL     1       9.338  -5.122   0.507  0.00  0.00    +0.009 A 
ATOM     36  C   UNL     1      10.343  -4.223   0.307  0.00  0.00    +0.001 A 
ATOM     37  C   UNL     1      11.665  -4.644   0.184  0.00  0.00    +0.001 A 
ATOM     38  C   UNL     1      11.992  -5.963   0.270  0.00  0.00    +0.008 A 
ENDBRANCH  27  29
ENDBRANCH  26  27
ENDBRANCH   5  26
TORSDOF 8
