REMARK  Name = ZINC40320121
REMARK  12 active torsions:
REMARK  status: ('A' for Active; 'I' for Inactive)
REMARK    1  A    between atoms: C_1  and  O_2
REMARK    2  A    between atoms: O_2  and  C_3
REMARK    3  A    between atoms: C_5  and  C_33
REMARK    4  A    between atoms: C_8  and  O_9
REMARK    5  A    between atoms: O_9  and  C_10
REMARK    6  A    between atoms: C_10  and  C_11
REMARK    7  A    between atoms: C_11  and  C_13
REMARK    8  A    between atoms: C_11  and  O_32
REMARK    9  A    between atoms: C_13  and  N_14
REMARK   10  A    between atoms: N_14  and  C_15
REMARK   11  A    between atoms: N_14  and  C_24
REMARK   12  A    between atoms: C_15  and  C_16
REMARK                            x       y       z     vdW  Elec       q    Type
REMARK                         _______ _______ _______ _____ _____    ______ ____
ROOT
ATOM      1  N   UNL     1       0.733  -7.033   2.099  0.00  0.00    +0.387 N 
ATOM      2  H   UNL     1       1.052  -6.718   3.003  0.00  0.00    -0.081 HD
ENDROOT
BRANCH   1   3
ATOM      3  C   UNL     1      -0.129  -6.006   1.498  0.00  0.00    -0.045 C 
ATOM      4  C   UNL     1      -1.418  -5.862   2.324  0.00  0.00    +0.009 C 
ATOM      5  C   UNL     1      -2.459  -5.030   1.536  0.00  0.00    +0.164 C 
ATOM      6  S   UNL     1      -2.007  -5.372  -0.214  0.00  0.00    -0.033 S 
ATOM      7  O   UNL     1      -1.604  -4.158  -0.832  0.00  0.00    -0.174 OA
ATOM      8  O   UNL     1      -3.032  -6.154  -0.811  0.00  0.00    -0.174 OA
ATOM      9  C   UNL     1      -0.524  -6.431   0.055  0.00  0.00    +0.151 C 
ENDBRANCH   1   3
BRANCH   1  10
ATOM     10  C   UNL     1       1.891  -7.272   1.227  0.00  0.00    -0.043 C 
BRANCH  10  11
ATOM     11  C   UNL     1       2.783  -6.030   1.213  0.00  0.00    +0.135 C 
BRANCH  11  12
ATOM     12  O   UNL     1       2.100  -4.960   0.555  0.00  0.00    -0.390 OA
ATOM     13  H   UNL     1       1.804  -5.175  -0.340  0.00  0.00    +0.210 HD
ENDBRANCH  11  12
BRANCH  11  14
ATOM     14  C   UNL     1       4.081  -6.343   0.465  0.00  0.00    +0.258 C 
BRANCH  14  15
ATOM     15  O   UNL     1       4.963  -5.221   0.551  0.00  0.00    -0.486 OA
BRANCH  15  21
ATOM     16  C   UNL     1       7.074  -4.277  -0.019  0.00  0.00    +0.162 A 
ATOM     17  C   UNL     1       8.302  -4.393  -0.640  0.00  0.00    +0.060 A 
ATOM     18  C   UNL     1       8.630  -5.572  -1.320  0.00  0.00    +0.018 A 
ATOM     19  C   UNL     1       7.712  -6.628  -1.366  0.00  0.00    +0.015 A 
ATOM     20  C   UNL     1       6.489  -6.504  -0.744  0.00  0.00    +0.050 A 
ATOM     21  C   UNL     1       6.167  -5.335  -0.065  0.00  0.00    +0.162 A 
BRANCH  16  23
ATOM     22  C   UNL     1       7.729  -2.091   0.648  0.00  0.00    +0.277 C 
ATOM     23  O   UNL     1       6.752  -3.133   0.641  0.00  0.00    -0.491 OA
ENDBRANCH  16  23
BRANCH  18  24
ATOM     24  C   UNL     1       9.934  -5.702  -1.983  0.00  0.00    +0.258 C 
ATOM     25  O   UNL     1      10.217  -6.724  -2.571  0.00  0.00    -0.296 OA
ENDBRANCH  18  24
ENDBRANCH  15  21
ENDBRANCH  14  15
ENDBRANCH  11  14
ENDBRANCH  10  11
ENDBRANCH   1  10
BRANCH   1  26
ATOM     26  C   UNL     1      -0.028  -8.280   2.256  0.00  0.00    -0.041 C 
BRANCH  26  27
ATOM     27  C   UNL     1      -0.182  -8.594   3.722  0.00  0.00    -0.046 A 
ATOM     28  C   UNL     1       0.921  -8.568   4.554  0.00  0.00    +0.004 A 
ATOM     29  C   UNL     1       0.780  -8.856   5.898  0.00  0.00    +0.020 A 
ATOM     30  C   UNL     1      -0.466  -9.168   6.412  0.00  0.00    +0.042 A 
ATOM     31  C   UNL     1      -1.570  -9.193   5.580  0.00  0.00    +0.040 A 
ATOM     32  C   UNL     1      -1.429  -8.901   4.236  0.00  0.00    +0.044 A 
ATOM     33 CL   UNL     1      -2.816  -8.926   3.192  0.00  0.00    -0.083 Cl
ATOM     34 CL   UNL     1      -0.642  -9.530   8.101  0.00  0.00    -0.083 Cl
ENDBRANCH  26  27
ENDBRANCH   1  26
TORSDOF 11
