REMARK  Name = ZINC13568605
REMARK  8 active torsions:
REMARK  status: ('A' for Active; 'I' for Inactive)
REMARK    1  A    between atoms: C_1  and  O_2
REMARK    2  A    between atoms: O_2  and  C_3
REMARK    3  A    between atoms: C_5  and  C_13
REMARK    4  A    between atoms: C_6  and  O_11
REMARK    5  A    between atoms: C_8  and  O_9
REMARK    6  A    between atoms: O_9  and  C_10
REMARK    7  A    between atoms: O_11  and  C_12
REMARK    8  A    between atoms: C_18  and  C_23
REMARK                            x       y       z     vdW  Elec       q    Type
REMARK                         _______ _______ _______ _____ _____    ______ ____
ROOT
ATOM      1  C   UNL     1      -1.123   7.128   1.863  0.00  0.00    +0.140 C 
ATOM      2  C   UNL     1       0.186   7.650   2.407  0.00  0.00    +0.037 C 
ATOM      3  C   UNL     1       0.393   8.118   3.647  0.00  0.00    +0.017 C 
ATOM      4  C   UNL     1       1.782   8.568   4.074  0.00  0.00    +0.060 C 
ATOM      5  C   UNL     1       2.518   9.181   2.884  0.00  0.00    +0.039 C 
ATOM      6  C   UNL     1       2.625   8.105   1.797  0.00  0.00    +0.088 C 
ATOM      7  C   UNL     1       1.246   7.617   1.469  0.00  0.00    +0.163 C 
ATOM      8  O   UNL     1       1.030   7.177   0.357  0.00  0.00    -0.292 OA
ATOM      9  N   UNL     1      -0.555   8.226   4.612  0.00  0.00    -0.316 N 
ATOM     10  C   UNL     1      -1.460   7.223   4.950  0.00  0.00    +0.052 A 
ATOM     11  C   UNL     1      -1.486   6.642   6.205  0.00  0.00    +0.025 A 
ATOM     12  C   UNL     1      -2.463   5.706   6.498  0.00  0.00    +0.002 A 
ATOM     13  C   UNL     1      -3.401   5.355   5.544  0.00  0.00    +0.002 A 
ATOM     14  C   UNL     1      -3.360   5.919   4.281  0.00  0.00    +0.025 A 
ATOM     15  C   UNL     1      -2.373   6.844   3.977  0.00  0.00    +0.049 A 
ATOM     16  N   UNL     1      -2.268   7.400   2.705  0.00  0.00    -0.331 N 
ATOM     17  H   UNL     1      -0.606   9.061   5.102  0.00  0.00    +0.152 HD
ATOM     18  H   UNL     1      -2.974   7.980   2.378  0.00  0.00    +0.147 HD
ENDROOT
BRANCH   1  21
ATOM     19  C   UNL     1       0.054   3.556   2.229  0.00  0.00    +0.162 A 
ATOM     20  C   UNL     1      -0.052   4.928   2.389  0.00  0.00    +0.058 A 
ATOM     21  C   UNL     1      -1.006   5.636   1.682  0.00  0.00    +0.023 A 
ATOM     22  C   UNL     1      -1.855   4.975   0.807  0.00  0.00    +0.129 A 
ATOM     23  C   UNL     1      -1.748   3.603   0.639  0.00  0.00    +0.095 A 
ATOM     24  C   UNL     1      -0.793   2.892   1.347  0.00  0.00    +0.165 A 
BRANCH  19  26
ATOM     25  C   UNL     1       1.825   3.606   3.817  0.00  0.00    +0.277 C 
ATOM     26  O   UNL     1       0.990   2.859   2.930  0.00  0.00    -0.491 OA
ENDBRANCH  19  26
BRANCH  24  27
ATOM     27  O   UNL     1      -0.686   1.546   1.184  0.00  0.00    -0.491 OA
ATOM     28  C   UNL     1      -1.592   0.930   0.267  0.00  0.00    +0.277 C 
ENDBRANCH  24  27
BRANCH  22  29
ATOM     29  O   UNL     1      -2.792   5.674   0.112  0.00  0.00    -0.495 OA
ATOM     30  C   UNL     1      -3.632   4.930  -0.773  0.00  0.00    +0.277 C 
ENDBRANCH  22  29
ENDBRANCH   1  21
BRANCH   5  31
ATOM     31  C   UNL     1       3.897   9.618   3.307  0.00  0.00    -0.006 A 
ATOM     32  C   UNL     1       4.445  10.857   3.277  0.00  0.00    +0.011 A 
ATOM     33  C   UNL     1       5.743  11.027   3.721  0.00  0.00    +0.008 A 
ATOM     34  C   UNL     1       6.429   9.948   4.173  0.00  0.00    +0.045 A 
ATOM     35  S   UNL     1       5.228   8.641   3.984  0.00  0.00    -0.101 S 
ENDBRANCH   5  31
TORSDOF 5
