REMARK  Name = ZINC17218907
REMARK  6 active torsions:
REMARK  status: ('A' for Active; 'I' for Inactive)
REMARK    1  A    between atoms: C_2  and  C_9
REMARK    2  A    between atoms: C_4  and  O_8
REMARK    3  A    between atoms: C_5  and  O_7
REMARK    4  A    between atoms: C_14  and  C_15
REMARK    5  A    between atoms: C_17  and  O_22
REMARK    6  A    between atoms: C_18  and  O_21
REMARK                            x       y       z     vdW  Elec       q    Type
REMARK                         _______ _______ _______ _____ _____    ______ ____
ROOT
ATOM      1  C   UNL     1       0.880   3.396  -0.684  0.00  0.00    +0.015 C 
ATOM      2  C   UNL     1      -0.263   4.107  -0.577  0.00  0.00    +0.000 C 
ATOM      3  C   UNL     1      -1.571   3.450  -0.362  0.00  0.00    +0.185 C 
ATOM      4  O   UNL     1      -1.876   2.404  -0.910  0.00  0.00    -0.287 OA
ATOM      5  C   UNL     1      -2.483   4.155   0.566  0.00  0.00    +0.000 C 
ATOM      6  C   UNL     1      -3.257   3.484   1.447  0.00  0.00    +0.015 C 
ATOM      7  C   UNL     1      -2.502   5.667   0.478  0.00  0.00    +0.039 C 
ATOM      8  C   UNL     1      -1.062   6.184   0.514  0.00  0.00    +0.009 C 
ATOM      9  C   UNL     1      -0.272   5.620  -0.665  0.00  0.00    +0.039 C 
ENDROOT
BRANCH   1  11
ATOM     10  C   UNL     1      -0.017   1.326  -1.728  0.00  0.00    +0.012 A 
ATOM     11  C   UNL     1       0.827   1.931  -0.791  0.00  0.00    -0.021 A 
ATOM     12  C   UNL     1       1.622   1.137   0.045  0.00  0.00    +0.057 A 
ATOM     13  C   UNL     1       1.568  -0.238  -0.060  0.00  0.00    +0.159 A 
ATOM     14  C   UNL     1       0.724  -0.834  -0.997  0.00  0.00    +0.158 A 
ATOM     15  C   UNL     1      -0.065  -0.047  -1.827  0.00  0.00    +0.050 A 
BRANCH  14  16
ATOM     16  O   UNL     1       0.673  -2.187  -1.099  0.00  0.00    -0.503 OA
ATOM     17  H   UNL     1       0.009  -2.600  -0.530  0.00  0.00    +0.292 HD
ENDBRANCH  14  16
BRANCH  13  18
ATOM     18  O   UNL     1       2.339  -1.013   0.749  0.00  0.00    -0.503 OA
ATOM     19  H   UNL     1       1.913  -1.257   1.582  0.00  0.00    +0.292 HD
ENDBRANCH  13  18
ENDBRANCH   1  11
BRANCH   6  20
ATOM     20  C   UNL     1      -3.092   2.034   1.616  0.00  0.00    -0.021 A 
ATOM     21  C   UNL     1      -4.199   1.230   1.912  0.00  0.00    +0.057 A 
ATOM     22  C   UNL     1      -4.037  -0.132   2.069  0.00  0.00    +0.159 A 
ATOM     23  C   UNL     1      -2.773  -0.704   1.933  0.00  0.00    +0.158 A 
ATOM     24  C   UNL     1      -1.673   0.092   1.639  0.00  0.00    +0.050 A 
ATOM     25  C   UNL     1      -1.827   1.451   1.476  0.00  0.00    +0.012 A 
BRANCH  23  26
ATOM     26  O   UNL     1      -2.616  -2.044   2.088  0.00  0.00    -0.503 OA
ATOM     27  H   UNL     1      -2.716  -2.550   1.270  0.00  0.00    +0.292 HD
ENDBRANCH  23  26
BRANCH  22  28
ATOM     28  O   UNL     1      -5.111  -0.915   2.357  0.00  0.00    -0.503 OA
ATOM     29  H   UNL     1      -5.567  -1.259   1.577  0.00  0.00    +0.292 HD
ENDBRANCH  22  28
ENDBRANCH   6  20
TORSDOF 6
