REMARK  Name = ZINC40843451
REMARK  3 active torsions:
REMARK  status: ('A' for Active; 'I' for Inactive)
REMARK    1  A    between atoms: C_1  and  C_2
REMARK    2  A    between atoms: C_12  and  C_14
REMARK    3  A    between atoms: C_14  and  N_15
REMARK                            x       y       z     vdW  Elec       q    Type
REMARK                         _______ _______ _______ _____ _____    ______ ____
ROOT
ATOM      1  N   UNL     1       3.948  -0.428   2.911  0.00  0.00    -0.317 N 
ATOM      2  C   UNL     1       4.695  -0.841   3.997  0.00  0.00    +0.165 A 
ATOM      3  C   UNL     1       6.094  -0.424   4.126  0.00  0.00    +0.201 A 
ATOM      4  N   UNL     1       6.899   0.317   3.397  0.00  0.00    -0.126 NA
ATOM      5  N   UNL     1       8.055   0.375   3.962  0.00  0.00    -0.137 NA
ATOM      6  C   UNL     1       8.049  -0.320   5.073  0.00  0.00    +0.230 A 
ATOM      7  N   UNL     1       6.817  -0.847   5.215  0.00  0.00    -0.277 N 
ATOM      8  C   UNL     1       6.207  -1.653   6.160  0.00  0.00    +0.075 A 
ATOM      9  C   UNL     1       6.914  -2.095   7.272  0.00  0.00    +0.028 A 
ATOM     10  C   UNL     1       6.298  -2.898   8.208  0.00  0.00    +0.002 A 
ATOM     11  C   UNL     1       4.972  -3.271   8.050  0.00  0.00    +0.002 A 
ATOM     12  C   UNL     1       4.254  -2.844   6.957  0.00  0.00    +0.030 A 
ATOM     13  C   UNL     1       4.863  -2.027   5.995  0.00  0.00    +0.090 A 
ATOM     14  N   UNL     1       4.152  -1.603   4.919  0.00  0.00    -0.227 NA
ATOM     15  H   UNL     1       4.350   0.134   2.231  0.00  0.00    +0.148 HD
ENDROOT
BRANCH   1  16
ATOM     16  C   UNL     1       2.547  -0.841   2.786  0.00  0.00    +0.199 C 
BRANCH  16  27
ATOM     17  C   UNL     1      -0.019   1.526   0.010  0.00  0.00    +0.029 C 
ATOM     18  C   UNL     1       0.002  -0.004   0.002  0.00  0.00    +0.083 C 
ATOM     19  C   UNL     1      -1.430  -0.557   0.082  0.00  0.00    +0.059 C 
ATOM     20  C   UNL     1      -1.457  -1.361   1.363  0.00  0.00    -0.024 A 
ATOM     21  C   UNL     1      -2.472  -2.086   1.957  0.00  0.00    +0.005 A 
ATOM     22  C   UNL     1      -2.247  -2.747   3.150  0.00  0.00    +0.000 A 
ATOM     23  C   UNL     1      -1.003  -2.681   3.749  0.00  0.00    +0.002 A 
ATOM     24  C   UNL     1       0.013  -1.959   3.160  0.00  0.00    +0.024 A 
ATOM     25  C   UNL     1      -0.206  -1.288   1.955  0.00  0.00    +0.040 A 
ATOM     26  N   UNL     1       0.679  -0.510   1.199  0.00  0.00    -0.267 N 
ATOM     27  C   UNL     1       1.964  -0.262   1.523  0.00  0.00    +0.237 C 
ATOM     28  O   UNL     1       2.650   0.428   0.799  0.00  0.00    -0.274 OA
ENDBRANCH  16  27
ENDBRANCH   1  16
TORSDOF 2
