REMARK  Name = ZINC37827365
REMARK  7 active torsions:
REMARK  status: ('A' for Active; 'I' for Inactive)
REMARK    1  A    between atoms: C_1  and  C_2
REMARK    2  A    between atoms: C_2  and  N_3
REMARK    3  A    between atoms: N_3  and  C_4
REMARK    4  A    between atoms: N_3  and  C_6
REMARK    5  A    between atoms: C_4  and  C_5
REMARK    6  A    between atoms: C_12  and  C_14
REMARK    7  A    between atoms: C_17  and  O_21
REMARK                            x       y       z     vdW  Elec       q    Type
REMARK                         _______ _______ _______ _____ _____    ______ ____
ROOT
ATOM      1  C   UNL     1      -1.704  -1.718  -0.013  0.00  0.00    -0.066 C 
ATOM      2  C   UNL     1      -3.188  -1.992  -0.270  0.00  0.00    +0.004 C 
ATOM      3  C   UNL     1      -3.449  -3.498  -0.170  0.00  0.00    +0.106 C 
ATOM      4  N   UNL     1      -2.963  -3.978   1.131  0.00  0.00    -0.303 N 
ATOM      5  C   UNL     1      -1.576  -3.688   1.517  0.00  0.00    +0.106 C 
ATOM      6  C   UNL     1      -1.335  -2.180   1.399  0.00  0.00    +0.004 C 
ATOM      7  C   UNL     1      -3.776  -4.669   1.955  0.00  0.00    +0.202 C 
ATOM      8  O   UNL     1      -4.919  -4.902   1.624  0.00  0.00    -0.277 OA
ENDROOT
BRANCH   7   9
ATOM      9  C   UNL     1      -3.263  -5.154   3.286  0.00  0.00    +0.019 C 
ATOM     10  C   UNL     1      -3.316  -4.018   4.330  0.00  0.00    +0.023 C 
ATOM     11  C   UNL     1      -3.722  -4.705   5.650  0.00  0.00    +0.097 C 
ATOM     12  C   UNL     1      -3.879  -6.199   5.293  0.00  0.00    -0.050 C 
ATOM     13  N   UNL     1      -4.154  -6.210   3.832  0.00  0.00    +0.388 N 
ATOM     14  H   UNL     1      -5.121  -5.982   3.654  0.00  0.00    -0.085 HD
ATOM     15  H   UNL     1      -3.922  -7.107   3.434  0.00  0.00    -0.085 HD
BRANCH  11  16
ATOM     16  O   UNL     1      -2.700  -4.533   6.634  0.00  0.00    -0.394 OA
ATOM     17  H   UNL     1      -2.900  -4.944   7.486  0.00  0.00    +0.210 HD
ENDBRANCH  11  16
ENDBRANCH   7   9
BRANCH   1  18
ATOM     18  N   UNL     1      -1.444  -0.278  -0.141  0.00  0.00    +0.381 N 
ATOM     19  H   UNL     1      -1.771   0.045  -1.039  0.00  0.00    -0.081 HD
BRANCH  18  21
ATOM     20  C   UNL     1      -1.981   1.951   0.721  0.00  0.00    -0.017 C 
ATOM     21  C   UNL     1      -2.150   0.444   0.926  0.00  0.00    -0.082 C 
ENDBRANCH  18  21
BRANCH  18  22
ATOM     22  C   UNL     1      -0.001  -0.029  -0.027  0.00  0.00    -0.082 C 
ATOM     23  C   UNL     1       0.721  -0.660  -1.220  0.00  0.00    -0.017 C 
ENDBRANCH  18  22
ENDBRANCH   1  18
TORSDOF 5
