REMARK  Name = ZINC35591502
REMARK  10 active torsions:
REMARK  status: ('A' for Active; 'I' for Inactive)
REMARK    1  A    between atoms: C_1  and  C_2
REMARK    2  A    between atoms: C_2  and  C_3
REMARK    3  A    between atoms: C_3  and  C_5
REMARK    4  A    between atoms: C_3  and  N_6
REMARK    5  A    between atoms: C_7  and  C_9
REMARK    6  A    between atoms: C_9  and  C_11
REMARK    7  A    between atoms: C_9  and  N_13
REMARK    8  A    between atoms: C_11  and  C_12
REMARK    9  A    between atoms: N_22  and  C_25
REMARK   10  A    between atoms: C_28  and  C_32
REMARK                            x       y       z     vdW  Elec       q    Type
REMARK                         _______ _______ _______ _____ _____    ______ ____
ROOT
ATOM      1  N   UNL     1       0.337   0.846  -6.395  0.00  0.00    -0.281 N 
ATOM      2  C   UNL     1       0.467  -0.342  -7.100  0.00  0.00    +0.059 A 
ATOM      3  C   UNL     1      -0.542  -1.293  -7.113  0.00  0.00    +0.027 A 
ATOM      4  C   UNL     1      -0.372  -2.462  -7.827  0.00  0.00    +0.002 A 
ATOM      5  C   UNL     1       0.799  -2.696  -8.532  0.00  0.00    +0.001 A 
ATOM      6  C   UNL     1       1.813  -1.762  -8.531  0.00  0.00    +0.015 A 
ATOM      7  C   UNL     1       1.655  -0.578  -7.815  0.00  0.00    +0.064 A 
ATOM      8  C   UNL     1       2.706   0.454  -7.779  0.00  0.00    +0.269 A 
ATOM      9  O   UNL     1       3.752   0.299  -8.380  0.00  0.00    -0.266 OA
ATOM     10  N   UNL     1       2.479   1.575  -7.062  0.00  0.00    -0.228 N 
ATOM     11  C   UNL     1       1.325   1.757  -6.399  0.00  0.00    +0.338 A 
ATOM     12  O   UNL     1       1.170   2.787  -5.773  0.00  0.00    -0.246 OA
ENDROOT
BRANCH  10  13
ATOM     13  C   UNL     1       3.464   2.571  -7.012  0.00  0.00    +0.056 A 
ATOM     14  C   UNL     1       3.433   3.625  -7.915  0.00  0.00    +0.027 A 
ATOM     15  C   UNL     1       4.404   4.606  -7.864  0.00  0.00    +0.007 A 
ATOM     16  C   UNL     1       5.408   4.538  -6.915  0.00  0.00    -0.032 A 
ATOM     17  C   UNL     1       5.441   3.489  -6.013  0.00  0.00    +0.046 A 
ATOM     18  C   UNL     1       4.468   2.508  -6.057  0.00  0.00    +0.046 A 
ATOM     19 CL   UNL     1       6.703   3.408  -4.823  0.00  0.00    -0.083 Cl
ATOM     20  C   UNL     1       6.466   5.609  -6.862  0.00  0.00    +0.045 C 
ENDBRANCH  10  13
BRANCH   1  21
ATOM     21  C   UNL     1      -0.892   1.113  -5.644  0.00  0.00    +0.177 C 
BRANCH  21  23
ATOM     22  N   UNL     1      -1.548   1.495  -3.289  0.00  0.00    -0.311 N 
ATOM     23  C   UNL     1      -0.566   1.246  -4.178  0.00  0.00    +0.236 C 
ATOM     24  O   UNL     1       0.580   1.130  -3.799  0.00  0.00    -0.274 OA
ATOM     25  H   UNL     1      -2.465   1.588  -3.593  0.00  0.00    +0.149 HD
BRANCH  22  26
ATOM     26  C   UNL     1      -1.231   1.625  -1.865  0.00  0.00    +0.070 C 
ATOM     27  C   UNL     1      -1.200   0.238  -1.221  0.00  0.00    +0.028 C 
BRANCH  26  29
ATOM     28  C   UNL     1      -2.246   3.905  -1.739  0.00  0.00    +0.005 C 
ATOM     29  C   UNL     1      -2.299   2.481  -1.181  0.00  0.00    +0.018 C 
ENDBRANCH  26  29
ENDBRANCH  22  26
ENDBRANCH  21  23
BRANCH  21  30
ATOM     30  C   UNL     1      -1.525   2.412  -6.146  0.00  0.00    +0.031 C 
ATOM     31  C   UNL     1      -1.970   2.234  -7.599  0.00  0.00    +0.006 C 
ENDBRANCH  21  30
ENDBRANCH   1  21
TORSDOF 6
