REMARK  Name = ZINC39760660
REMARK  9 active torsions:
REMARK  status: ('A' for Active; 'I' for Inactive)
REMARK    1  A    between atoms: C_1  and  C_2
REMARK    2  A    between atoms: C_4  and  C_31
REMARK    3  A    between atoms: C_5  and  C_30
REMARK    4  A    between atoms: C_6  and  C_8
REMARK    5  A    between atoms: C_8  and  C_10
REMARK    6  A    between atoms: C_10  and  N_11
REMARK    7  A    between atoms: C_14  and  C_18
REMARK    8  A    between atoms: C_14  and  C_24
REMARK    9  A    between atoms: C_31  and  C_33
REMARK                            x       y       z     vdW  Elec       q    Type
REMARK                         _______ _______ _______ _____ _____    ______ ____
ROOT
ATOM      1  N   UNL     1       3.624  -2.808   3.451  0.00  0.00    -0.216 N 
ATOM      2  C   UNL     1       3.707  -4.062   3.938  0.00  0.00    +0.256 C 
ATOM      3  O   UNL     1       2.875  -4.939   3.848  0.00  0.00    -0.272 OA
ATOM      4  C   UNL     1       5.057  -4.147   4.622  0.00  0.00    +0.164 C 
ATOM      5  N   UNL     1       5.632  -2.806   4.422  0.00  0.00    -0.278 N 
ATOM      6  C   UNL     1       4.725  -2.099   3.724  0.00  0.00    +0.310 C 
ATOM      7  O   UNL     1       4.886  -0.943   3.384  0.00  0.00    -0.252 OA
ATOM      8  H   UNL     1       6.498  -2.495   4.730  0.00  0.00    +0.152 HD
ENDROOT
BRANCH   4   9
ATOM      9  C   UNL     1       4.889  -4.439   6.091  0.00  0.00    -0.011 A 
ATOM     10  C   UNL     1       5.539  -3.658   7.029  0.00  0.00    +0.006 A 
ATOM     11  C   UNL     1       5.385  -3.925   8.376  0.00  0.00    +0.000 A 
ATOM     12  C   UNL     1       4.582  -4.973   8.786  0.00  0.00    +0.000 A 
ATOM     13  C   UNL     1       3.932  -5.753   7.848  0.00  0.00    +0.000 A 
ATOM     14  C   UNL     1       4.082  -5.483   6.501  0.00  0.00    +0.006 A 
ENDBRANCH   4   9
BRANCH   4  15
ATOM     15  C   UNL     1       5.917  -5.197   3.966  0.00  0.00    -0.011 A 
ATOM     16  C   UNL     1       7.213  -4.894   3.593  0.00  0.00    +0.006 A 
ATOM     17  C   UNL     1       8.003  -5.856   2.992  0.00  0.00    +0.000 A 
ATOM     18  C   UNL     1       7.496  -7.122   2.765  0.00  0.00    +0.000 A 
ATOM     19  C   UNL     1       6.200  -7.426   3.139  0.00  0.00    +0.000 A 
ATOM     20  C   UNL     1       5.413  -6.464   3.744  0.00  0.00    +0.006 A 
ENDBRANCH   4  15
BRANCH   1  21
ATOM     21  C   UNL     1       2.474  -2.288   2.708  0.00  0.00    +0.199 C 
BRANCH  21  22
ATOM     22  C   UNL     1       2.666  -2.550   1.236  0.00  0.00    +0.199 C 
ATOM     23  O   UNL     1       3.662  -3.113   0.848  0.00  0.00    -0.289 OA
BRANCH  22  28
ATOM     24  C   UNL     1      -0.424   0.260  -0.832  0.00  0.00    +0.038 C 
ATOM     25  C   UNL     1      -0.226  -1.245  -0.644  0.00  0.00    +0.137 C 
ATOM     26  C   UNL     1       0.612  -1.807  -1.771  0.00  0.00    +0.024 C 
ATOM     27  C   UNL     1       1.718  -2.321  -1.188  0.00  0.00    -0.014 C 
ATOM     28  C   UNL     1       1.633  -2.116   0.265  0.00  0.00    +0.106 C 
ATOM     29  N   UNL     1       0.532  -1.507   0.585  0.00  0.00    -0.272 NA
ATOM     30  C   UNL     1       2.856  -2.994  -1.912  0.00  0.00    +0.046 C 
BRANCH  26  31
ATOM     31  C   UNL     1       0.292  -1.796  -3.198  0.00  0.00    +0.159 C 
ATOM     32  O   UNL     1       1.063  -2.287  -3.996  0.00  0.00    -0.293 OA
ATOM     33  C   UNL     1      -0.996  -1.177  -3.676  0.00  0.00    +0.091 C 
ENDBRANCH  26  31
ENDBRANCH  22  28
ENDBRANCH  21  22
ENDBRANCH   1  21
TORSDOF 6
