REMARK  Name = ZINC39690917
REMARK  5 active torsions:
REMARK  status: ('A' for Active; 'I' for Inactive)
REMARK    1  A    between atoms: C_1  and  C_2
REMARK    2  A    between atoms: C_2  and  C_4
REMARK    3  A    between atoms: C_4  and  N_5
REMARK    4  A    between atoms: C_6  and  C_8
REMARK    5  A    between atoms: C_19  and  C_21
REMARK                            x       y       z     vdW  Elec       q    Type
REMARK                         _______ _______ _______ _____ _____    ______ ____
ROOT
ATOM      1  C   UNL     1      -2.464  -1.722  -3.582  0.00  0.00    +0.100 C 
ATOM      2  C   UNL     1      -3.291  -0.417  -3.598  0.00  0.00    +0.121 C 
ATOM      3  N   UNL     1      -3.335  -0.019  -5.024  0.00  0.00    -0.296 N 
ATOM      4  C   UNL     1      -3.500  -1.296  -5.759  0.00  0.00    +0.115 C 
ATOM      5  C   UNL     1      -2.606  -2.297  -5.001  0.00  0.00    -0.004 C 
ATOM      6  C   UNL     1      -1.239  -2.395  -5.671  0.00  0.00    -0.010 C 
ATOM      7  C   UNL     1      -1.400  -3.023  -7.059  0.00  0.00    -0.082 C 
ATOM      8  N   UNL     1      -2.000  -4.356  -6.928  0.00  0.00    +0.379 N 
ATOM      9  C   UNL     1      -3.352  -4.245  -6.367  0.00  0.00    -0.082 C 
ATOM     10  C   UNL     1      -3.273  -3.669  -4.951  0.00  0.00    -0.010 C 
ATOM     11  C   UNL     1      -3.244   1.224  -5.538  0.00  0.00    +0.249 C 
ATOM     12  O   UNL     1      -3.392   1.400  -6.732  0.00  0.00    -0.270 OA
ATOM     13  H   UNL     1      -2.049  -4.792  -7.837  0.00  0.00    -0.086 HD
ATOM     14  H   UNL     1      -1.429  -4.921  -6.317  0.00  0.00    -0.086 HD
ENDROOT
BRANCH  11  15
ATOM     15  C   UNL     1      -2.966   2.371  -4.651  0.00  0.00    +0.073 A 
ATOM     16  C   UNL     1      -3.483   2.396  -3.354  0.00  0.00    +0.016 A 
ATOM     17  C   UNL     1      -3.220   3.470  -2.530  0.00  0.00    +0.002 A 
ATOM     18  C   UNL     1      -2.445   4.524  -2.985  0.00  0.00    +0.023 A 
ATOM     19  C   UNL     1      -1.929   4.509  -4.268  0.00  0.00    +0.077 A 
ATOM     20  C   UNL     1      -2.181   3.435  -5.104  0.00  0.00    +0.154 A 
ATOM     21  F   UNL     1      -1.673   3.418  -6.356  0.00  0.00    -0.203 F 
ATOM     22 CL   UNL     1      -0.960   5.836  -4.827  0.00  0.00    -0.081 Cl
ENDBRANCH  11  15
BRANCH   1  24
ATOM     23  N   UNL     1      -0.247  -2.354  -2.685  0.00  0.00    -0.311 N 
ATOM     24  C   UNL     1      -1.018  -1.423  -3.280  0.00  0.00    +0.218 C 
ATOM     25  O   UNL     1      -0.548  -0.343  -3.571  0.00  0.00    -0.275 OA
ATOM     26  H   UNL     1      -0.622  -3.218  -2.451  0.00  0.00    +0.149 HD
BRANCH  23  27
ATOM     27  C   UNL     1       1.159  -2.063  -2.391  0.00  0.00    +0.134 C 
BRANCH  27  29
ATOM     28  C   UNL     1       1.671  -3.453  -0.241  0.00  0.00    +0.040 C 
ATOM     29  C   UNL     1       1.792  -3.261  -1.731  0.00  0.00    -0.063 C 
ATOM     30  C   UNL     1       2.449  -4.136  -2.453  0.00  0.00    +0.009 C 
ENDBRANCH  27  29
ENDBRANCH  23  27
ENDBRANCH   1  24
TORSDOF 4
