REMARK  Name = ZINC00855828
REMARK  6 active torsions:
REMARK  status: ('A' for Active; 'I' for Inactive)
REMARK    1  A    between atoms: C_4  and  C_7
REMARK    2  A    between atoms: N_9  and  C_10
REMARK    3  A    between atoms: C_10  and  C_12
REMARK    4  A    between atoms: C_10  and  C_21
REMARK    5  A    between atoms: C_15  and  N_18
REMARK    6  A    between atoms: C_30  and  O_31
REMARK                            x       y       z     vdW  Elec       q    Type
REMARK                         _______ _______ _______ _____ _____    ______ ____
ROOT
ATOM      1  C   UNL     1       6.070  -0.655  -0.147  0.00  0.00    +0.138 C 
ENDROOT
BRANCH   1   2
ATOM      2  C   UNL     1       6.602  -0.965  -1.522  0.00  0.00    +0.026 A 
ATOM      3  C   UNL     1       7.323  -2.149  -1.750  0.00  0.00    -0.009 A 
ATOM      4  C   UNL     1       7.556  -3.071  -0.715  0.00  0.00    +0.009 A 
ATOM      5  C   UNL     1       8.253  -4.211  -0.973  0.00  0.00    +0.001 A 
ATOM      6  C   UNL     1       8.738  -4.482  -2.251  0.00  0.00    +0.001 A 
ATOM      7  C   UNL     1       8.528  -3.614  -3.279  0.00  0.00    +0.008 A 
ATOM      8  C   UNL     1       7.811  -2.427  -3.051  0.00  0.00    -0.017 A 
ATOM      9  C   UNL     1       7.575  -1.508  -4.089  0.00  0.00    +0.012 A 
ATOM     10  C   UNL     1       6.877  -0.369  -3.835  0.00  0.00    +0.046 A 
ATOM     11  C   UNL     1       6.390  -0.095  -2.553  0.00  0.00    +0.123 A 
BRANCH  11  12
ATOM     12  O   UNL     1       5.696   1.052  -2.330  0.00  0.00    -0.506 OA
ATOM     13  H   UNL     1       6.255   1.822  -2.159  0.00  0.00    +0.292 HD
ENDBRANCH  11  12
ENDBRANCH   1   2
BRANCH   1  14
ATOM     14  C   UNL     1       6.948   0.379   0.510  0.00  0.00    -0.023 A 
ATOM     15  C   UNL     1       6.721   1.724   0.282  0.00  0.00    +0.008 A 
ATOM     16  C   UNL     1       7.524   2.672   0.888  0.00  0.00    +0.033 A 
ATOM     17  C   UNL     1       8.560   2.276   1.713  0.00  0.00    +0.126 A 
ATOM     18  C   UNL     1       8.791   0.932   1.936  0.00  0.00    +0.033 A 
ATOM     19  C   UNL     1       7.985  -0.017   1.334  0.00  0.00    +0.008 A 
BRANCH  17  20
ATOM     20  N   UNL     1       9.422   3.292   2.358  0.00  0.00    +0.056 N 
ATOM     21  O   UNL     1      10.336   2.943   3.084  0.00  0.00    -0.126 OA
ATOM     22  O   UNL     1       9.219   4.477   2.162  0.00  0.00    -0.126 OA
ENDBRANCH  17  20
ENDBRANCH   1  14
BRANCH   1  25
ATOM     23  C   UNL     1       3.663  -0.990  -0.325  0.00  0.00    +0.245 C 
ATOM     24  O   UNL     1       3.858  -2.189  -0.296  0.00  0.00    -0.270 OA
ATOM     25  N   UNL     1       4.704  -0.137  -0.257  0.00  0.00    -0.300 N 
ATOM     26  H   UNL     1       4.549   0.821  -0.280  0.00  0.00    +0.150 HD
BRANCH  23  30
ATOM     27  C   UNL     1      -0.297   0.513  -0.643  0.00  0.00    +0.000 A 
ATOM     28  C   UNL     1       0.769   1.391  -0.573  0.00  0.00    +0.001 A 
ATOM     29  C   UNL     1       2.058   0.910  -0.469  0.00  0.00    +0.013 A 
ATOM     30  C   UNL     1       2.285  -0.467  -0.436  0.00  0.00    +0.037 A 
ATOM     31  C   UNL     1       1.204  -1.348  -0.507  0.00  0.00    +0.013 A 
ATOM     32  C   UNL     1      -0.079  -0.853  -0.610  0.00  0.00    +0.001 A 
ENDBRANCH  23  30
ENDBRANCH   1  25
TORSDOF 6
