REMARK  Name = ZINC39698855
REMARK  10 active torsions:
REMARK  status: ('A' for Active; 'I' for Inactive)
REMARK    1  A    between atoms: C_1  and  C_2
REMARK    2  A    between atoms: C_6  and  O_8
REMARK    3  A    between atoms: O_8  and  C_9
REMARK    4  A    between atoms: C_9  and  C_10
REMARK    5  A    between atoms: C_13  and  S_24
REMARK    6  A    between atoms: N_15  and  C_16
REMARK    7  A    between atoms: C_19  and  O_22
REMARK    8  A    between atoms: O_22  and  C_23
REMARK    9  A    between atoms: S_24  and  C_25
REMARK   10  A    between atoms: C_25  and  C_26
REMARK                            x       y       z     vdW  Elec       q    Type
REMARK                         _______ _______ _______ _____ _____    ______ ____
ROOT
ATOM      1  C   UNL     1       0.057  -4.786   3.663  0.00  0.00    +0.160 C 
ATOM      2  N   UNL     1       0.147  -4.087   4.736  0.00  0.00    -0.170 NA
ATOM      3  N   UNL     1       0.170  -4.897   5.878  0.00  0.00    -0.237 N 
ATOM      4  C   UNL     1       0.078  -6.286   5.396  0.00  0.00    +0.241 C 
ATOM      5  N   UNL     1       0.002  -6.145   3.932  0.00  0.00    -0.255 N 
ATOM      6  H   UNL     1       0.233  -4.602   6.800  0.00  0.00    +0.171 HD
ENDROOT
BRANCH   5   7
ATOM      7  C   UNL     1      -0.104  -7.179   2.996  0.00  0.00    +0.038 A 
ATOM      8  C   UNL     1      -0.286  -8.488   3.424  0.00  0.00    +0.027 A 
ATOM      9  C   UNL     1      -0.391  -9.508   2.499  0.00  0.00    +0.047 A 
ATOM     10  C   UNL     1      -0.313  -9.226   1.143  0.00  0.00    +0.120 A 
ATOM     11  C   UNL     1      -0.131  -7.920   0.715  0.00  0.00    +0.047 A 
ATOM     12  C   UNL     1      -0.032  -6.898   1.638  0.00  0.00    +0.027 A 
BRANCH  10  13
ATOM     13  O   UNL     1      -0.416 -10.232   0.233  0.00  0.00    -0.495 OA
ATOM     14  C   UNL     1      -0.327  -9.870  -1.147  0.00  0.00    +0.277 C 
ENDBRANCH  10  13
ENDBRANCH   5   7
BRANCH   1  15
ATOM     15  C   UNL     1       0.011  -4.198   2.276  0.00  0.00    +0.302 C 
BRANCH  15  16
ATOM     16  O   UNL     1      -0.048  -2.773   2.365  0.00  0.00    -0.484 OA
BRANCH  16  22
ATOM     17  C   UNL     1      -0.265   1.506   0.027  0.00  0.00    +0.044 C 
ATOM     18  C   UNL     1      -0.202  -0.000   0.015  0.00  0.00    -0.047 A 
ATOM     19  C   UNL     1      -0.192  -0.682  -1.188  0.00  0.00    +0.003 A 
ATOM     20  C   UNL     1      -0.134  -2.063  -1.203  0.00  0.00    +0.004 A 
ATOM     21  C   UNL     1      -0.086  -2.766  -0.014  0.00  0.00    +0.045 A 
ATOM     22  C   UNL     1      -0.095  -2.084   1.194  0.00  0.00    +0.121 A 
ATOM     23  C   UNL     1      -0.147  -0.698   1.206  0.00  0.00    +0.049 A 
ENDBRANCH  16  22
ENDBRANCH  15  16
ENDBRANCH   1  15
BRANCH   4  24
ATOM     24  S   UNL     1       1.552  -7.227   5.879  0.00  0.00    -0.113 S 
BRANCH  24  25
ATOM     25  C   UNL     1       2.924  -6.308   5.127  0.00  0.00    +0.104 C 
BRANCH  25  26
ATOM     26  C   UNL     1       4.226  -6.992   5.456  0.00  0.00    -0.042 C 
ATOM     27  C   UNL     1       4.797  -7.882   4.595  0.00  0.00    -0.003 A 
ATOM     28  C   UNL     1       4.161  -8.204   3.317  0.00  0.00    +0.010 A 
ATOM     29  C   UNL     1       4.766  -9.096   2.490  0.00  0.00    +0.001 A 
ATOM     30  C   UNL     1       5.972  -9.705   2.837  0.00  0.00    +0.002 A 
ATOM     31  C   UNL     1       6.612  -9.450   4.008  0.00  0.00    +0.024 A 
ATOM     32  C   UNL     1       6.070  -8.540   4.935  0.00  0.00    +0.041 A 
ATOM     33  N   UNL     1       6.707  -8.297   6.080  0.00  0.00    -0.285 N 
ATOM     34  C   UNL     1       6.254  -7.456   6.994  0.00  0.00    +0.221 C 
ATOM     35  O   UNL     1       6.880  -7.275   8.021  0.00  0.00    -0.275 OA
ATOM     36  C   UNL     1       4.958  -6.714   6.754  0.00  0.00    +0.128 C 
ATOM     37  H   UNL     1       7.542  -8.760   6.251  0.00  0.00    +0.155 HD
ENDBRANCH  25  26
ENDBRANCH  24  25
ENDBRANCH   4  24
TORSDOF 8
