REMARK  Name = ZINC36366007
REMARK  5 active torsions:
REMARK  status: ('A' for Active; 'I' for Inactive)
REMARK    1  A    between atoms: C_1  and  O_2
REMARK    2  A    between atoms: O_2  and  C_3
REMARK    3  A    between atoms: C_6  and  C_15
REMARK    4  A    between atoms: C_8  and  O_9
REMARK    5  A    between atoms: O_9  and  C_10
REMARK                            x       y       z     vdW  Elec       q    Type
REMARK                         _______ _______ _______ _____ _____    ______ ____
ROOT
ATOM      1  C   UNL     1      -1.214  -0.652  -0.191  0.00  0.00    +0.162 A 
ATOM      2  C   UNL     1      -2.387   0.086  -0.162  0.00  0.00    +0.050 A 
ATOM      3  C   UNL     1      -3.594  -0.543   0.082  0.00  0.00    +0.008 A 
ATOM      4  C   UNL     1      -3.634  -1.908   0.299  0.00  0.00    -0.035 A 
ATOM      5  C   UNL     1      -2.468  -2.650   0.272  0.00  0.00    +0.053 A 
ATOM      6  C   UNL     1      -1.256  -2.027   0.021  0.00  0.00    +0.163 A 
ENDROOT
BRANCH   4   7
ATOM      7  C   UNL     1      -4.952  -2.589   0.565  0.00  0.00    +0.068 C 
ATOM      8  C   UNL     1      -5.900  -2.364  -0.622  0.00  0.00    +0.109 C 
ATOM      9  C   UNL     1      -6.491  -0.984  -0.575  0.00  0.00    +0.219 C 
ATOM     10  O   UNL     1      -6.654  -0.390  -1.620  0.00  0.00    -0.275 OA
ATOM     11  N   UNL     1      -6.848  -0.374   0.570  0.00  0.00    -0.270 N 
ATOM     12  C   UNL     1      -6.470  -0.965   1.804  0.00  0.00    +0.138 A 
ATOM     13  C   UNL     1      -5.582  -2.004   1.781  0.00  0.00    +0.041 A 
ATOM     14  S   UNL     1      -5.419  -2.411   3.492  0.00  0.00    -0.055 S 
ATOM     15  C   UNL     1      -6.458  -1.230   4.100  0.00  0.00    +0.158 A 
ATOM     16  N   UNL     1      -6.876  -0.604   3.015  0.00  0.00    -0.210 NA
ATOM     17  N   UNL     1      -6.792  -0.976   5.421  0.00  0.00    -0.337 N 
ATOM     18  H   UNL     1      -7.353   0.454   0.553  0.00  0.00    +0.156 HD
ATOM     19  H   UNL     1      -6.410  -1.517   6.130  0.00  0.00    +0.144 HD
ATOM     20  H   UNL     1      -7.408  -0.259   5.636  0.00  0.00    +0.144 HD
ENDBRANCH   4   7
BRANCH   1  22
ATOM     21  C   UNL     1      -0.060   1.378  -0.641  0.00  0.00    +0.277 C 
ATOM     22  O   UNL     1      -0.027  -0.035  -0.432  0.00  0.00    -0.491 OA
ENDBRANCH   1  22
BRANCH   6  23
ATOM     23  O   UNL     1      -0.108  -2.756  -0.012  0.00  0.00    -0.485 OA
BRANCH  23  24
ATOM     24  C   UNL     1      -0.238  -4.175   0.099  0.00  0.00    +0.174 C 
ATOM     25  C   UNL     1      -0.255  -4.590   1.585  0.00  0.00    +0.044 C 
ATOM     26  C   UNL     1       0.531  -5.923   1.616  0.00  0.00    +0.004 C 
ATOM     27  C   UNL     1       1.662  -5.678   0.586  0.00  0.00    +0.004 C 
ATOM     28  C   UNL     1       0.981  -4.867  -0.536  0.00  0.00    +0.044 C 
ENDBRANCH  23  24
ENDBRANCH   6  23
TORSDOF 4
