REMARK  Name = ZINC66241318
REMARK  9 active torsions:
REMARK  status: ('A' for Active; 'I' for Inactive)
REMARK    1  A    between atoms: C_1  and  C_2
REMARK    2  A    between atoms: N_5  and  C_8
REMARK    3  A    between atoms: C_8  and  C_10
REMARK    4  A    between atoms: C_8  and  C_11
REMARK    5  A    between atoms: C_11  and  N_12
REMARK    6  A    between atoms: C_13  and  C_15
REMARK    7  A    between atoms: C_18  and  N_21
REMARK    8  A    between atoms: C_22  and  N_28
REMARK    9  A    between atoms: C_23  and  C_26
REMARK                            x       y       z     vdW  Elec       q    Type
REMARK                         _______ _______ _______ _____ _____    ______ ____
ROOT
ATOM      1  C   UNL     1      -5.131  -3.745  -0.722  0.00  0.00    +0.037 A 
ATOM      2  C   UNL     1      -4.510  -3.128  -1.811  0.00  0.00    +0.015 A 
ATOM      3  C   UNL     1      -5.262  -2.724  -2.892  0.00  0.00    +0.028 A 
ATOM      4  C   UNL     1      -6.638  -2.930  -2.900  0.00  0.00    +0.067 A 
ATOM      5  C   UNL     1      -7.259  -3.543  -1.818  0.00  0.00    +0.028 A 
ATOM      6  C   UNL     1      -6.512  -3.954  -0.736  0.00  0.00    +0.015 A 
ENDROOT
BRANCH   4   7
ATOM      7  N   UNL     1      -7.397  -2.518  -3.998  0.00  0.00    -0.218 N 
ATOM      8  C   UNL     1      -8.494  -3.152  -4.489  0.00  0.00    +0.137 A 
ATOM      9  C   UNL     1      -8.940  -2.409  -5.579  0.00  0.00    +0.111 A 
ATOM     10  C   UNL     1      -8.063  -1.308  -5.717  0.00  0.00    +0.155 A 
ATOM     11  N   UNL     1      -7.162  -1.380  -4.777  0.00  0.00    -0.172 NA
BRANCH   8  12
ATOM     12  N   UNL     1      -9.060  -4.313  -4.000  0.00  0.00    -0.342 N 
ATOM     13  H   UNL     1      -8.669  -4.756  -3.230  0.00  0.00    +0.144 HD
ATOM     14  H   UNL     1      -9.848  -4.686  -4.426  0.00  0.00    +0.144 HD
ENDBRANCH   8  12
BRANCH   9  15
ATOM     15  C   UNL     1     -10.072  -2.704  -6.405  0.00  0.00    +0.104 C 
ATOM     16  N   UNL     1     -10.970  -2.939  -7.060  0.00  0.00    -0.191 NA
ENDBRANCH   9  15
ENDBRANCH   4   7
BRANCH   1  18
ATOM     17  N   UNL     1      -2.996  -3.977   0.450  0.00  0.00    -0.313 N 
ATOM     18  C   UNL     1      -4.328  -4.179   0.438  0.00  0.00    +0.244 C 
ATOM     19  O   UNL     1      -4.869  -4.721   1.383  0.00  0.00    -0.270 OA
ATOM     20  H   UNL     1      -2.564  -3.545  -0.304  0.00  0.00    +0.149 HD
BRANCH  17  21
ATOM     21  C   UNL     1      -2.199  -4.408   1.601  0.00  0.00    +0.089 C 
BRANCH  21  22
ATOM     22  C   UNL     1      -0.753  -3.942   1.424  0.00  0.00    -0.054 C 
ATOM     23  C   UNL     1       0.052  -4.288   2.679  0.00  0.00    -0.012 C 
BRANCH  22  28
ATOM     24  C   UNL     1       0.082   1.699   1.509  0.00  0.00    +0.007 C 
ATOM     25  C   UNL     1       0.143   0.204   1.830  0.00  0.00    -0.018 C 
ATOM     26  C   UNL     1       0.659  -0.561   0.609  0.00  0.00    -0.016 C 
ATOM     27  C   UNL     1       0.642  -2.062   0.909  0.00  0.00    -0.078 C 
ATOM     28  N   UNL     1      -0.729  -2.488   1.213  0.00  0.00    +0.382 N 
ATOM     29  C   UNL     1      -1.204  -1.811   2.425  0.00  0.00    -0.078 C 
ATOM     30  C   UNL     1      -1.259  -0.301   2.183  0.00  0.00    -0.016 C 
ATOM     31  H   UNL     1      -1.333  -2.253   0.439  0.00  0.00    -0.081 HD
ENDBRANCH  22  28
ENDBRANCH  21  22
ENDBRANCH  17  21
ENDBRANCH   1  18
TORSDOF 7
