REMARK  Name = ZINC59501784
REMARK  9 active torsions:
REMARK  status: ('A' for Active; 'I' for Inactive)
REMARK    1  A    between atoms: C_1  and  C_2
REMARK    2  A    between atoms: C_6  and  O_8
REMARK    3  A    between atoms: O_8  and  C_9
REMARK    4  A    between atoms: C_9  and  C_10
REMARK    5  A    between atoms: C_10  and  N_11
REMARK    6  A    between atoms: C_12  and  C_24
REMARK    7  A    between atoms: N_13  and  N_14
REMARK    8  A    between atoms: N_14  and  C_15
REMARK    9  A    between atoms: C_18  and  N_21
REMARK                            x       y       z     vdW  Elec       q    Type
REMARK                         _______ _______ _______ _____ _____    ______ ____
ROOT
ATOM      1  N   UNL     1      -1.242  -4.651   4.299  0.00  0.00    -0.326 N 
ATOM      2  C   UNL     1      -1.341  -4.761   5.635  0.00  0.00    +0.117 C 
ATOM      3  N   UNL     1      -0.257  -5.150   6.372  0.00  0.00    -0.293 N 
ATOM      4  H   UNL     1      -0.382  -4.770   3.865  0.00  0.00    +0.148 HD
ATOM      5  H   UNL     1      -0.341  -5.274   7.330  0.00  0.00    +0.186 HD
ENDROOT
BRANCH   2   6
ATOM      6  C   UNL     1      -2.610  -4.466   6.300  0.00  0.00    +0.014 A 
ATOM      7  C   UNL     1      -3.294  -3.269   6.022  0.00  0.00    +0.011 A 
ATOM      8  C   UNL     1      -4.483  -3.002   6.651  0.00  0.00    +0.001 A 
ATOM      9  C   UNL     1      -5.011  -3.908   7.559  0.00  0.00    +0.000 A 
ATOM     10  C   UNL     1      -4.344  -5.091   7.842  0.00  0.00    +0.001 A 
ATOM     11  C   UNL     1      -3.157  -5.381   7.220  0.00  0.00    +0.011 A 
ENDBRANCH   2   6
BRANCH   3  12
ATOM     12  N   UNL     1       0.878  -5.352   5.792  0.00  0.00    -0.259 N 
ATOM     13  H   UNL     1       0.975  -5.180   4.843  0.00  0.00    +0.172 HD
BRANCH  12  14
ATOM     14  C   UNL     1       1.947  -5.809   6.519  0.00  0.00    +0.046 A 
ATOM     15  C   UNL     1       1.810  -6.063   7.889  0.00  0.00    +0.027 A 
ATOM     16  C   UNL     1       2.889  -6.521   8.612  0.00  0.00    +0.034 A 
ATOM     17  C   UNL     1       4.108  -6.731   7.987  0.00  0.00    +0.126 A 
ATOM     18  C   UNL     1       4.252  -6.482   6.631  0.00  0.00    +0.034 A 
ATOM     19  C   UNL     1       3.181  -6.029   5.893  0.00  0.00    +0.027 A 
BRANCH  17  20
ATOM     20  N   UNL     1       5.263  -7.223   8.772  0.00  0.00    +0.056 N 
ATOM     21  O   UNL     1       5.130  -7.461  10.060  0.00  0.00    -0.126 OA
ATOM     22  O   UNL     1       6.423  -7.424   8.181  0.00  0.00    -0.126 OA
ENDBRANCH  17  20
ENDBRANCH  12  14
ENDBRANCH   3  12
BRANCH   1  23
ATOM     23  C   UNL     1      -2.431  -4.351   3.498  0.00  0.00    +0.144 C 
BRANCH  23  24
ATOM     24  C   UNL     1      -2.076  -4.420   2.012  0.00  0.00    +0.247 C 
BRANCH  24  25
ATOM     25  O   UNL     1      -1.718  -5.761   1.669  0.00  0.00    -0.490 OA
BRANCH  25  31
ATOM     26  C   UNL     1      -0.273  -8.900  -1.777  0.00  0.00    +0.044 C 
ATOM     27  C   UNL     1      -0.663  -7.511  -1.340  0.00  0.00    -0.047 A 
ATOM     28  C   UNL     1      -0.669  -6.475  -2.256  0.00  0.00    +0.003 A 
ATOM     29  C   UNL     1      -1.026  -5.200  -1.858  0.00  0.00    +0.004 A 
ATOM     30  C   UNL     1      -1.378  -4.958  -0.544  0.00  0.00    +0.045 A 
ATOM     31  C   UNL     1      -1.373  -5.996   0.377  0.00  0.00    +0.121 A 
ATOM     32  C   UNL     1      -1.019  -7.276  -0.027  0.00  0.00    +0.049 A 
ENDBRANCH  25  31
ENDBRANCH  24  25
ENDBRANCH  23  24
ENDBRANCH   1  23
TORSDOF 8
