REMARK  Name = ZINC48999684
REMARK  5 active torsions:
REMARK  status: ('A' for Active; 'I' for Inactive)
REMARK    1  A    between atoms: C_1  and  C_2
REMARK    2  A    between atoms: C_2  and  C_4
REMARK    3  A    between atoms: C_2  and  N_10
REMARK    4  A    between atoms: N_10  and  C_11
REMARK    5  A    between atoms: C_14  and  N_16
REMARK                            x       y       z     vdW  Elec       q    Type
REMARK                         _______ _______ _______ _____ _____    ______ ____
ROOT
ATOM      1  N   UNL     1       0.688  -0.476  -1.203  0.00  0.00    -0.331 N 
ATOM      2  H   UNL     1       0.175  -0.710  -1.993  0.00  0.00    +0.147 HD
ENDROOT
BRANCH   1   3
ATOM      3  C   UNL     1       2.079  -0.591  -1.215  0.00  0.00    +0.068 A 
ATOM      4  C   UNL     1       2.898  -1.000  -2.224  0.00  0.00    +0.033 A 
ATOM      5  C   UNL     1       4.263  -1.033  -2.003  0.00  0.00    +0.042 A 
ATOM      6  C   UNL     1       4.743  -0.658  -0.793  0.00  0.00    +0.165 A 
ATOM      7  S   UNL     1       3.248  -0.232   0.085  0.00  0.00    -0.050 S 
BRANCH   6   8
ATOM      8  N   UNL     1       6.147  -0.609  -0.322  0.00  0.00    +0.063 N 
ATOM      9  O   UNL     1       7.045  -0.934  -1.063  0.00  0.00    -0.126 OA
ATOM     10  O   UNL     1       6.394  -0.245   0.804  0.00  0.00    -0.126 OA
ENDBRANCH   6   8
ENDBRANCH   1   3
BRANCH   1  12
ATOM     11  C   UNL     1      -0.019   1.526   0.010  0.00  0.00    +0.033 C 
ATOM     12  C   UNL     1       0.002  -0.004   0.002  0.00  0.00    +0.105 C 
BRANCH  12  13
ATOM     13  C   UNL     1      -1.412  -0.526   0.013  0.00  0.00    +0.011 A 
ATOM     14  C   UNL     1      -2.141  -0.993   1.055  0.00  0.00    +0.014 A 
ATOM     15  C   UNL     1      -3.435  -1.425   0.828  0.00  0.00    +0.028 A 
ATOM     16  C   UNL     1      -3.935  -1.368  -0.431  0.00  0.00    +0.078 A 
ATOM     17  S   UNL     1      -2.563  -0.681  -1.343  0.00  0.00    -0.080 S 
ATOM     18 CL   UNL     1      -5.505  -1.836  -1.006  0.00  0.00    -0.076 Cl
ENDBRANCH  12  13
ENDBRANCH   1  12
TORSDOF 4
