REMARK  Name = ZINC09292477
REMARK  7 active torsions:
REMARK  status: ('A' for Active; 'I' for Inactive)
REMARK    1  A    between atoms: C_1  and  C_2
REMARK    2  A    between atoms: C_2  and  O_3
REMARK    3  A    between atoms: O_3  and  C_4
REMARK    4  A    between atoms: C_7  and  C_10
REMARK    5  A    between atoms: C_13  and  N_16
REMARK    6  A    between atoms: N_16  and  S_17
REMARK    7  A    between atoms: S_17  and  C_20
REMARK                            x       y       z     vdW  Elec       q    Type
REMARK                         _______ _______ _______ _____ _____    ______ ____
ROOT
ATOM      1  C   UNL     1       4.114  -1.928  -4.277  0.00  0.00    +0.002 A 
ATOM      2  C   UNL     1       3.463  -3.159  -4.352  0.00  0.00    +0.012 A 
ATOM      3  C   UNL     1       2.470  -3.468  -3.447  0.00  0.00    +0.025 A 
ATOM      4  C   UNL     1       2.117  -2.554  -2.460  0.00  0.00    +0.048 A 
ATOM      5  C   UNL     1       2.762  -1.324  -2.387  0.00  0.00    +0.025 A 
ATOM      6  C   UNL     1       3.759  -1.013  -3.286  0.00  0.00    +0.012 A 
ENDROOT
BRANCH   1  10
ATOM      7  C   UNL     1       7.110  -1.071  -7.056  0.00  0.00    +0.234 A 
ATOM      8  C   UNL     1       6.827  -0.093  -6.104  0.00  0.00    +0.071 A 
ATOM      9  C   UNL     1       5.837  -0.358  -5.175  0.00  0.00    +0.035 A 
ATOM     10  C   UNL     1       5.182  -1.593  -5.249  0.00  0.00    +0.094 A 
ATOM     11  N   UNL     1       5.524  -2.464  -6.188  0.00  0.00    -0.146 NA
ATOM     12  N   UNL     1       6.440  -2.212  -7.052  0.00  0.00    -0.111 NA
BRANCH   7  13
ATOM     13  O   UNL     1       8.074  -0.853  -7.987  0.00  0.00    -0.476 OA
BRANCH  13  15
ATOM     14  C   UNL     1       9.423  -1.475  -9.893  0.00  0.00    +0.048 C 
ATOM     15  C   UNL     1       8.311  -1.899  -8.932  0.00  0.00    +0.227 C 
ENDBRANCH  13  15
ENDBRANCH   7  13
ENDBRANCH   1  10
BRANCH   4  16
ATOM     16  N   UNL     1       1.112  -2.869  -1.546  0.00  0.00    -0.216 N 
ATOM     17  H   UNL     1       0.239  -2.453  -1.622  0.00  0.00    +0.174 HD
BRANCH  16  18
ATOM     18  S   UNL     1       1.409  -3.954  -0.330  0.00  0.00    +0.072 S 
ATOM     19  O   UNL     1       1.973  -5.106  -0.943  0.00  0.00    -0.150 OA
ATOM     20  O   UNL     1       0.229  -4.012   0.459  0.00  0.00    -0.150 OA
BRANCH  18  21
ATOM     21  C   UNL     1       2.665  -3.260   0.692  0.00  0.00    +0.109 A 
ATOM     22  C   UNL     1       2.327  -2.376   1.698  0.00  0.00    +0.030 A 
ATOM     23  C   UNL     1       3.312  -1.831   2.501  0.00  0.00    +0.016 A 
ATOM     24  C   UNL     1       4.637  -2.172   2.296  0.00  0.00    +0.013 A 
ATOM     25  C   UNL     1       4.975  -3.057   1.289  0.00  0.00    +0.016 A 
ATOM     26  C   UNL     1       3.989  -3.601   0.487  0.00  0.00    +0.030 A 
ATOM     27  I   UNL     1       6.130  -1.347   3.511  0.00  0.00    -0.044 I 
ENDBRANCH  18  21
ENDBRANCH  16  18
ENDBRANCH   4  16
TORSDOF 6
