REMARK  Name = ZINC64019299
REMARK  5 active torsions:
REMARK  status: ('A' for Active; 'I' for Inactive)
REMARK    1  A    between atoms: C_1  and  C_2
REMARK    2  A    between atoms: C_7  and  N_8
REMARK    3  A    between atoms: C_9  and  O_33
REMARK    4  A    between atoms: C_12  and  O_32
REMARK    5  A    between atoms: C_13  and  C_17
REMARK                            x       y       z     vdW  Elec       q    Type
REMARK                         _______ _______ _______ _____ _____    ______ ____
ROOT
ATOM      1  N   UNL     1       0.025  -0.015   2.417  0.00  0.00    -0.225 N 
ATOM      2  C   UNL     1      -1.250   0.308   3.040  0.00  0.00    +0.338 C 
ATOM      3  N   UNL     1      -1.113   0.580   4.461  0.00  0.00    -0.204 NA
ATOM      4  C   UNL     1      -0.016   0.907   5.026  0.00  0.00    +0.200 C 
ATOM      5  C   UNL     1       1.277   1.047   4.277  0.00  0.00    +0.179 C 
ATOM      6  C   UNL     1       1.201   0.319   2.965  0.00  0.00    +0.237 C 
ATOM      7  O   UNL     1       2.227   0.030   2.387  0.00  0.00    -0.274 OA
ENDROOT
BRANCH   5   8
ATOM      8  C   UNL     1       1.554   2.530   4.018  0.00  0.00    +0.101 C 
ATOM      9  C   UNL     1       1.764   3.255   5.350  0.00  0.00    +0.124 C 
ATOM     10  C   UNL     1       1.862   4.739   5.016  0.00  0.00    -0.036 C 
ATOM     11  C   UNL     1       2.998   5.169   5.547  0.00  0.00    -0.001 A 
ATOM     12  C   UNL     1       3.595   6.512   5.633  0.00  0.00    +0.010 A 
ATOM     13  C   UNL     1       4.804   6.592   6.248  0.00  0.00    +0.001 A 
ATOM     14  C   UNL     1       5.472   5.484   6.779  0.00  0.00    +0.002 A 
ATOM     15  C   UNL     1       4.995   4.214   6.750  0.00  0.00    +0.026 A 
ATOM     16  C   UNL     1       3.727   4.003   6.134  0.00  0.00    +0.043 A 
ATOM     17  N   UNL     1       3.027   2.894   5.993  0.00  0.00    -0.376 N 
ATOM     18  C   UNL     1       0.834   5.425   4.149  0.00  0.00    +0.048 C 
ATOM     19  C   UNL     1       0.640   4.522   2.916  0.00  0.00    +0.085 C 
ATOM     20  N   UNL     1       0.401   3.138   3.336  0.00  0.00    -0.310 NA
ATOM     21  H   UNL     1       0.100   2.571   2.558  0.00  0.00    +0.122 HD
ATOM     22  H   UNL     1       3.293   2.001   6.260  0.00  0.00    +0.160 HD
ENDBRANCH   5   8
BRANCH   1  29
ATOM     23  C   UNL     1      -0.018   1.503   0.010  0.00  0.00    +0.045 C 
ATOM     24  C   UNL     1       0.002  -0.004   0.002  0.00  0.00    -0.029 A 
ATOM     25  C   UNL     1       0.006  -0.689  -1.198  0.00  0.00    +0.005 A 
ATOM     26  C   UNL     1       0.025  -2.071  -1.206  0.00  0.00    +0.000 A 
ATOM     27  C   UNL     1       0.040  -2.773  -0.014  0.00  0.00    +0.002 A 
ATOM     28  C   UNL     1       0.037  -2.094   1.188  0.00  0.00    +0.024 A 
ATOM     29  C   UNL     1       0.023  -0.706   1.200  0.00  0.00    +0.043 A 
ENDBRANCH   1  29
BRANCH   4  30
ATOM     30  O   UNL     1      -0.019   1.138   6.355  0.00  0.00    -0.495 OA
ATOM     31  H   UNL     1      -0.885   1.029   6.771  0.00  0.00    +0.293 HD
ENDBRANCH   4  30
BRANCH   2  32
ATOM     32  O   UNL     1      -2.144  -0.793   2.864  0.00  0.00    -0.356 OA
ATOM     33  H   UNL     1      -3.019  -0.656   3.253  0.00  0.00    +0.214 HD
ENDBRANCH   2  32
TORSDOF 4
