REMARK  Name = ZINC32652119
REMARK  5 active torsions:
REMARK  status: ('A' for Active; 'I' for Inactive)
REMARK    1  A    between atoms: C_1  and  C_2
REMARK    2  A    between atoms: C_8  and  N_10
REMARK    3  A    between atoms: C_14  and  C_16
REMARK    4  A    between atoms: C_16  and  N_17
REMARK    5  A    between atoms: C_20  and  C_23
REMARK                            x       y       z     vdW  Elec       q    Type
REMARK                         _______ _______ _______ _____ _____    ______ ____
ROOT
ATOM      1  N   UNL     1      -2.142  -0.048  -1.174  0.00  0.00    -0.296 N 
ATOM      2  C   UNL     1      -3.485   0.062  -1.159  0.00  0.00    +0.306 C 
ATOM      3  O   UNL     1      -4.108  -0.241  -0.160  0.00  0.00    -0.252 OA
ATOM      4  N   UNL     1      -4.137   0.509  -2.251  0.00  0.00    -0.242 N 
ATOM      5  C   UNL     1      -5.480   0.619  -2.236  0.00  0.00    +0.204 C 
ATOM      6  O   UNL     1      -6.102   0.317  -1.240  0.00  0.00    -0.277 OA
ATOM      7  H   UNL     1      -1.578   0.226  -2.078  0.00  0.00    +0.151 HD
ATOM      8  H   UNL     1      -3.573   0.783  -3.154  0.00  0.00    +0.159 HD
ENDROOT
BRANCH   1  15
ATOM      9  C   UNL     1      -0.019   1.526   0.010  0.00  0.00    +0.009 C 
ATOM     10  C   UNL     1       0.002  -0.004   0.002  0.00  0.00    +0.006 C 
ATOM     11  C   UNL     1       0.742  -0.511   1.242  0.00  0.00    +0.005 C 
ATOM     12  C   UNL     1       0.763  -2.041   1.233  0.00  0.00    +0.000 C 
ATOM     13  C   UNL     1      -0.673  -2.570   1.244  0.00  0.00    +0.002 C 
ATOM     14  C   UNL     1      -1.413  -2.063   0.004  0.00  0.00    +0.022 C 
ATOM     15  C   UNL     1      -1.433  -0.534   0.013  0.00  0.00    +0.077 C 
ENDBRANCH   1  15
BRANCH   5  16
ATOM     16  C   UNL     1      -6.209   1.118  -3.456  0.00  0.00    +0.019 C 
BRANCH  16  17
ATOM     17  N   UNL     1      -7.653   1.147  -3.187  0.00  0.00    +0.385 N 
ATOM     18  C   UNL     1      -8.178  -0.210  -2.991  0.00  0.00    -0.077 C 
ATOM     19  C   UNL     1      -9.648  -0.134  -2.571  0.00  0.00    -0.006 C 
ATOM     20  C   UNL     1     -10.447   0.591  -3.657  0.00  0.00    +0.071 C 
ATOM     21  C   UNL     1      -9.850   1.983  -3.876  0.00  0.00    -0.006 C 
ATOM     22  C   UNL     1      -8.374   1.845  -4.258  0.00  0.00    -0.077 C 
ATOM     23  H   UNL     1      -7.813   1.707  -2.254  0.00  0.00    -0.081 HD
BRANCH  20  24
ATOM     24  C   UNL     1     -11.884   0.722  -3.222  0.00  0.00    +0.213 C 
ATOM     25  O   UNL     1     -12.382   1.821  -3.099  0.00  0.00    -0.276 OA
ATOM     26  N   UNL     1     -12.615  -0.382  -2.970  0.00  0.00    -0.329 N 
ATOM     27  H   UNL     1     -13.664  -0.286  -2.652  0.00  0.00    +0.145 HD
ATOM     28  H   UNL     1     -12.163  -1.378  -3.081  0.00  0.00    +0.145 HD
ENDBRANCH  20  24
ENDBRANCH  16  17
ENDBRANCH   5  16
TORSDOF 4
