REMARK  Name = ZINC38960033
REMARK  4 active torsions:
REMARK  status: ('A' for Active; 'I' for Inactive)
REMARK    1  A    between atoms: C_10  and  N_11
REMARK    2  A    between atoms: C_12  and  S_37
REMARK    3  A    between atoms: C_15  and  O_36
REMARK    4  A    between atoms: C_17  and  C_21
REMARK                            x       y       z     vdW  Elec       q    Type
REMARK                         _______ _______ _______ _____ _____    ______ ____
ROOT
ATOM      1  N   UNL     1       4.862  -0.041  -0.189  0.00  0.00    -0.245 N 
ATOM      2  C   UNL     1       5.353   0.331   1.133  0.00  0.00    +0.208 C 
ATOM      3  N   UNL     1       6.754   0.763   1.061  0.00  0.00    -0.264 NA
ATOM      4  C   UNL     1       6.918   1.806   0.036  0.00  0.00    +0.198 C 
ATOM      5  C   UNL     1       6.709   1.169  -1.341  0.00  0.00    +0.141 C 
ATOM      6  C   UNL     1       5.455   0.339  -1.325  0.00  0.00    +0.230 C 
ATOM      7  O   UNL     1       4.961   0.006  -2.382  0.00  0.00    -0.275 OA
ATOM      8  H   UNL     1       7.080   1.085   1.960  0.00  0.00    +0.127 HD
ENDROOT
BRANCH   5   9
ATOM      9  C   UNL     1       6.585   2.268  -2.398  0.00  0.00    +0.117 C 
ATOM     10  C   UNL     1       7.889   3.022  -2.502  0.00  0.00    +0.038 A 
ATOM     11  H   UNL     1       9.362   1.548  -2.481  0.00  0.00    +0.166 HD
ATOM     12  C   UNL     1       7.956   4.371  -2.585  0.00  0.00    -0.016 A 
ATOM     13  C   UNL     1       9.356   4.725  -2.668  0.00  0.00    +0.003 A 
ATOM     14  C   UNL     1      10.021   5.950  -2.770  0.00  0.00    +0.010 A 
ATOM     15  C   UNL     1      11.393   5.909  -2.828  0.00  0.00    +0.001 A 
ATOM     16  C   UNL     1      12.095   4.716  -2.787  0.00  0.00    +0.002 A 
ATOM     17  C   UNL     1      11.462   3.489  -2.687  0.00  0.00    +0.026 A 
ATOM     18  C   UNL     1      10.071   3.499  -2.627  0.00  0.00    +0.047 A 
ATOM     19  N   UNL     1       9.152   2.494  -2.527  0.00  0.00    -0.356 N 
ATOM     20  C   UNL     1       6.742   5.265  -2.588  0.00  0.00    +0.052 C 
ATOM     21  C   UNL     1       5.513   4.395  -2.881  0.00  0.00    +0.086 C 
ATOM     22  N   UNL     1       5.525   3.212  -2.007  0.00  0.00    -0.307 NA
ATOM     23  H   UNL     1       4.624   2.759  -1.994  0.00  0.00    +0.123 HD
ENDBRANCH   5   9
BRANCH   1  33
ATOM     24  C   UNL     1      -0.093   0.875  -0.482  0.00  0.00    +0.001 A 
ATOM     25  C   UNL     1       1.035   1.689  -0.399  0.00  0.00    +0.001 A 
ATOM     26  C   UNL     1       2.284   1.151  -0.330  0.00  0.00    +0.010 A 
ATOM     27  C   UNL     1       2.441  -0.244  -0.342  0.00  0.00    +0.004 A 
ATOM     28  C   UNL     1       1.294  -1.073  -0.426  0.00  0.00    -0.016 A 
ATOM     29  C   UNL     1       0.021  -0.481  -0.496  0.00  0.00    +0.008 A 
ATOM     30  C   UNL     1       1.450  -2.469  -0.437  0.00  0.00    +0.008 A 
ATOM     31  C   UNL     1       2.695  -3.015  -0.368  0.00  0.00    +0.002 A 
ATOM     32  C   UNL     1       3.828  -2.212  -0.285  0.00  0.00    +0.024 A 
ATOM     33  C   UNL     1       3.719  -0.838  -0.271  0.00  0.00    +0.046 A 
ENDBRANCH   1  33
BRANCH   4  34
ATOM     34  O   UNL     1       8.233   2.359   0.120  0.00  0.00    -0.376 OA
ATOM     35  H   UNL     1       8.435   2.766   0.974  0.00  0.00    +0.211 HD
ENDBRANCH   4  34
BRANCH   2  36
ATOM     36  S   UNL     1       5.226  -1.099   2.243  0.00  0.00    -0.140 S 
ATOM     37  H   UNL     1       5.700  -0.644   3.416  0.00  0.00    +0.105 HD
ENDBRANCH   2  36
TORSDOF 4
