REMARK  Name = ZINC02030725
REMARK  9 active torsions:
REMARK  status: ('A' for Active; 'I' for Inactive)
REMARK    1  A    between atoms: C_1  and  C_2
REMARK    2  A    between atoms: C_2  and  C_4
REMARK    3  A    between atoms: C_2  and  N_31
REMARK    4  A    between atoms: N_6  and  C_7
REMARK    5  A    between atoms: C_7  and  C_9
REMARK    6  A    between atoms: C_7  and  C_15
REMARK    7  A    between atoms: N_17  and  C_18
REMARK    8  A    between atoms: C_18  and  C_19
REMARK    9  A    between atoms: C_18  and  C_25
REMARK                            x       y       z     vdW  Elec       q    Type
REMARK                         _______ _______ _______ _____ _____    ______ ____
ROOT
ATOM      1  C   UNL     1      -2.449   1.117   0.020  0.00  0.00    +0.190 C 
ENDROOT
BRANCH   1   2
ATOM      2  C   UNL     1      -2.824   0.761  -1.396  0.00  0.00    -0.018 A 
ATOM      3  C   UNL     1      -2.639   1.680  -2.412  0.00  0.00    +0.006 A 
ATOM      4  C   UNL     1      -2.979   1.352  -3.711  0.00  0.00    +0.000 A 
ATOM      5  C   UNL     1      -3.512   0.109  -3.993  0.00  0.00    +0.000 A 
ATOM      6  C   UNL     1      -3.703  -0.808  -2.976  0.00  0.00    +0.000 A 
ATOM      7  C   UNL     1      -3.359  -0.482  -1.678  0.00  0.00    +0.006 A 
ENDBRANCH   1   2
BRANCH   1  10
ATOM      8  C   UNL     1      -0.014   1.209   0.009  0.00  0.00    +0.235 C 
ATOM      9  O   UNL     1       0.002  -0.004   0.002  0.00  0.00    -0.274 OA
ATOM     10  N   UNL     1      -1.191   1.867   0.018  0.00  0.00    -0.299 N 
ATOM     11  H   UNL     1      -1.204   2.837   0.023  0.00  0.00    +0.150 HD
BRANCH   8  13
ATOM     12  C   UNL     1       1.337   2.867  -1.245  0.00  0.00    +0.038 C 
ATOM     13  C   UNL     1       1.280   1.980   0.001  0.00  0.00    +0.167 C 
BRANCH  13  14
ATOM     14  N   UNL     1       2.407   1.043  -0.015  0.00  0.00    -0.222 N 
ATOM     15  C   UNL     1       2.625   0.131  -0.980  0.00  0.00    +0.254 C 
ATOM     16  O   UNL     1       1.930  -0.043  -1.961  0.00  0.00    -0.270 OA
ATOM     17  C   UNL     1       3.853  -0.621  -0.648  0.00  0.00    +0.049 A 
ATOM     18  C   UNL     1       4.551  -1.652  -1.256  0.00  0.00    +0.014 A 
ATOM     19  C   UNL     1       5.699  -2.150  -0.661  0.00  0.00    +0.001 A 
ATOM     20  C   UNL     1       6.153  -1.624   0.534  0.00  0.00    +0.001 A 
ATOM     21  C   UNL     1       5.465  -0.593   1.155  0.00  0.00    +0.014 A 
ATOM     22  C   UNL     1       4.316  -0.086   0.571  0.00  0.00    +0.049 A 
ATOM     23  C   UNL     1       3.356   0.978   0.936  0.00  0.00    +0.254 C 
ATOM     24  O   UNL     1       3.414   1.675   1.928  0.00  0.00    -0.270 OA
ENDBRANCH  13  14
ENDBRANCH   8  13
ENDBRANCH   1  10
BRANCH   1  25
ATOM     25  C   UNL     1      -3.537   1.963   0.630  0.00  0.00    +0.239 C 
ATOM     26  O   UNL     1      -3.285   3.082   1.024  0.00  0.00    -0.273 OA
ATOM     27  N   UNL     1      -4.789   1.476   0.737  0.00  0.00    -0.303 N 
ATOM     28  H   UNL     1      -4.990   0.581   0.422  0.00  0.00    +0.150 HD
BRANCH  27  29
ATOM     29  C   UNL     1      -5.846   2.298   1.331  0.00  0.00    +0.134 C 
BRANCH  29  30
ATOM     30  C   UNL     1      -7.186   1.847   0.809  0.00  0.00    -0.023 A 
ATOM     31  C   UNL     1      -7.444   0.499   0.642  0.00  0.00    +0.006 A 
ATOM     32  C   UNL     1      -8.675   0.085   0.168  0.00  0.00    +0.000 A 
ATOM     33  C   UNL     1      -9.644   1.019  -0.148  0.00  0.00    +0.000 A 
ATOM     34  C   UNL     1      -9.384   2.367   0.013  0.00  0.00    +0.000 A 
ATOM     35  C   UNL     1      -8.155   2.781   0.492  0.00  0.00    +0.006 A 
ENDBRANCH  29  30
BRANCH  29  36
ATOM     36  C   UNL     1      -5.816   2.151   2.830  0.00  0.00    -0.023 A 
ATOM     37  C   UNL     1      -5.587   0.912   3.398  0.00  0.00    +0.006 A 
ATOM     38  C   UNL     1      -5.553   0.778   4.774  0.00  0.00    +0.000 A 
ATOM     39  C   UNL     1      -5.759   1.881   5.581  0.00  0.00    +0.000 A 
ATOM     40  C   UNL     1      -5.994   3.119   5.013  0.00  0.00    +0.000 A 
ATOM     41  C   UNL     1      -6.022   3.255   3.637  0.00  0.00    +0.006 A 
ENDBRANCH  29  36
ENDBRANCH  27  29
ENDBRANCH   1  25
TORSDOF 8
