REMARK  Name = ZINC64636519
REMARK  13 active torsions:
REMARK  status: ('A' for Active; 'I' for Inactive)
REMARK    1  A    between atoms: C_1  and  C_2
REMARK    2  A    between atoms: C_2  and  C_3
REMARK    3  A    between atoms: C_2  and  C_4
REMARK    4  A    between atoms: C_4  and  C_5
REMARK    5  A    between atoms: C_10  and  N_30
REMARK    6  A    between atoms: C_12  and  C_16
REMARK    7  A    between atoms: N_14  and  C_15
REMARK    8  A    between atoms: N_18  and  C_19
REMARK    9  A    between atoms: C_19  and  C_20
REMARK   10  A    between atoms: N_30  and  S_31
REMARK   11  A    between atoms: S_31  and  N_34
REMARK   12  A    between atoms: N_34  and  C_35
REMARK   13  A    between atoms: N_34  and  C_36
REMARK                            x       y       z     vdW  Elec       q    Type
REMARK                         _______ _______ _______ _____ _____    ______ ____
ROOT
ATOM      1  C   UNL     1      -2.681   0.814  -1.310  0.00  0.00    +0.158 C 
ATOM      2  N   UNL     1      -1.775   0.025  -2.154  0.00  0.00    -0.324 N 
ATOM      3  C   UNL     1      -2.545  -0.973  -2.768  0.00  0.00    +0.052 A 
ATOM      4  C   UNL     1      -2.176  -1.975  -3.656  0.00  0.00    +0.049 A 
ATOM      5  C   UNL     1      -3.123  -2.867  -4.144  0.00  0.00    +0.052 A 
ATOM      6  C   UNL     1      -4.445  -2.764  -3.749  0.00  0.00    +0.039 A 
ATOM      7  C   UNL     1      -4.829  -1.760  -2.856  0.00  0.00    +0.061 A 
ATOM      8  C   UNL     1      -3.872  -0.859  -2.363  0.00  0.00    +0.064 A 
ATOM      9  N   UNL     1      -4.009   0.212  -1.477  0.00  0.00    -0.313 N 
ATOM     10  C   UNL     1      -5.248   0.654  -0.832  0.00  0.00    +0.131 C 
ATOM     11  H   UNL     1      -0.823   0.168  -2.266  0.00  0.00    +0.148 HD
ENDROOT
BRANCH   7  12
ATOM     12  C   UNL     1      -6.237  -1.647  -2.433  0.00  0.00    +0.246 C 
ATOM     13  O   UNL     1      -6.804  -0.573  -2.487  0.00  0.00    -0.270 OA
ATOM     14  N   UNL     1      -6.896  -2.735  -1.986  0.00  0.00    -0.309 N 
ATOM     15  H   UNL     1      -6.471  -3.606  -2.018  0.00  0.00    +0.149 HD
BRANCH  14  16
ATOM     16  C   UNL     1      -8.254  -2.601  -1.453  0.00  0.00    +0.133 C 
BRANCH  16  17
ATOM     17  C   UNL     1      -8.720  -3.950  -0.901  0.00  0.00    +0.120 C 
ATOM     18  C   UNL     1     -10.038  -3.789  -0.177  0.00  0.00    +0.009 C 
ATOM     19  C   UNL     1      -9.811  -4.164   1.102  0.00  0.00    -0.004 A 
ATOM     20  C   UNL     1     -10.676  -4.233   2.286  0.00  0.00    +0.010 A 
ATOM     21  C   UNL     1     -10.151  -4.657   3.458  0.00  0.00    +0.001 A 
ATOM     22  C   UNL     1      -8.805  -5.032   3.570  0.00  0.00    +0.002 A 
ATOM     23  C   UNL     1      -7.948  -4.995   2.527  0.00  0.00    +0.026 A 
ATOM     24  C   UNL     1      -8.393  -4.565   1.247  0.00  0.00    +0.043 A 
ATOM     25  N   UNL     1      -7.768  -4.443   0.099  0.00  0.00    -0.376 N 
ATOM     26  H   UNL     1      -6.832  -4.646  -0.061  0.00  0.00    +0.160 HD
ENDBRANCH  16  17
ENDBRANCH  14  16
ENDBRANCH   7  12
BRANCH   5  27
ATOM     27  N   UNL     1      -2.738  -3.872  -5.039  0.00  0.00    -0.206 N 
ATOM     28  H   UNL     1      -2.240  -4.641  -4.720  0.00  0.00    +0.175 HD
BRANCH  27  29
ATOM     29  S   UNL     1      -3.133  -3.749  -6.643  0.00  0.00    +0.111 S 
ATOM     30  O   UNL     1      -2.558  -4.876  -7.290  0.00  0.00    -0.138 OA
ATOM     31  O   UNL     1      -4.524  -3.467  -6.697  0.00  0.00    -0.138 OA
BRANCH  29  32
ATOM     32  N   UNL     1      -2.355  -2.414  -7.237  0.00  0.00    -0.170 NA
ATOM     33  C   UNL     1      -1.050  -2.555  -7.886  0.00  0.00    +0.132 C 
ATOM     34  C   UNL     1      -2.973  -1.091  -7.114  0.00  0.00    +0.132 C 
ENDBRANCH  29  32
ENDBRANCH  27  29
ENDBRANCH   5  27
BRANCH   1  35
ATOM     35  C   UNL     1      -2.244   0.732   0.154  0.00  0.00    +0.045 C 
BRANCH  35  37
ATOM     36  C   UNL     1      -1.082   2.941   0.042  0.00  0.00    +0.007 C 
ATOM     37  C   UNL     1      -0.903   1.449   0.328  0.00  0.00    -0.014 C 
ATOM     38  C   UNL     1      -0.406   1.260   1.762  0.00  0.00    +0.007 C 
ENDBRANCH  35  37
ENDBRANCH   1  35
TORSDOF 8
