REMARK  Name = ZINC08964826
REMARK  9 active torsions:
REMARK  status: ('A' for Active; 'I' for Inactive)
REMARK    1  A    between atoms: C_1  and  C_2
REMARK    2  A    between atoms: C_6  and  C_35
REMARK    3  A    between atoms: C_6  and  O_36
REMARK    4  A    between atoms: C_7  and  O_34
REMARK    5  A    between atoms: C_17  and  C_19
REMARK    6  A    between atoms: C_19  and  N_72
REMARK    7  A    between atoms: N_22  and  C_25
REMARK    8  A    between atoms: C_28  and  N_31
REMARK    9  A    between atoms: O_36  and  C_37
REMARK                            x       y       z     vdW  Elec       q    Type
REMARK                         _______ _______ _______ _____ _____    ______ ____
ROOT
ATOM      1  C   UNL     1     -10.328   6.849  -6.541  0.00  0.00    +0.014 C 
ATOM      2  C   UNL     1     -10.589   7.213  -5.070  0.00  0.00    +0.003 C 
ATOM      3  C   UNL     1     -11.924   7.947  -4.966  0.00  0.00    +0.010 C 
ATOM      4  C   UNL     1     -11.842   9.277  -5.713  0.00  0.00    +0.003 C 
ATOM      5  C   UNL     1     -10.756  10.151  -5.096  0.00  0.00    +0.037 C 
ATOM      6  C   UNL     1      -9.397   9.467  -5.082  0.00  0.00    +0.095 C 
ATOM      7  C   UNL     1      -9.461   8.053  -4.494  0.00  0.00    +0.100 C 
ATOM      8  C   UNL     1      -9.650   8.235  -2.984  0.00  0.00    +0.046 C 
ATOM      9  C   UNL     1      -9.945   6.993  -2.202  0.00  0.00    +0.044 C 
ATOM     10  C   UNL     1     -10.995   6.070  -2.848  0.00  0.00    +0.181 C 
ATOM     11  C   UNL     1     -10.681   5.877  -4.327  0.00  0.00    +0.054 C 
ATOM     12  O   UNL     1     -10.695   4.782  -2.187  0.00  0.00    -0.461 OA
ATOM     13  C   UNL     1      -9.351   4.663  -2.141  0.00  0.00    +0.309 C 
ATOM     14  O   UNL     1      -8.733   3.626  -2.187  0.00  0.00    -0.251 OA
ATOM     15  C   UNL     1      -8.743   6.052  -2.023  0.00  0.00    +0.088 C 
ATOM     16  C   UNL     1      -8.755   9.493  -6.466  0.00  0.00    +0.044 C 
ENDROOT
BRANCH   7  17
ATOM     17  O   UNL     1      -8.202   7.402  -4.737  0.00  0.00    -0.385 OA
ATOM     18  H   UNL     1      -7.437   7.885  -4.394  0.00  0.00    +0.210 HD
ENDBRANCH   7  17
BRANCH   6  19
ATOM     19  O   UNL     1      -8.539  10.248  -4.215  0.00  0.00    -0.374 OA
ATOM     20  C   UNL     1      -8.363  11.602  -4.637  0.00  0.00    +0.194 C 
ENDBRANCH   6  19
BRANCH  15  21
ATOM     21  C   UNL     1      -8.116   6.240  -0.638  0.00  0.00    -0.064 C 
BRANCH  21  27
ATOM     22  C   UNL     1      -5.826   5.705  -1.215  0.00  0.00    -0.060 C 
ATOM     23  C   UNL     1      -4.732   4.644  -1.073  0.00  0.00    +0.086 C 
ATOM     24  N   UNL     1      -4.415   4.459   0.350  0.00  0.00    -0.333 N 
ATOM     25  C   UNL     1      -5.605   4.035   1.101  0.00  0.00    +0.086 C 
ATOM     26  C   UNL     1      -6.699   5.097   0.959  0.00  0.00    -0.060 C 
ATOM     27  N   UNL     1      -7.024   5.257  -0.474  0.00  0.00    +0.382 N 
ATOM     28  H   UNL     1      -7.330   4.352  -0.850  0.00  0.00    -0.082 HD
BRANCH  24  29
ATOM     29  C   UNL     1      -3.369   3.548   0.515  0.00  0.00    +0.030 A 
ATOM     30  C   UNL     1      -2.915   3.232   1.789  0.00  0.00    +0.025 A 
ATOM     31  C   UNL     1      -1.881   2.331   1.949  0.00  0.00    +0.034 A 
ATOM     32  C   UNL     1      -1.297   1.743   0.842  0.00  0.00    +0.126 A 
ATOM     33  C   UNL     1      -1.742   2.059  -0.428  0.00  0.00    +0.034 A 
ATOM     34  C   UNL     1      -2.780   2.955  -0.595  0.00  0.00    +0.025 A 
BRANCH  32  35
ATOM     35  N   UNL     1      -0.188   0.778   1.017  0.00  0.00    +0.056 N 
ATOM     36  O   UNL     1       0.208   0.503   2.135  0.00  0.00    -0.126 OA
ATOM     37  O   UNL     1       0.324   0.256   0.043  0.00  0.00    -0.126 OA
ENDBRANCH  32  35
ENDBRANCH  24  29
ENDBRANCH  21  27
ENDBRANCH  15  21
TORSDOF 6
