REMARK  Name = ZINC43464165
REMARK  5 active torsions:
REMARK  status: ('A' for Active; 'I' for Inactive)
REMARK    1  A    between atoms: C_1  and  C_2
REMARK    2  A    between atoms: N_4  and  C_5
REMARK    3  A    between atoms: C_11  and  C_19
REMARK    4  A    between atoms: N_15  and  C_16
REMARK    5  A    between atoms: C_16  and  N_18
REMARK                            x       y       z     vdW  Elec       q    Type
REMARK                         _______ _______ _______ _____ _____    ______ ____
ROOT
ATOM      1  C   UNL     1      -1.159  -2.150  -0.023  0.00  0.00    +0.078 C 
ATOM      2  C   UNL     1      -1.053  -2.663  -1.464  0.00  0.00    +0.029 C 
ATOM      3  C   UNL     1      -0.785  -4.167  -1.425  0.00  0.00    +0.057 C 
ATOM      4  C   UNL     1      -1.786  -4.856  -0.538  0.00  0.00    +0.050 A 
ATOM      5  C   UNL     1      -2.545  -4.177   0.392  0.00  0.00    +0.006 A 
ATOM      6  C   UNL     1      -3.439  -4.899   1.174  0.00  0.00    +0.152 A 
ATOM      7  N   UNL     1      -3.541  -6.205   1.005  0.00  0.00    -0.210 NA
ATOM      8  C   UNL     1      -2.801  -6.827   0.100  0.00  0.00    +0.221 A 
ATOM      9  N   UNL     1      -1.939  -6.170  -0.658  0.00  0.00    -0.219 NA
ATOM     10  N   UNL     1      -2.932  -8.200  -0.057  0.00  0.00    -0.266 N 
ATOM     11  C   UNL     1      -2.448  -2.690   0.594  0.00  0.00    +0.061 C 
ATOM     12  H   UNL     1      -2.396  -8.667  -0.716  0.00  0.00    +0.157 HD
ENDROOT
BRANCH   1  16
ATOM     13  C   UNL     1      -0.064   1.518  -0.038  0.00  0.00    +0.109 C 
ATOM     14  C   UNL     1      -0.034   0.011  -0.038  0.00  0.00    +0.210 C 
ATOM     15  O   UNL     1       1.028  -0.574  -0.053  0.00  0.00    -0.276 OA
ATOM     16  N   UNL     1      -1.188  -0.685  -0.022  0.00  0.00    -0.312 N 
ATOM     17  H   UNL     1      -2.037  -0.217  -0.011  0.00  0.00    +0.149 HD
ENDBRANCH   1  16
BRANCH   6  18
ATOM     18  C   UNL     1      -4.284  -4.197   2.206  0.00  0.00    +0.435 C 
ATOM     19  F   UNL     1      -4.993  -3.155   1.599  0.00  0.00    -0.164 F 
ATOM     20  F   UNL     1      -5.185  -5.108   2.769  0.00  0.00    -0.164 F 
ATOM     21  F   UNL     1      -3.459  -3.677   3.209  0.00  0.00    -0.164 F 
ENDBRANCH   6  18
BRANCH  10  22
ATOM     22  C   UNL     1      -3.806  -8.885   0.708  0.00  0.00    +0.134 C 
ATOM     23  S   UNL     1      -4.753  -8.062   1.872  0.00  0.00    -0.019 S 
BRANCH  22  24
ATOM     24  N   UNL     1      -3.933 -10.218   0.556  0.00  0.00    -0.340 N 
ATOM     25  H   UNL     1      -3.396 -10.685  -0.103  0.00  0.00    +0.144 HD
ATOM     26  H   UNL     1      -4.562 -10.711   1.106  0.00  0.00    +0.144 HD
ENDBRANCH  22  24
ENDBRANCH  10  22
TORSDOF 4
