REMARK  Name = ZINC66101673
REMARK  5 active torsions:
REMARK  status: ('A' for Active; 'I' for Inactive)
REMARK    1  A    between atoms: C_1  and  C_2
REMARK    2  A    between atoms: C_4  and  S_8
REMARK    3  A    between atoms: N_6  and  C_7
REMARK    4  A    between atoms: S_8  and  N_11
REMARK    5  A    between atoms: N_11  and  C_12
REMARK                            x       y       z     vdW  Elec       q    Type
REMARK                         _______ _______ _______ _____ _____    ______ ____
ROOT
ATOM      1  N   UNL     1      -0.687  -2.885  -3.245  0.00  0.00    -0.181 NA
ATOM      2  H   UNL     1      -1.648  -3.011  -3.203  0.00  0.00    +0.149 HD
ENDROOT
BRANCH   1   3
ATOM      3  C   UNL     1      -0.111  -1.972  -4.235  0.00  0.00    +0.113 C 
ATOM      4  C   UNL     1      -0.421  -2.487  -5.643  0.00  0.00    +0.066 C 
ATOM      5  C   UNL     1      -0.075  -1.380  -6.648  0.00  0.00    +0.231 C 
ATOM      6  O   UNL     1      -0.947  -0.273  -6.417  0.00  0.00    -0.492 OA
ATOM      7  C   UNL     1      -1.083   0.172  -5.141  0.00  0.00    +0.125 A 
ATOM      8  C   UNL     1      -0.704  -0.597  -4.056  0.00  0.00    +0.014 A 
ATOM      9  C   UNL     1      -0.867  -0.104  -2.772  0.00  0.00    +0.024 A 
ATOM     10  C   UNL     1      -1.404   1.153  -2.571  0.00  0.00    +0.018 A 
ATOM     11  C   UNL     1      -1.781   1.925  -3.655  0.00  0.00    +0.019 A 
ATOM     12  C   UNL     1      -1.621   1.438  -4.935  0.00  0.00    +0.047 A 
ATOM     13 BR   UNL     1      -1.623   1.818  -0.814  0.00  0.00    -0.050 Br
ENDBRANCH   1   3
BRANCH   1  14
ATOM     14  S   UNL     1       0.302  -3.700  -2.197  0.00  0.00    +0.078 S 
ATOM     15  O   UNL     1      -0.542  -4.506  -1.386  0.00  0.00    -0.152 OA
ATOM     16  O   UNL     1       1.193  -2.740  -1.648  0.00  0.00    -0.152 OA
BRANCH  14  20
ATOM     17  C   UNL     1       1.903  -6.891  -6.049  0.00  0.00    +0.086 C 
ATOM     18  C   UNL     1       1.903  -6.109  -4.761  0.00  0.00    +0.109 A 
ATOM     19  N   UNL     1       0.937  -5.339  -4.340  0.00  0.00    -0.213 NA
ATOM     20  C   UNL     1       1.281  -4.806  -3.158  0.00  0.00    +0.211 A 
ATOM     21  C   UNL     1       2.506  -5.262  -2.835  0.00  0.00    +0.135 A 
ATOM     22  N   UNL     1       2.899  -6.094  -3.849  0.00  0.00    -0.336 N 
ATOM     23  C   UNL     1       4.164  -6.827  -3.932  0.00  0.00    +0.150 C 
ENDBRANCH  14  20
ENDBRANCH   1  14
TORSDOF 3
