REMARK  Name = ZINC40793402
REMARK  5 active torsions:
REMARK  status: ('A' for Active; 'I' for Inactive)
REMARK    1  A    between atoms: C_10  and  C_11
REMARK    2  A    between atoms: N_13  and  N_14
REMARK    3  A    between atoms: C_16  and  N_32
REMARK    4  A    between atoms: C_17  and  S_21
REMARK    5  A    between atoms: S_21  and  C_22
REMARK                            x       y       z     vdW  Elec       q    Type
REMARK                         _______ _______ _______ _____ _____    ______ ____
ROOT
ATOM      1  N   UNL     1       7.352   0.224  -0.365  0.00  0.00    -0.247 N 
ATOM      2  C   UNL     1       8.554  -0.462  -0.231  0.00  0.00    +0.160 A 
ATOM      3  C   UNL     1       9.756   0.235  -0.092  0.00  0.00    +0.099 A 
ATOM      4  C   UNL     1      10.934  -0.502   0.040  0.00  0.00    +0.127 A 
ATOM      5  N   UNL     1      10.867  -1.832   0.028  0.00  0.00    -0.227 NA
ATOM      6  C   UNL     1       9.711  -2.450  -0.105  0.00  0.00    +0.224 A 
ATOM      7  N   UNL     1       8.576  -1.792  -0.228  0.00  0.00    -0.218 NA
ATOM      8  H   UNL     1       7.345   1.194  -0.367  0.00  0.00    +0.172 HD
ENDROOT
BRANCH   1  11
ATOM      9  C   UNL     1       4.987   0.178  -0.629  0.00  0.00    +0.261 C 
ATOM     10  O   UNL     1       4.977   1.394  -0.630  0.00  0.00    -0.269 OA
ATOM     11  N   UNL     1       6.152  -0.486  -0.498  0.00  0.00    -0.231 N 
ATOM     12  H   UNL     1       6.160  -1.456  -0.497  0.00  0.00    +0.173 HD
BRANCH   9  22
ATOM     13  C   UNL     1       0.030   1.409  -0.797  0.00  0.00    +0.001 A 
ATOM     14  C   UNL     1       1.210   2.136  -0.663  0.00  0.00    +0.001 A 
ATOM     15  C   UNL     1       2.421   1.510  -0.652  0.00  0.00    +0.009 A 
ATOM     16  C   UNL     1       2.482   0.116  -0.776  0.00  0.00    -0.006 A 
ATOM     17  C   UNL     1       1.283  -0.625  -0.912  0.00  0.00    -0.017 A 
ATOM     18  C   UNL     1       0.052   0.053  -0.920  0.00  0.00    +0.008 A 
ATOM     19  C   UNL     1       1.344  -2.024  -1.036  0.00  0.00    +0.008 A 
ATOM     20  C   UNL     1       2.549  -2.660  -1.025  0.00  0.00    +0.001 A 
ATOM     21  C   UNL     1       3.736  -1.951  -0.893  0.00  0.00    +0.014 A 
ATOM     22  C   UNL     1       3.723  -0.569  -0.769  0.00  0.00    +0.046 A 
ENDBRANCH   9  22
ENDBRANCH   1  11
BRANCH   3  23
ATOM     23  N   UNL     1       9.779   1.639  -0.085  0.00  0.00    -0.353 N 
ATOM     24  H   UNL     1       8.953   2.138  -0.178  0.00  0.00    +0.142 HD
ATOM     25  H   UNL     1      10.622   2.110   0.013  0.00  0.00    +0.142 HD
ENDBRANCH   3  23
BRANCH   4  26
ATOM     26  S   UNL     1      12.485   0.314   0.219  0.00  0.00    -0.066 S 
BRANCH  26  27
ATOM     27  C   UNL     1      13.662  -0.998   0.201  0.00  0.00    +0.040 A 
ATOM     28  C   UNL     1      14.425  -1.231  -0.924  0.00  0.00    +0.017 A 
ATOM     29  C   UNL     1      15.357  -2.264  -0.951  0.00  0.00    +0.002 A 
ATOM     30  C   UNL     1      15.540  -3.071   0.131  0.00  0.00    +0.010 A 
ATOM     31  C   UNL     1      14.783  -2.866   1.295  0.00  0.00    +0.001 A 
ATOM     32  C   UNL     1      13.834  -1.815   1.340  0.00  0.00    +0.085 A 
ATOM     33  N   UNL     1      13.115  -1.614   2.447  0.00  0.00    -0.254 NA
ATOM     34  C   UNL     1      13.271  -2.369   3.508  0.00  0.00    +0.111 A 
ATOM     35  C   UNL     1      14.190  -3.416   3.533  0.00  0.00    +0.020 A 
ATOM     36  C   UNL     1      14.949  -3.683   2.429  0.00  0.00    +0.011 A 
ENDBRANCH  26  27
ENDBRANCH   4  26
TORSDOF 5
