REMARK  Name = ZINC12201037
REMARK  9 active torsions:
REMARK  status: ('A' for Active; 'I' for Inactive)
REMARK    1  A    between atoms: C_1  and  C_2
REMARK    2  A    between atoms: C_2  and  C_3
REMARK    3  A    between atoms: C_4  and  C_25
REMARK    4  A    between atoms: N_6  and  C_24
REMARK    5  A    between atoms: C_7  and  N_8
REMARK    6  A    between atoms: C_9  and  C_11
REMARK    7  A    between atoms: C_17  and  C_23
REMARK    8  A    between atoms: C_18  and  C_21
REMARK    9  A    between atoms: C_21  and  C_22
REMARK                            x       y       z     vdW  Elec       q    Type
REMARK                         _______ _______ _______ _____ _____    ______ ____
ROOT
ATOM      1  N   UNL     1       0.034   0.964  -0.135  0.00  0.00    -0.266 N 
ATOM      2  C   UNL     1       1.205   1.614  -0.285  0.00  0.00    +0.249 C 
ATOM      3  O   UNL     1       1.216   2.820  -0.434  0.00  0.00    -0.270 OA
ATOM      4  H   UNL     1       0.017  -0.005  -0.105  0.00  0.00    +0.157 HD
ENDROOT
BRANCH   2   5
ATOM      5  C   UNL     1       2.474   0.860  -0.267  0.00  0.00    +0.038 A 
ATOM      6  C   UNL     1       2.461  -0.530  -0.089  0.00  0.00    +0.015 A 
ATOM      7  C   UNL     1       3.625  -1.241  -0.076  0.00  0.00    +0.027 A 
ATOM      8  C   UNL     1       4.847  -0.588  -0.230  0.00  0.00    +0.047 A 
ATOM      9  C   UNL     1       4.874   0.809  -0.403  0.00  0.00    +0.004 A 
ATOM     10  C   UNL     1       3.683   1.532  -0.422  0.00  0.00    +0.023 A 
ATOM     11  C   UNL     1       6.287   1.174  -0.532  0.00  0.00    -0.022 A 
ATOM     12  C   UNL     1       6.994   0.038  -0.434  0.00  0.00    +0.020 A 
ATOM     13  N   UNL     1       6.150  -1.024  -0.253  0.00  0.00    -0.358 N 
ATOM     14  H   UNL     1       6.430  -1.948  -0.156  0.00  0.00    +0.166 HD
ATOM     15  C   UNL     1       6.841   2.561  -0.737  0.00  0.00    +0.046 C 
BRANCH  12  16
ATOM     16  C   UNL     1       8.496  -0.056  -0.512  0.00  0.00    +0.050 C 
ATOM     17  C   UNL     1       9.097   0.213   0.869  0.00  0.00    +0.010 C 
ENDBRANCH  12  16
ENDBRANCH   2   5
BRANCH   1  22
ATOM     18  C   UNL     1      -2.389   1.266  -0.425  0.00  0.00    +0.015 A 
ATOM     19  C   UNL     1      -3.300   2.286  -0.139  0.00  0.00    +0.065 A 
ATOM     20  N   UNL     1      -2.647   3.285   0.398  0.00  0.00    -0.175 NA
ATOM     21  N   UNL     1      -1.293   2.936   0.480  0.00  0.00    -0.253 N 
ATOM     22  C   UNL     1      -1.155   1.685  -0.030  0.00  0.00    +0.126 A 
ATOM     23  C   UNL     1      -0.217   3.771   1.020  0.00  0.00    +0.174 C 
ATOM     24  C   UNL     1      -4.782   2.245  -0.408  0.00  0.00    +0.068 C 
BRANCH  18  26
ATOM     25  C   UNL     1      -3.051  -1.079   0.039  0.00  0.00    +0.009 C 
ATOM     26  C   UNL     1      -2.714  -0.064  -1.055  0.00  0.00    +0.037 C 
ENDBRANCH  18  26
ENDBRANCH   1  22
TORSDOF 4
