REMARK  Name = ZINC57721875
REMARK  4 active torsions:
REMARK  status: ('A' for Active; 'I' for Inactive)
REMARK    1  A    between atoms: N_7  and  C_10
REMARK    2  A    between atoms: N_13  and  C_16
REMARK    3  A    between atoms: C_16  and  C_17
REMARK    4  A    between atoms: C_25  and  C_27
REMARK                            x       y       z     vdW  Elec       q    Type
REMARK                         _______ _______ _______ _____ _____    ______ ____
ROOT
ATOM      1  C   UNL     1       4.169  -1.839   0.016  0.00  0.00    +0.087 C 
ATOM      2  C   UNL     1       5.037  -2.123   1.246  0.00  0.00    +0.006 C 
ATOM      3  C   UNL     1       5.553  -3.562   1.177  0.00  0.00    -0.076 C 
ATOM      4  N   UNL     1       6.353  -3.741  -0.040  0.00  0.00    +0.386 N 
ATOM      5  C   UNL     1       5.509  -3.541  -1.224  0.00  0.00    -0.076 C 
ATOM      6  C   UNL     1       4.991  -2.102  -1.249  0.00  0.00    +0.006 C 
ATOM      7  H   UNL     1       7.107  -3.071  -0.048  0.00  0.00    -0.081 HD
ENDROOT
BRANCH   1  14
ATOM      8  C   UNL     1       0.123   1.470   0.108  0.00  0.00    +0.022 A 
ATOM      9  C   UNL     1       1.324   2.155   0.097  0.00  0.00    +0.033 A 
ATOM     10  C   UNL     1       2.507   1.412   0.073  0.00  0.00    +0.108 A 
ATOM     11  C   UNL     1       2.430   0.007   0.060  0.00  0.00    +0.160 A 
ATOM     12  N   UNL     1       1.253  -0.598   0.071  0.00  0.00    -0.236 NA
ATOM     13  C   UNL     1       0.127   0.084   0.094  0.00  0.00    +0.113 A 
ATOM     14  N   UNL     1       3.733  -0.441   0.036  0.00  0.00    -0.312 N 
ATOM     15  C   UNL     1       4.541   0.654   0.035  0.00  0.00    +0.201 A 
ATOM     16  N   UNL     1       3.824   1.740   0.057  0.00  0.00    -0.234 NA
ENDBRANCH   1  14
BRANCH   4  17
ATOM     17  C   UNL     1       6.911  -5.100  -0.062  0.00  0.00    +0.019 C 
BRANCH  17  18
ATOM     18  C   UNL     1       7.830  -5.247  -1.247  0.00  0.00    +0.199 C 
ATOM     19  O   UNL     1       8.004  -4.311  -1.999  0.00  0.00    -0.278 OA
ATOM     20  N   UNL     1       8.460  -6.417  -1.471  0.00  0.00    -0.300 N 
ATOM     21  C   UNL     1       8.254  -7.561  -0.571  0.00  0.00    +0.126 C 
ATOM     22  C   UNL     1       7.787  -8.761  -1.404  0.00  0.00    +0.127 C 
ATOM     23  N   UNL     1       8.691  -8.917  -2.552  0.00  0.00    -0.292 N 
ATOM     24  C   UNL     1       8.897  -7.773  -3.451  0.00  0.00    +0.127 C 
ATOM     25  C   UNL     1       9.360  -6.574  -2.622  0.00  0.00    +0.126 C 
ATOM     26  C   UNL     1       9.320 -10.088  -2.776  0.00  0.00    +0.282 C 
ATOM     27  O   UNL     1       9.988 -10.236  -3.782  0.00  0.00    -0.267 OA
BRANCH  26  28
ATOM     28  C   UNL     1       9.200 -11.182  -1.807  0.00  0.00    +0.189 A 
ATOM     29  C   UNL     1       9.873 -12.369  -1.849  0.00  0.00    +0.054 A 
ATOM     30  C   UNL     1       9.455 -13.110  -0.733  0.00  0.00    +0.042 A 
ATOM     31  C   UNL     1       8.556 -12.353  -0.067  0.00  0.00    +0.196 A 
ATOM     32  O   UNL     1       8.408 -11.190  -0.714  0.00  0.00    -0.458 OA
ENDBRANCH  26  28
ENDBRANCH  17  18
ENDBRANCH   4  17
TORSDOF 4
