REMARK  Name = ZINC37443717
REMARK  8 active torsions:
REMARK  status: ('A' for Active; 'I' for Inactive)
REMARK    1  A    between atoms: C_1  and  C_2
REMARK    2  A    between atoms: C_7  and  C_8
REMARK    3  A    between atoms: C_8  and  N_9
REMARK    4  A    between atoms: C_18  and  C_19
REMARK    5  A    between atoms: C_18  and  C_20
REMARK    6  A    between atoms: N_22  and  C_23
REMARK    7  A    between atoms: C_28  and  C_33
REMARK    8  A    between atoms: C_30  and  C_32
REMARK                            x       y       z     vdW  Elec       q    Type
REMARK                         _______ _______ _______ _____ _____    ______ ____
ROOT
ATOM      1  N   UNL     1      -0.687   0.368   3.196  0.00  0.00    -0.276 N 
ATOM      2  C   UNL     1      -0.773   1.697   2.955  0.00  0.00    +0.264 C 
ATOM      3  O   UNL     1      -0.032   2.255   2.166  0.00  0.00    -0.268 OA
ATOM      4  C   UNL     1      -1.808   2.430   3.695  0.00  0.00    +0.109 A 
ATOM      5  C   UNL     1      -2.262   3.708   3.554  0.00  0.00    +0.079 A 
ATOM      6  C   UNL     1      -3.276   3.901   4.505  0.00  0.00    +0.153 A 
ATOM      7  C   UNL     1      -3.415   2.712   5.221  0.00  0.00    +0.088 A 
ATOM      8  N   UNL     1      -2.510   1.820   4.731  0.00  0.00    -0.331 N 
ATOM      9  C   UNL     1      -2.224   0.443   5.147  0.00  0.00    +0.157 C 
ATOM     10  C   UNL     1      -1.716  -0.350   3.939  0.00  0.00    +0.129 C 
ATOM     11  C   UNL     1      -1.137  -1.679   4.428  0.00  0.00    +0.043 C 
ATOM     12  C   UNL     1      -4.447   2.940   6.163  0.00  0.00    +0.067 A 
ATOM     13  C   UNL     1      -4.872   4.203   5.992  0.00  0.00    +0.198 A 
ATOM     14  O   UNL     1      -4.171   4.781   5.002  0.00  0.00    -0.461 OA
ENDROOT
BRANCH  10  15
ATOM     15  C   UNL     1      -2.873  -0.636   3.016  0.00  0.00    +0.238 C 
ATOM     16  O   UNL     1      -3.494  -1.671   3.126  0.00  0.00    -0.273 OA
ATOM     17  N   UNL     1      -3.216   0.259   2.068  0.00  0.00    -0.310 N 
ATOM     18  H   UNL     1      -2.682   1.058   1.940  0.00  0.00    +0.149 HD
BRANCH  17  19
ATOM     19  C   UNL     1      -4.396   0.024   1.233  0.00  0.00    +0.076 C 
ATOM     20  C   UNL     1      -4.031  -0.925   0.089  0.00  0.00    +0.022 C 
ATOM     21  C   UNL     1      -5.264  -1.170  -0.783  0.00  0.00    +0.002 C 
ATOM     22  C   UNL     1      -5.752   0.160  -1.361  0.00  0.00    +0.003 C 
ATOM     23  C   UNL     1      -6.117   1.109  -0.217  0.00  0.00    -0.009 C 
ATOM     24  C   UNL     1      -4.885   1.354   0.655  0.00  0.00    +0.009 C 
ATOM     25  C   UNL     1      -3.776   1.980  -0.192  0.00  0.00    +0.009 C 
ATOM     26  C   UNL     1      -6.606   2.439  -0.794  0.00  0.00    +0.008 C 
ENDBRANCH  17  19
ENDBRANCH  10  15
BRANCH   1  27
ATOM     27  C   UNL     1       0.472  -0.372   2.691  0.00  0.00    +0.144 C 
BRANCH  27  34
ATOM     28  C   UNL     1      -0.268   0.518   0.044  0.00  0.00    +0.044 C 
ATOM     29  C   UNL     1      -0.336  -0.946   0.392  0.00  0.00    -0.046 A 
ATOM     30  C   UNL     1      -0.747  -1.864  -0.556  0.00  0.00    +0.003 A 
ATOM     31  C   UNL     1      -0.809  -3.207  -0.237  0.00  0.00    +0.000 A 
ATOM     32  C   UNL     1      -0.461  -3.633   1.032  0.00  0.00    +0.000 A 
ATOM     33  C   UNL     1      -0.049  -2.715   1.980  0.00  0.00    +0.005 A 
ATOM     34  C   UNL     1       0.018  -1.372   1.659  0.00  0.00    -0.027 A 
ENDBRANCH  27  34
ENDBRANCH   1  27
TORSDOF 4
