REMARK  Name = ZINC12790909
REMARK  15 active torsions:
REMARK  status: ('A' for Active; 'I' for Inactive)
REMARK    1  A    between atoms: C_1  and  C_2
REMARK    2  A    between atoms: C_7  and  C_9
REMARK    3  A    between atoms: C_7  and  C_31
REMARK    4  A    between atoms: C_7  and  N_71
REMARK    5  A    between atoms: C_9  and  N_10
REMARK    6  A    between atoms: C_11  and  C_13
REMARK    7  A    between atoms: C_13  and  C_15
REMARK    8  A    between atoms: C_13  and  N_18
REMARK    9  A    between atoms: C_15  and  C_16
REMARK   10  A    between atoms: C_15  and  C_17
REMARK   11  A    between atoms: C_19  and  C_21
REMARK   12  A    between atoms: C_23  and  O_29
REMARK   13  A    between atoms: C_25  and  O_27
REMARK   14  A    between atoms: O_27  and  C_28
REMARK   15  A    between atoms: O_29  and  C_30
REMARK                            x       y       z     vdW  Elec       q    Type
REMARK                         _______ _______ _______ _____ _____    ______ ____
ROOT
ATOM      1  N   UNL     1      -0.447   1.146  -2.462  0.00  0.00    -0.315 N 
ATOM      2  C   UNL     1      -0.945   1.432  -1.242  0.00  0.00    +0.234 C 
ATOM      3  O   UNL     1      -1.883   2.194  -1.134  0.00  0.00    -0.274 OA
ATOM      4  H   UNL     1       0.303   0.537  -2.548  0.00  0.00    +0.149 HD
ENDROOT
BRANCH   1   5
ATOM      5  C   UNL     1      -1.038   1.755  -3.656  0.00  0.00    +0.094 C 
BRANCH   5   6
ATOM      6  C   UNL     1      -0.213   1.370  -4.886  0.00  0.00    -0.013 C 
BRANCH   6  13
ATOM      7  C   UNL     1      -0.224  -4.243  -5.962  0.00  0.00    +0.007 C 
ATOM      8  C   UNL     1      -0.454  -2.734  -6.060  0.00  0.00    -0.018 C 
ATOM      9  C   UNL     1       0.895  -2.013  -6.112  0.00  0.00    -0.015 C 
ATOM     10  C   UNL     1       0.660  -0.501  -6.149  0.00  0.00    -0.078 C 
ATOM     11  C   UNL     1      -1.408  -0.735  -4.907  0.00  0.00    -0.078 C 
ATOM     12  C   UNL     1      -1.234  -2.254  -4.832  0.00  0.00    -0.015 C 
ATOM     13  N   UNL     1      -0.073  -0.100  -4.929  0.00  0.00    +0.386 N 
ATOM     14  H   UNL     1       0.457  -0.409  -4.106  0.00  0.00    -0.081 HD
ENDBRANCH   6  13
BRANCH   6  15
ATOM     15  C   UNL     1       1.158   1.987  -4.785  0.00  0.00    -0.022 A 
ATOM     16  C   UNL     1       1.639   3.103  -5.386  0.00  0.00    +0.009 A 
ATOM     17  C   UNL     1       2.943   3.487  -5.141  0.00  0.00    +0.008 A 
ATOM     18  C   UNL     1       3.707   2.731  -4.315  0.00  0.00    +0.045 A 
ATOM     19  S   UNL     1       2.573   1.434  -3.847  0.00  0.00    -0.103 S 
ENDBRANCH   6  15
ENDBRANCH   5   6
ENDBRANCH   1   5
BRANCH   2  20
ATOM     20  C   UNL     1      -0.338   0.805  -0.014  0.00  0.00    +0.162 C 
BRANCH  20  21
ATOM     21  N   UNL     1      -1.052   1.272   1.177  0.00  0.00    -0.300 N 
ATOM     22  C   UNL     1      -1.058   0.522   2.296  0.00  0.00    +0.245 C 
ATOM     23  O   UNL     1      -0.472  -0.542   2.318  0.00  0.00    -0.270 OA
ATOM     24  H   UNL     1      -1.520   2.122   1.160  0.00  0.00    +0.150 HD
BRANCH  22  25
ATOM     25  C   UNL     1      -1.779   0.993   3.498  0.00  0.00    +0.044 A 
ATOM     26  C   UNL     1      -2.448   2.217   3.477  0.00  0.00    +0.059 A 
ATOM     27  C   UNL     1      -3.128   2.652   4.604  0.00  0.00    +0.124 A 
ATOM     28  C   UNL     1      -3.133   1.878   5.755  0.00  0.00    +0.091 A 
ATOM     29  C   UNL     1      -2.464   0.663   5.782  0.00  0.00    +0.124 A 
ATOM     30  C   UNL     1      -1.787   0.218   4.658  0.00  0.00    +0.059 A 
BRANCH  29  31
ATOM     31  O   UNL     1      -2.473  -0.091   6.912  0.00  0.00    -0.495 OA
ATOM     32  C   UNL     1      -3.190   0.428   8.033  0.00  0.00    +0.277 C 
ENDBRANCH  29  31
BRANCH  27  33
ATOM     33  O   UNL     1      -3.785   3.841   4.582  0.00  0.00    -0.495 OA
ATOM     34  C   UNL     1      -4.459   4.232   5.780  0.00  0.00    +0.277 C 
ENDBRANCH  27  33
ENDBRANCH  22  25
ENDBRANCH  20  21
BRANCH  20  35
ATOM     35  C   UNL     1       1.136   1.204   0.086  0.00  0.00    +0.012 C 
ATOM     36  C   UNL     1       1.242   2.714   0.308  0.00  0.00    +0.009 C 
ATOM     37  C   UNL     1       1.785   0.469   1.261  0.00  0.00    +0.009 C 
ENDBRANCH  20  35
ENDBRANCH   2  20
TORSDOF 10
