REMARK  Name = ZINC40546279
REMARK  6 active torsions:
REMARK  status: ('A' for Active; 'I' for Inactive)
REMARK    1  A    between atoms: C_1  and  C_2
REMARK    2  A    between atoms: C_5  and  N_9
REMARK    3  A    between atoms: N_12  and  C_13
REMARK    4  A    between atoms: N_12  and  C_14
REMARK    5  A    between atoms: C_14  and  C_15
REMARK    6  A    between atoms: C_15  and  C_16
REMARK                            x       y       z     vdW  Elec       q    Type
REMARK                         _______ _______ _______ _____ _____    ______ ____
ROOT
ATOM      1  N   UNL     1       0.058  -4.172  -0.021  0.00  0.00    -0.267 N 
ATOM      2  C   UNL     1       0.472  -4.846   1.070  0.00  0.00    +0.306 C 
ATOM      3  O   UNL     1       0.742  -4.244   2.091  0.00  0.00    -0.252 OA
ATOM      4  N   UNL     1       0.586  -6.189   1.030  0.00  0.00    -0.288 N 
ATOM      5  C   UNL     1       0.260  -6.915  -0.201  0.00  0.00    +0.133 C 
ATOM      6  H   UNL     1      -0.227  -4.656  -0.811  0.00  0.00    +0.156 HD
ENDROOT
BRANCH   1  11
ATOM      7  C   UNL     1      -0.013   1.503   0.007  0.00  0.00    +0.044 C 
ATOM      8  C   UNL     1       0.006  -0.004   0.000  0.00  0.00    -0.048 A 
ATOM      9  C   UNL     1       1.142  -0.677  -0.409  0.00  0.00    +0.020 A 
ATOM     10  C   UNL     1       1.163  -2.059  -0.417  0.00  0.00    +0.040 A 
ATOM     11  C   UNL     1       0.041  -2.772  -0.014  0.00  0.00    +0.063 A 
ATOM     12  C   UNL     1      -1.099  -2.092   0.397  0.00  0.00    +0.040 A 
ATOM     13  C   UNL     1      -1.111  -0.710   0.408  0.00  0.00    +0.020 A 
ATOM     14 BR   UNL     1      -2.630  -3.056   0.947  0.00  0.00    -0.048 Br
ATOM     15 BR   UNL     1       2.717  -2.979  -0.977  0.00  0.00    -0.048 Br
ENDBRANCH   1  11
BRANCH   4  16
ATOM     16  C   UNL     1       1.035  -6.922   2.216  0.00  0.00    +0.120 C 
BRANCH  16  17
ATOM     17  C   UNL     1      -0.176  -7.306   3.067  0.00  0.00    +0.144 C 
BRANCH  17  18
ATOM     18  C   UNL     1       0.286  -8.061   4.287  0.00  0.00    +0.358 C 
ATOM     19  O   UNL     1       1.474  -8.271   4.460  0.00  0.00    -0.246 OA
ATOM     20  O   UNL     1      -0.528  -8.460   5.102  0.00  0.00    -0.246 OA
ENDBRANCH  17  18
ENDBRANCH  16  17
ENDBRANCH   4  16
TORSDOF 4
