REMARK  Name = ZINC67481895
REMARK  8 active torsions:
REMARK  status: ('A' for Active; 'I' for Inactive)
REMARK    1  A    between atoms: C_1  and  C_2
REMARK    2  A    between atoms: C_2  and  C_3
REMARK    3  A    between atoms: C_3  and  N_4
REMARK    4  A    between atoms: C_5  and  C_7
REMARK    5  A    between atoms: N_15  and  C_16
REMARK    6  A    between atoms: C_16  and  C_17
REMARK    7  A    between atoms: N_22  and  C_23
REMARK    8  A    between atoms: C_23  and  C_24
REMARK                            x       y       z     vdW  Elec       q    Type
REMARK                         _______ _______ _______ _____ _____    ______ ____
ROOT
ATOM      1  C   UNL     1       0.954  -7.011   0.176  0.00  0.00    +0.078 C 
ATOM      2  C   UNL     1       1.957  -7.562   1.192  0.00  0.00    +0.032 C 
ATOM      3  C   UNL     1       1.635  -6.997   2.579  0.00  0.00    +0.110 C 
ATOM      4  N   UNL     1       0.231  -7.293   2.896  0.00  0.00    -0.286 N 
ATOM      5  C   UNL     1      -0.809  -6.886   1.940  0.00  0.00    +0.110 C 
ATOM      6  C   UNL     1      -0.460  -7.452   0.560  0.00  0.00    +0.032 C 
ATOM      7  C   UNL     1      -0.097  -7.925   4.040  0.00  0.00    +0.302 C 
ATOM      8  O   UNL     1      -1.266  -8.082   4.334  0.00  0.00    -0.253 OA
ATOM      9  N   UNL     1       0.871  -8.382   4.858  0.00  0.00    -0.301 N 
ATOM     10  H   UNL     1       1.802  -8.193   4.662  0.00  0.00    +0.150 HD
ENDROOT
BRANCH   1  12
ATOM     11  N   UNL     1       2.490  -7.272  -1.745  0.00  0.00    -0.315 N 
ATOM     12  C   UNL     1       1.289  -7.538  -1.196  0.00  0.00    +0.216 C 
ATOM     13  O   UNL     1       0.476  -8.201  -1.806  0.00  0.00    -0.276 OA
ATOM     14  H   UNL     1       3.140  -6.742  -1.258  0.00  0.00    +0.149 HD
BRANCH  11  15
ATOM     15  C   UNL     1       2.816  -7.784  -3.079  0.00  0.00    +0.104 C 
BRANCH  15  17
ATOM     16  C   UNL     1       4.569  -7.878  -4.856  0.00  0.00    +0.005 C 
ATOM     17  C   UNL     1       4.229  -7.343  -3.464  0.00  0.00    +0.015 C 
ENDBRANCH  15  17
ENDBRANCH  11  15
ENDBRANCH   1  12
BRANCH   9  18
ATOM     18  C   UNL     1       0.517  -9.166   6.045  0.00  0.00    +0.090 C 
BRANCH  18  19
ATOM     19  C   UNL     1       1.784  -9.484   6.841  0.00  0.00    -0.051 C 
ATOM     20  C   UNL     1       1.456 -10.480   7.973  0.00  0.00    -0.016 C 
ATOM     21  C   UNL     1       2.334  -9.976   9.149  0.00  0.00    -0.020 C 
ATOM     22  C   UNL     1       2.282  -8.441   8.942  0.00  0.00    -0.078 C 
ATOM     23  N   UNL     1       2.302  -8.256   7.472  0.00  0.00    +0.383 N 
ATOM     24  H   UNL     1       3.247  -8.088   7.162  0.00  0.00    -0.081 HD
BRANCH  23  25
ATOM     25  C   UNL     1       1.452  -7.115   7.104  0.00  0.00    -0.075 C 
BRANCH  25  26
ATOM     26  C   UNL     1       2.098  -5.819   7.597  0.00  0.00    -0.028 C 
ATOM     27  C   UNL     1       1.983  -5.739   9.121  0.00  0.00    +0.002 C 
ATOM     28  C   UNL     1       2.628  -4.442   9.614  0.00  0.00    +0.000 C 
ATOM     29  C   UNL     1       1.913  -3.245   8.984  0.00  0.00    +0.000 C 
ATOM     30  C   UNL     1       2.029  -3.325   7.460  0.00  0.00    +0.000 C 
ATOM     31  C   UNL     1       1.383  -4.622   6.968  0.00  0.00    +0.002 C 
ENDBRANCH  25  26
ENDBRANCH  23  25
ENDBRANCH  18  19
ENDBRANCH   9  18
TORSDOF 7
