REMARK  Name = ZINC01434668
REMARK  6 active torsions:
REMARK  status: ('A' for Active; 'I' for Inactive)
REMARK    1  A    between atoms: C_1  and  C_2
REMARK    2  A    between atoms: C_3  and  C_29
REMARK    3  A    between atoms: C_4  and  C_22
REMARK    4  A    between atoms: C_10  and  C_15
REMARK    5  A    between atoms: C_29  and  O_31
REMARK    6  A    between atoms: O_31  and  C_32
REMARK                            x       y       z     vdW  Elec       q    Type
REMARK                         _______ _______ _______ _____ _____    ______ ____
ROOT
ATOM      1  C   UNL     1      -2.457   0.905   0.453  0.00  0.00    +0.061 C 
ATOM      2  C   UNL     1      -1.208   1.626   0.017  0.00  0.00    +0.016 C 
ATOM      3  C   UNL     1      -1.280   2.914  -0.355  0.00  0.00    +0.065 C 
ATOM      4  C   UNL     1      -0.060   3.662  -0.808  0.00  0.00    +0.092 C 
ATOM      5  C   UNL     1       1.199   2.957  -0.373  0.00  0.00    +0.024 C 
ATOM      6  C   UNL     1       1.169   1.660  -0.000  0.00  0.00    +0.016 C 
ATOM      7  N   UNL     1      -0.011   0.966   0.007  0.00  0.00    -0.321 N 
ATOM      8  C   UNL     1       2.429   0.941   0.413  0.00  0.00    +0.059 C 
ATOM      9  C   UNL     1       3.397   1.933   1.062  0.00  0.00    +0.033 C 
ATOM     10  C   UNL     1       3.697   3.049   0.057  0.00  0.00    +0.088 C 
ATOM     11  C   UNL     1       2.402   3.684  -0.371  0.00  0.00    +0.162 C 
ATOM     12  O   UNL     1       2.396   4.848  -0.721  0.00  0.00    -0.292 OA
ATOM     13  H   UNL     1       0.010  -0.134   0.006  0.00  0.00    +0.152 HD
ENDROOT
BRANCH   9  14
ATOM     14  C   UNL     1       4.677   1.229   1.434  0.00  0.00    -0.025 A 
ATOM     15  C   UNL     1       5.426   0.598   0.459  0.00  0.00    +0.005 A 
ATOM     16  C   UNL     1       6.603  -0.044   0.799  0.00  0.00    +0.000 A 
ATOM     17  C   UNL     1       7.024  -0.064   2.116  0.00  0.00    +0.001 A 
ATOM     18  C   UNL     1       6.273   0.562   3.092  0.00  0.00    +0.020 A 
ATOM     19  C   UNL     1       5.098   1.209   2.751  0.00  0.00    +0.044 A 
ATOM     20 CL   UNL     1       4.154   1.997   3.977  0.00  0.00    -0.083 Cl
ENDBRANCH   9  14
BRANCH   4  21
ATOM     21  C   UNL     1      -0.075   3.768  -2.311  0.00  0.00    -0.035 A 
ATOM     22  C   UNL     1      -0.038   2.622  -3.084  0.00  0.00    +0.007 A 
ATOM     23  C   UNL     1      -0.057   2.718  -4.463  0.00  0.00    +0.038 A 
ATOM     24  C   UNL     1      -0.101   3.961  -5.070  0.00  0.00    +0.123 A 
ATOM     25  C   UNL     1      -0.132   5.108  -4.295  0.00  0.00    +0.038 A 
ATOM     26  C   UNL     1      -0.119   5.010  -2.916  0.00  0.00    +0.007 A 
ATOM     27  F   UNL     1      -0.113   4.056  -6.418  0.00  0.00    -0.205 F 
ENDBRANCH   4  21
BRANCH   3  28
ATOM     28  C   UNL     1      -2.529   3.577  -0.325  0.00  0.00    +0.337 C 
ATOM     29  O   UNL     1      -3.525   2.982   0.041  0.00  0.00    -0.245 OA
BRANCH  28  30
ATOM     30  O   UNL     1      -2.616   4.870  -0.701  0.00  0.00    -0.465 OA
ATOM     31  C   UNL     1      -3.909   5.476  -0.646  0.00  0.00    +0.280 C 
ENDBRANCH  28  30
ENDBRANCH   3  28
TORSDOF 4
