REMARK  Name = ZINC01921564
REMARK  6 active torsions:
REMARK  status: ('A' for Active; 'I' for Inactive)
REMARK    1  A    between atoms: C_10  and  N_11
REMARK    2  A    between atoms: C_12  and  N_19
REMARK    3  A    between atoms: C_20  and  C_22
REMARK    4  A    between atoms: C_22  and  S_23
REMARK    5  A    between atoms: S_23  and  C_24
REMARK    6  A    between atoms: C_26  and  N_31
REMARK                            x       y       z     vdW  Elec       q    Type
REMARK                         _______ _______ _______ _____ _____    ______ ____
ROOT
ATOM      1  N   UNL     1      -2.203  -0.296   0.067  0.00  0.00    -0.248 N 
ATOM      2  C   UNL     1      -2.319   1.074   0.030  0.00  0.00    +0.119 A 
ATOM      3  C   UNL     1      -3.559   1.641  -0.009  0.00  0.00    +0.114 A 
ATOM      4  C   UNL     1      -4.692   0.808  -0.004  0.00  0.00    +0.278 A 
ATOM      5  O   UNL     1      -5.810   1.292  -0.039  0.00  0.00    -0.266 OA
ATOM      6  N   UNL     1      -4.534  -0.530   0.039  0.00  0.00    -0.153 NA
ATOM      7  C   UNL     1      -3.303  -1.072   0.076  0.00  0.00    +0.358 A 
ATOM      8  O   UNL     1      -3.182  -2.281   0.114  0.00  0.00    -0.244 OA
ENDROOT
BRANCH   1  18
ATOM      9  C   UNL     1       1.196  -1.616  -3.425  0.00  0.00    +0.001 A 
ATOM     10  C   UNL     1      -0.066  -1.027  -3.481  0.00  0.00    +0.001 A 
ATOM     11  C   UNL     1      -0.775  -0.782  -2.345  0.00  0.00    +0.010 A 
ATOM     12  C   UNL     1      -0.231  -1.125  -1.097  0.00  0.00    +0.006 A 
ATOM     13  C   UNL     1       1.052  -1.724  -1.039  0.00  0.00    -0.016 A 
ATOM     14  C   UNL     1       1.755  -1.963  -2.233  0.00  0.00    +0.008 A 
ATOM     15  C   UNL     1       1.598  -2.070   0.208  0.00  0.00    +0.008 A 
ATOM     16  C   UNL     1       0.895  -1.828   1.349  0.00  0.00    +0.003 A 
ATOM     17  C   UNL     1      -0.363  -1.234   1.304  0.00  0.00    +0.027 A 
ATOM     18  C   UNL     1      -0.936  -0.886   0.101  0.00  0.00    +0.060 A 
ENDBRANCH   1  18
BRANCH   2  19
ATOM     19  N   UNL     1      -1.191   1.867   0.026  0.00  0.00    -0.271 N 
ATOM     20  C   UNL     1      -0.718   2.372   1.183  0.00  0.00    +0.229 C 
ATOM     21  O   UNL     1      -1.334   2.204   2.214  0.00  0.00    -0.275 OA
ATOM     22  H   UNL     1      -0.677   2.087  -0.921  0.00  0.00    +0.156 HD
BRANCH  20  23
ATOM     23  C   UNL     1       0.579   3.139   1.196  0.00  0.00    +0.173 C 
BRANCH  23  24
ATOM     24  S   UNL     1       0.945   3.676   2.885  0.00  0.00    -0.078 S 
BRANCH  24  25
ATOM     25  C   UNL     1       2.467   4.522   2.614  0.00  0.00    +0.171 A 
ATOM     26  N   UNL     1       3.108   5.100   3.667  0.00  0.00    -0.209 NA
ATOM     27  C   UNL     1       4.293   5.762   3.475  0.00  0.00    +0.124 A 
ATOM     28  C   UNL     1       4.817   5.832   2.217  0.00  0.00    +0.113 A 
ATOM     29  C   UNL     1       4.121   5.220   1.155  0.00  0.00    +0.254 A 
ATOM     30  O   UNL     1       4.570   5.268   0.018  0.00  0.00    -0.268 OA
ATOM     31  N   UNL     1       2.967   4.580   1.397  0.00  0.00    -0.302 N 
ATOM     32  H   UNL     1       2.437   4.098   0.561  0.00  0.00    +0.171 HD
BRANCH  27  33
ATOM     33  N   UNL     1       4.944   6.348   4.536  0.00  0.00    -0.343 N 
ATOM     34  H   UNL     1       5.895   6.877   4.373  0.00  0.00    +0.144 HD
ATOM     35  H   UNL     1       4.515   6.286   5.547  0.00  0.00    +0.144 HD
ENDBRANCH  27  33
ENDBRANCH  24  25
ENDBRANCH  23  24
ENDBRANCH  20  23
ENDBRANCH   2  19
TORSDOF 6
