REMARK  Name = ZINC09511895
REMARK  7 active torsions:
REMARK  status: ('A' for Active; 'I' for Inactive)
REMARK    1  A    between atoms: C_6  and  N_7
REMARK    2  A    between atoms: C_11  and  N_26
REMARK    3  A    between atoms: C_15  and  S_16
REMARK    4  A    between atoms: S_16  and  C_17
REMARK    5  A    between atoms: C_17  and  C_18
REMARK    6  A    between atoms: N_20  and  C_21
REMARK    7  A    between atoms: C_21  and  C_22
REMARK                            x       y       z     vdW  Elec       q    Type
REMARK                         _______ _______ _______ _____ _____    ______ ____
ROOT
ATOM      1  N   UNL     1      -0.017   1.383   0.010  0.00  0.00    -0.287 N 
ATOM      2  C   UNL     1       0.002  -0.004   0.002  0.00  0.00    +0.075 A 
ATOM      3  C   UNL     1      -0.984  -0.978   0.006  0.00  0.00    +0.030 A 
ATOM      4  C   UNL     1      -0.632  -2.312  -0.004  0.00  0.00    +0.035 A 
ATOM      5  C   UNL     1       0.704  -2.686  -0.019  0.00  0.00    +0.128 A 
ATOM      6  C   UNL     1       1.697  -1.732  -0.023  0.00  0.00    +0.062 A 
ATOM      7  C   UNL     1       1.357  -0.377  -0.013  0.00  0.00    +0.093 A 
ATOM      8  N   UNL     1       2.088   0.769  -0.014  0.00  0.00    -0.221 NA
ATOM      9  C   UNL     1       1.285   1.805  -0.001  0.00  0.00    +0.175 A 
ENDROOT
BRANCH   1  15
ATOM     10  C   UNL     1      -2.019   2.202  -1.068  0.00  0.00    +0.029 A 
ATOM     11  C   UNL     1      -3.145   3.002  -1.053  0.00  0.00    +0.040 A 
ATOM     12  C   UNL     1      -3.406   3.812   0.040  0.00  0.00    +0.124 A 
ATOM     13  C   UNL     1      -2.543   3.815   1.123  0.00  0.00    +0.040 A 
ATOM     14  C   UNL     1      -1.420   3.011   1.115  0.00  0.00    +0.029 A 
ATOM     15  C   UNL     1      -1.156   2.199   0.020  0.00  0.00    +0.049 A 
ATOM     16  F   UNL     1      -4.504   4.599   0.050  0.00  0.00    -0.205 F 
ENDBRANCH   1  15
BRANCH   5  17
ATOM     17  N   UNL     1       1.065  -4.122  -0.031  0.00  0.00    +0.056 N 
ATOM     18  O   UNL     1       2.237  -4.455  -0.044  0.00  0.00    -0.126 OA
ATOM     19  O   UNL     1       0.191  -4.970  -0.027  0.00  0.00    -0.126 OA
ENDBRANCH   5  17
BRANCH   9  20
ATOM     20  S   UNL     1       1.804   3.488   0.003  0.00  0.00    -0.078 S 
BRANCH  20  21
ATOM     21  C   UNL     1       3.600   3.264  -0.015  0.00  0.00    +0.173 C 
BRANCH  21  22
ATOM     22  C   UNL     1       4.275   4.611  -0.015  0.00  0.00    +0.224 C 
ATOM     23  O   UNL     1       3.607   5.624  -0.004  0.00  0.00    -0.275 OA
ATOM     24  N   UNL     1       5.620   4.691  -0.027  0.00  0.00    -0.306 N 
ATOM     25  H   UNL     1       6.154   3.881  -0.036  0.00  0.00    +0.149 HD
BRANCH  24  26
ATOM     26  C   UNL     1       6.277   6.001  -0.027  0.00  0.00    +0.217 C 
BRANCH  26  27
ATOM     27  C   UNL     1       7.795   5.811  -0.042  0.00  0.00    +0.405 C 
ATOM     28  F   UNL     1       8.165   5.104  -1.192  0.00  0.00    -0.169 F 
ATOM     29  F   UNL     1       8.421   7.062  -0.042  0.00  0.00    -0.169 F 
ATOM     30  F   UNL     1       8.186   5.093   1.093  0.00  0.00    -0.169 F 
ENDBRANCH  26  27
ENDBRANCH  24  26
ENDBRANCH  21  22
ENDBRANCH  20  21
ENDBRANCH   9  20
TORSDOF 7
