REMARK  Name = ZINC39891658
REMARK  5 active torsions:
REMARK  status: ('A' for Active; 'I' for Inactive)
REMARK    1  A    between atoms: C_1  and  C_2
REMARK    2  A    between atoms: C_5  and  C_21
REMARK    3  A    between atoms: N_6  and  N_7
REMARK    4  A    between atoms: N_7  and  S_8
REMARK    5  A    between atoms: S_8  and  C_11
REMARK                            x       y       z     vdW  Elec       q    Type
REMARK                         _______ _______ _______ _____ _____    ______ ____
ROOT
ATOM      1  S   UNL     1       0.266  -1.760   3.629  0.00  0.00    +0.085 S 
ATOM      2  O   UNL     1       0.200  -1.137   4.905  0.00  0.00    -0.149 OA
ATOM      3  O   UNL     1      -0.642  -2.778   3.230  0.00  0.00    -0.149 OA
ENDROOT
BRANCH   1   4
ATOM      4  C   UNL     1       1.883  -2.443   3.485  0.00  0.00    +0.110 A 
ATOM      5  C   UNL     1       2.083  -3.576   2.697  0.00  0.00    +0.029 A 
ATOM      6  C   UNL     1       3.319  -4.129   2.565  0.00  0.00    +0.010 A 
ATOM      7  C   UNL     1       4.414  -3.552   3.231  0.00  0.00    -0.018 A 
ATOM      8  C   UNL     1       5.705  -4.094   3.118  0.00  0.00    +0.008 A 
ATOM      9  C   UNL     1       6.742  -3.508   3.777  0.00  0.00    +0.001 A 
ATOM     10  C   UNL     1       6.543  -2.376   4.565  0.00  0.00    +0.001 A 
ATOM     11  C   UNL     1       5.306  -1.823   4.697  0.00  0.00    +0.008 A 
ATOM     12  C   UNL     1       4.211  -2.400   4.032  0.00  0.00    -0.016 A 
ATOM     13  C   UNL     1       2.921  -1.854   4.140  0.00  0.00    +0.037 A 
ENDBRANCH   1   4
BRANCH   1  14
ATOM     14  N   UNL     1       0.144  -0.550   2.505  0.00  0.00    -0.150 N 
ATOM     15  H   UNL     1      -0.013   0.364   2.791  0.00  0.00    +0.195 HD
BRANCH  14  21
ATOM     16  C   UNL     1       2.215   0.712   0.587  0.00  0.00    +0.090 C 
ATOM     17  C   UNL     1       1.159  -0.315   0.270  0.00  0.00    +0.149 A 
ATOM     18  N   UNL     1       0.938  -0.864  -0.894  0.00  0.00    -0.133 NA
ATOM     19  N   UNL     1      -0.038  -1.696  -0.802  0.00  0.00    -0.133 NA
ATOM     20  C   UNL     1      -0.483  -1.717   0.425  0.00  0.00    +0.149 A 
ATOM     21  N   UNL     1       0.267  -0.845   1.141  0.00  0.00    -0.216 N 
ATOM     22  C   UNL     1      -1.618  -2.559   0.949  0.00  0.00    +0.090 C 
ENDBRANCH  14  21
ENDBRANCH   1  14
TORSDOF 3
