REMARK  Name = ZINC16363639
REMARK  10 active torsions:
REMARK  status: ('A' for Active; 'I' for Inactive)
REMARK    1  A    between atoms: C_1  and  N_2
REMARK    2  A    between atoms: C_3  and  S_7
REMARK    3  A    between atoms: S_7  and  C_8
REMARK    4  A    between atoms: C_8  and  C_9
REMARK    5  A    between atoms: C_9  and  N_51
REMARK    6  A    between atoms: C_10  and  C_11
REMARK    7  A    between atoms: C_10  and  N_51
REMARK    8  A    between atoms: C_20  and  O_21
REMARK    9  A    between atoms: O_21  and  C_22
REMARK   10  A    between atoms: C_22  and  C_23
REMARK                            x       y       z     vdW  Elec       q    Type
REMARK                         _______ _______ _______ _____ _____    ______ ____
ROOT
ATOM      1  C   UNL     1      -0.112   5.253   0.031  0.00  0.00    -0.015 A 
ATOM      2  C   UNL     1      -0.095   3.849   0.024  0.00  0.00    -0.013 A 
ATOM      3  C   UNL     1      -1.288   3.105   0.031  0.00  0.00    +0.009 A 
ATOM      4  C   UNL     1      -1.235   1.746   0.018  0.00  0.00    +0.001 A 
ATOM      5  C   UNL     1      -0.013   1.076   0.008  0.00  0.00    +0.001 A 
ATOM      6  C   UNL     1       1.163   1.762   0.000  0.00  0.00    +0.008 A 
ATOM      7  C   UNL     1       1.148   3.167   0.008  0.00  0.00    -0.017 A 
ATOM      8  C   UNL     1       2.342   3.909   0.000  0.00  0.00    +0.012 A 
ATOM      9  C   UNL     1       2.292   5.268   0.007  0.00  0.00    +0.046 A 
ATOM     10  C   UNL     1       1.067   5.942   0.023  0.00  0.00    +0.123 A 
ENDROOT
BRANCH   1  11
ATOM     11  C   UNL     1      -1.423   5.995   0.048  0.00  0.00    -0.042 C 
BRANCH  11  12
ATOM     12  N   UNL     1      -1.830   6.226   1.447  0.00  0.00    +0.382 N 
ATOM     13  H   UNL     1      -1.934   5.323   1.923  0.00  0.00    -0.085 HD
ATOM     14  H   UNL     1      -1.108   6.782   1.922  0.00  0.00    -0.085 HD
BRANCH  12  15
ATOM     15  C   UNL     1      -3.113   6.952   1.494  0.00  0.00    -0.071 C 
BRANCH  15  16
ATOM     16  C   UNL     1      -3.508   7.177   2.955  0.00  0.00    +0.058 C 
BRANCH  16  17
ATOM     17  S   UNL     1      -5.082   8.068   3.023  0.00  0.00    -0.086 S 
BRANCH  17  20
ATOM     18  C   UNL     1      -7.483   9.443   4.822  0.00  0.00    +0.177 C 
ATOM     19  N   UNL     1      -6.322   8.778   5.418  0.00  0.00    -0.223 N 
ATOM     20  C   UNL     1      -5.290   8.187   4.769  0.00  0.00    +0.209 A 
ATOM     21  N   UNL     1      -4.470   7.724   5.688  0.00  0.00    -0.102 NA
ATOM     22  N   UNL     1      -4.921   7.980   6.863  0.00  0.00    -0.022 NA
ATOM     23  N   UNL     1      -6.041   8.613   6.785  0.00  0.00    -0.043 NA
ENDBRANCH  17  20
ENDBRANCH  16  17
ENDBRANCH  15  16
ENDBRANCH  12  15
ENDBRANCH  11  12
ENDBRANCH   1  11
BRANCH  10  24
ATOM     24  O   UNL     1       1.050   7.301   0.029  0.00  0.00    -0.487 OA
BRANCH  24  25
ATOM     25  C   UNL     1       2.315   7.966   0.020  0.00  0.00    +0.266 C 
BRANCH  25  26
ATOM     26  C   UNL     1       2.098   9.457   0.029  0.00  0.00    +0.008 A 
ATOM     27  C   UNL     1       0.814   9.969   0.044  0.00  0.00    +0.010 A 
ATOM     28  C   UNL     1       0.615  11.336   0.053  0.00  0.00    +0.020 A 
ATOM     29  C   UNL     1       1.700  12.194   0.047  0.00  0.00    +0.042 A 
ATOM     30  C   UNL     1       2.986  11.683   0.032  0.00  0.00    +0.040 A 
ATOM     31  C   UNL     1       3.184  10.314   0.029  0.00  0.00    +0.049 A 
ATOM     32 CL   UNL     1       4.797   9.671   0.017  0.00  0.00    -0.083 Cl
ATOM     33 CL   UNL     1       1.450  13.912   0.057  0.00  0.00    -0.083 Cl
ENDBRANCH  25  26
ENDBRANCH  24  25
ENDBRANCH  10  24
TORSDOF 9
