REMARK  Name = ZINC19299991
REMARK  11 active torsions:
REMARK  status: ('A' for Active; 'I' for Inactive)
REMARK    1  A    between atoms: C_1  and  C_2
REMARK    2  A    between atoms: C_2  and  O_3
REMARK    3  A    between atoms: O_3  and  C_4
REMARK    4  A    between atoms: C_7  and  O_30
REMARK    5  A    between atoms: C_8  and  C_10
REMARK    6  A    between atoms: C_20  and  C_28
REMARK    7  A    between atoms: C_21  and  N_27
REMARK    8  A    between atoms: C_22  and  C_23
REMARK    9  A    between atoms: C_22  and  C_25
REMARK   10  A    between atoms: O_30  and  C_31
REMARK   11  A    between atoms: C_31  and  C_32
REMARK                            x       y       z     vdW  Elec       q    Type
REMARK                         _______ _______ _______ _____ _____    ______ ____
ROOT
ATOM      1  C   UNL     1      -2.521   1.261   0.020  0.00  0.00    +0.070 C 
ATOM      2  C   UNL     1      -3.305   1.641  -1.219  0.00  0.00    +0.030 C 
ATOM      3  C   UNL     1      -2.358   1.737  -2.401  0.00  0.00    +0.009 C 
ATOM      4  C   UNL     1      -3.023   1.651  -3.736  0.00  0.00    +0.001 C 
ATOM      5  C   UNL     1      -3.715   2.920  -4.174  0.00  0.00    +0.004 C 
ATOM      6  C   UNL     1      -5.034   3.127  -3.454  0.00  0.00    +0.027 C 
ATOM      7  C   UNL     1      -4.843   3.378  -2.012  0.00  0.00    -0.022 C 
ATOM      8  C   UNL     1      -4.129   2.882  -1.057  0.00  0.00    -0.029 C 
ATOM      9  C   UNL     1      -4.204   3.554   0.266  0.00  0.00    +0.074 C 
ATOM     10  C   UNL     1      -3.779   2.926   1.385  0.00  0.00    +0.054 C 
ATOM     11  C   UNL     1      -3.231   1.524   1.328  0.00  0.00    +0.188 C 
ENDROOT
BRANCH   1  16
ATOM     12  C   UNL     1      -0.054   4.124   0.025  0.00  0.00    +0.121 A 
ATOM     13  C   UNL     1       1.157   3.446   0.009  0.00  0.00    +0.049 A 
ATOM     14  C   UNL     1       1.175   2.066   0.002  0.00  0.00    +0.049 A 
ATOM     15  C   UNL     1      -0.016   1.356   0.009  0.00  0.00    +0.124 A 
ATOM     16  C   UNL     1      -1.227   2.033   0.019  0.00  0.00    +0.004 A 
ATOM     17  C   UNL     1      -1.245   3.414   0.033  0.00  0.00    +0.053 A 
BRANCH  12  18
ATOM     18  O   UNL     1      -0.072   5.483   0.032  0.00  0.00    -0.492 OA
BRANCH  18  20
ATOM     19  C   UNL     1       0.971   7.663   0.034  0.00  0.00    +0.048 C 
ATOM     20  C   UNL     1       1.192   6.149   0.023  0.00  0.00    +0.225 C 
ENDBRANCH  18  20
ENDBRANCH  12  18
BRANCH  15  21
ATOM     21  O   UNL     1       0.002  -0.004   0.002  0.00  0.00    -0.492 OA
BRANCH  21  22
ATOM     22  C   UNL     1       1.284  -0.635  -0.014  0.00  0.00    +0.225 C 
ATOM     23  C   UNL     1       1.104  -2.155  -0.020  0.00  0.00    +0.048 C 
ENDBRANCH  21  22
ENDBRANCH  15  21
ENDBRANCH   1  16
BRANCH  10  24
ATOM     24  N   UNL     1      -3.856   3.571   2.588  0.00  0.00    -0.358 N 
ATOM     25  H   UNL     1      -3.513   3.068   3.504  0.00  0.00    +0.142 HD
ATOM     26  H   UNL     1      -4.261   4.592   2.640  0.00  0.00    +0.142 HD
ENDBRANCH  10  24
BRANCH  11  27
ATOM     27  C   UNL     1      -4.327   0.553   1.481  0.00  0.00    +0.091 C 
ATOM     28  N   UNL     1      -5.172  -0.197   1.600  0.00  0.00    -0.194 NA
ENDBRANCH  11  27
BRANCH  11  29
ATOM     29  C   UNL     1      -2.277   1.345   2.434  0.00  0.00    +0.091 C 
ATOM     30  N   UNL     1      -1.540   1.207   3.289  0.00  0.00    -0.194 NA
ENDBRANCH  11  29
BRANCH   9  31
ATOM     31  C   UNL     1      -4.732   4.882   0.357  0.00  0.00    +0.101 C 
ATOM     32  N   UNL     1      -5.151   5.936   0.428  0.00  0.00    -0.191 NA
ENDBRANCH   9  31
TORSDOF 9
