REMARK  Name = ZINC08016246
REMARK  6 active torsions:
REMARK  status: ('A' for Active; 'I' for Inactive)
REMARK    1  A    between atoms: C_1  and  C_2
REMARK    2  A    between atoms: C_4  and  C_14
REMARK    3  A    between atoms: C_5  and  C_13
REMARK    4  A    between atoms: C_9  and  C_12
REMARK    5  A    between atoms: N_15  and  N_16
REMARK    6  A    between atoms: C_17  and  C_22
REMARK                            x       y       z     vdW  Elec       q    Type
REMARK                         _______ _______ _______ _____ _____    ______ ____
ROOT
ATOM      1  C   UNL     1      -0.141   1.498   0.023  0.00  0.00    +0.064 C 
ATOM      2  C   UNL     1      -0.052  -0.006   0.008  0.00  0.00    +0.023 A 
ATOM      3  C   UNL     1      -0.123  -0.783  -1.088  0.00  0.00    +0.032 A 
ATOM      4  C   UNL     1       0.010  -2.169  -0.629  0.00  0.00    +0.016 A 
ATOM      5  C   UNL     1       0.152  -2.111   0.728  0.00  0.00    +0.031 A 
ATOM      6  N   UNL     1       0.120  -0.803   1.104  0.00  0.00    -0.299 N 
ATOM      7  C   UNL     1       0.241  -0.344   2.419  0.00  0.00    +0.181 A 
ATOM      8  C   UNL     1       1.221  -0.747   3.354  0.00  0.00    +0.094 A 
ATOM      9  C   UNL     1       1.002  -0.080   4.501  0.00  0.00    +0.136 A 
ATOM     10  O   UNL     1      -0.064   0.717   4.326  0.00  0.00    -0.358 OA
ATOM     11  N   UNL     1      -0.529   0.540   3.000  0.00  0.00    -0.060 NA
ATOM     12  C   UNL     1       1.813  -0.206   5.765  0.00  0.00    +0.089 C 
ATOM     13  C   UNL     1       0.323  -3.291   1.650  0.00  0.00    +0.064 C 
ENDROOT
BRANCH   4  14
ATOM     14  C   UNL     1      -0.008  -3.382  -1.464  0.00  0.00    +0.143 C 
ATOM     15  N   UNL     1       0.121  -4.551  -0.914  0.00  0.00    -0.171 NA
BRANCH  15  16
ATOM     16  N   UNL     1       0.105  -5.705  -1.708  0.00  0.00    -0.191 N 
ATOM     17  C   UNL     1      -0.988  -6.448  -2.065  0.00  0.00    +0.153 A 
ATOM     18  N   UNL     1      -0.563  -7.433  -2.806  0.00  0.00    -0.132 NA
ATOM     19  N   UNL     1       0.713  -7.366  -2.941  0.00  0.00    -0.120 NA
ATOM     20  C   UNL     1       1.177  -6.321  -2.294  0.00  0.00    +0.223 A 
ATOM     21  S   UNL     1       2.861  -5.812  -2.195  0.00  0.00    -0.007 SA
ATOM     22  C   UNL     1      -2.418  -6.178  -1.673  0.00  0.00    +0.090 C 
ENDBRANCH  15  16
ENDBRANCH   4  14
TORSDOF 2
