REMARK  Name = ZINC33810642
REMARK  8 active torsions:
REMARK  status: ('A' for Active; 'I' for Inactive)
REMARK    1  A    between atoms: C_1  and  C_2
REMARK    2  A    between atoms: C_5  and  C_8
REMARK    3  A    between atoms: C_8  and  S_9
REMARK    4  A    between atoms: S_9  and  C_10
REMARK    5  A    between atoms: C_17  and  C_29
REMARK    6  A    between atoms: C_23  and  C_27
REMARK    7  A    between atoms: C_23  and  C_28
REMARK    8  A    between atoms: C_33  and  C_35
REMARK                            x       y       z     vdW  Elec       q    Type
REMARK                         _______ _______ _______ _____ _____    ______ ____
ROOT
ATOM      1  C   UNL     1      -3.357   0.083   3.589  0.00  0.00    +0.171 A 
ATOM      2  N   UNL     1      -3.767   0.660   2.425  0.00  0.00    -0.208 NA
ATOM      3  C   UNL     1      -3.108   0.389   1.254  0.00  0.00    +0.135 A 
ATOM      4  C   UNL     1      -2.045  -0.458   1.269  0.00  0.00    +0.069 A 
ATOM      5  C   UNL     1      -1.654  -1.038   2.496  0.00  0.00    +0.258 A 
ATOM      6  O   UNL     1      -0.705  -1.808   2.537  0.00  0.00    -0.267 OA
ATOM      7  N   UNL     1      -2.330  -0.741   3.616  0.00  0.00    -0.302 N 
ATOM      8  C   UNL     1      -1.293  -0.775   0.011  0.00  0.00    +0.092 C 
ATOM      9  C   UNL     1      -2.093  -0.409  -1.213  0.00  0.00    +0.024 C 
ATOM     10  C   UNL     1      -3.144   0.435  -1.129  0.00  0.00    +0.017 C 
ATOM     11  N   UNL     1      -3.517   0.967   0.075  0.00  0.00    -0.302 N 
ATOM     12  C   UNL     1      -3.932   0.819  -2.357  0.00  0.00    +0.058 C 
ATOM     13  C   UNL     1      -3.921  -0.338  -3.359  0.00  0.00    -0.023 C 
ATOM     14  C   UNL     1      -2.465  -0.663  -3.709  0.00  0.00    +0.086 C 
ATOM     15  C   UNL     1      -1.714  -0.974  -2.443  0.00  0.00    +0.162 C 
ATOM     16  O   UNL     1      -0.762  -1.727  -2.485  0.00  0.00    -0.292 OA
ATOM     17  C   UNL     1      -4.586  -1.565  -2.733  0.00  0.00    +0.011 C 
ATOM     18  C   UNL     1      -4.680   0.070  -4.623  0.00  0.00    +0.011 C 
ATOM     19  H   UNL     1      -4.149   1.867   0.094  0.00  0.00    +0.153 HD
ATOM     20  H   UNL     1      -2.016  -1.197   4.566  0.00  0.00    +0.171 HD
ENDROOT
BRANCH   8  21
ATOM     21  C   UNL     1       0.002  -0.004   0.002  0.00  0.00    -0.035 A 
ATOM     22  C   UNL     1      -0.017   1.378   0.010  0.00  0.00    +0.004 A 
ATOM     23  C   UNL     1       1.171   2.086   0.002  0.00  0.00    +0.001 A 
ATOM     24  C   UNL     1       2.377   1.411  -0.015  0.00  0.00    +0.003 A 
ATOM     25  C   UNL     1       2.396   0.029  -0.021  0.00  0.00    -0.050 A 
ATOM     26  C   UNL     1       1.208  -0.679  -0.013  0.00  0.00    +0.008 A 
ATOM     27  C   UNL     1       3.711  -0.707  -0.037  0.00  0.00    +0.044 C 
ENDBRANCH   8  21
BRANCH   1  28
ATOM     28  S   UNL     1      -4.216   0.445   5.084  0.00  0.00    -0.083 S 
BRANCH  28  29
ATOM     29  C   UNL     1      -3.263  -0.564   6.246  0.00  0.00    +0.112 C 
BRANCH  29  34
ATOM     30  C   UNL     1      -5.450   0.035  11.561  0.00  0.00    +0.044 C 
ATOM     31  C   UNL     1      -4.880  -0.122  10.175  0.00  0.00    -0.050 A 
ATOM     32  C   UNL     1      -5.355  -1.116   9.340  0.00  0.00    +0.003 A 
ATOM     33  C   UNL     1      -4.831  -1.259   8.069  0.00  0.00    +0.005 A 
ATOM     34  C   UNL     1      -3.834  -0.408   7.632  0.00  0.00    -0.037 A 
ATOM     35  C   UNL     1      -3.356   0.584   8.469  0.00  0.00    +0.005 A 
ATOM     36  C   UNL     1      -3.882   0.730   9.738  0.00  0.00    +0.003 A 
ENDBRANCH  29  34
ENDBRANCH  28  29
ENDBRANCH   1  28
TORSDOF 4
