REMARK  Name = ZINC05702064
REMARK  2 active torsions:
REMARK  status: ('A' for Active; 'I' for Inactive)
REMARK    1  A    between atoms: N_11  and  C_15
REMARK    2  A    between atoms: C_15  and  C_16
REMARK                            x       y       z     vdW  Elec       q    Type
REMARK                         _______ _______ _______ _____ _____    ______ ____
ROOT
ATOM      1  C   UNL     1      -1.184  -0.678   0.010  0.00  0.00    +0.002 A 
ATOM      2  C   UNL     1       0.002  -0.004   0.002  0.00  0.00    +0.009 A 
ATOM      3  C   UNL     1      -0.017   1.401   0.010  0.00  0.00    -0.014 A 
ATOM      4  C   UNL     1       1.148   2.186   0.003  0.00  0.00    +0.009 A 
ATOM      5  C   UNL     1       1.048   3.546   0.012  0.00  0.00    +0.003 A 
ATOM      6  C   UNL     1      -0.199   4.184   0.028  0.00  0.00    +0.029 A 
ATOM      7  C   UNL     1      -1.327   3.451   0.035  0.00  0.00    +0.118 A 
ATOM      8  C   UNL     1      -1.268   2.053   0.031  0.00  0.00    +0.031 A 
ATOM      9  C   UNL     1      -2.480   1.365   0.034  0.00  0.00    +0.061 A 
ATOM     10  C   UNL     1      -2.411  -0.027   0.025  0.00  0.00    +0.025 A 
ATOM     11  N   UNL     1      -3.631   2.171   0.050  0.00  0.00    -0.194 N 
ATOM     12  S   UNL     1      -3.072   3.751   0.054  0.00  0.00    +0.076 S 
ATOM     13  O   UNL     1      -3.424   4.339  -1.191  0.00  0.00    -0.150 OA
ATOM     14  O   UNL     1      -3.400   4.324   1.312  0.00  0.00    -0.150 OA
ENDROOT
BRANCH  11  15
ATOM     15  C   UNL     1      -5.026   1.723   0.060  0.00  0.00    +0.227 C 
BRANCH  15  16
ATOM     16  C   UNL     1      -5.453   1.443   1.478  0.00  0.00    +0.242 C 
ATOM     17  O   UNL     1      -4.670   1.601   2.389  0.00  0.00    -0.273 OA
ATOM     18  N   UNL     1      -6.706   1.016   1.732  0.00  0.00    -0.223 N 
ATOM     19  C   UNL     1      -7.245   0.703   3.063  0.00  0.00    +0.137 C 
ATOM     20  C   UNL     1      -8.698   0.273   2.781  0.00  0.00    +0.125 C 
ATOM     21  N   UNL     1      -8.820   0.381   1.320  0.00  0.00    -0.297 N 
ATOM     22  C   UNL     1      -7.656   0.805   0.811  0.00  0.00    +0.309 C 
ATOM     23  O   UNL     1      -7.478   0.982  -0.378  0.00  0.00    -0.252 OA
ATOM     24  H   UNL     1      -9.617   0.178   0.806  0.00  0.00    +0.150 HD
ENDBRANCH  15  16
ENDBRANCH  11  15
TORSDOF 2
