REMARK  Name = ZINC58917513
REMARK  9 active torsions:
REMARK  status: ('A' for Active; 'I' for Inactive)
REMARK    1  A    between atoms: C_1  and  C_2
REMARK    2  A    between atoms: C_2  and  C_17
REMARK    3  A    between atoms: N_3  and  N_4
REMARK    4  A    between atoms: C_5  and  C_7
REMARK    5  A    between atoms: C_10  and  O_15
REMARK    6  A    between atoms: C_11  and  O_13
REMARK    7  A    between atoms: O_13  and  C_14
REMARK    8  A    between atoms: O_15  and  C_16
REMARK    9  A    between atoms: C_30  and  C_33
REMARK                            x       y       z     vdW  Elec       q    Type
REMARK                         _______ _______ _______ _____ _____    ______ ____
ROOT
ATOM      1  C   UNL     1      -0.000  -0.734  -1.278  0.00  0.00    -0.002 A 
ATOM      2  C   UNL     1      -0.015  -0.031  -2.486  0.00  0.00    +0.011 A 
ATOM      3  C   UNL     1      -0.023  -0.722  -3.676  0.00  0.00    +0.024 A 
ATOM      4  C   UNL     1      -0.014  -2.116  -3.681  0.00  0.00    +0.031 A 
ATOM      5  C   UNL     1       0.013  -2.820  -2.488  0.00  0.00    -0.019 A 
ATOM      6  C   UNL     1       0.019  -2.129  -1.288  0.00  0.00    +0.015 A 
ATOM      7  C   UNL     1       0.059  -4.322  -2.442  0.00  0.00    +0.049 C 
ATOM      8  C   UNL     1       1.205  -4.723  -1.527  0.00  0.00    -0.023 C 
ATOM      9  C   UNL     1       2.247  -5.090  -2.227  0.00  0.00    -0.030 C 
ATOM     10  C   UNL     1       1.960  -5.003  -3.711  0.00  0.00    +0.033 C 
ATOM     11  C   UNL     1       0.402  -4.952  -3.789  0.00  0.00    +0.029 C 
ATOM     12  C   UNL     1      -0.102  -4.228  -5.002  0.00  0.00    +0.105 C 
ATOM     13  N   UNL     1      -0.038  -2.783  -4.900  0.00  0.00    -0.336 N 
ATOM     14  H   UNL     1      -0.037  -2.259  -5.716  0.00  0.00    +0.147 HD
ENDROOT
BRANCH  12  15
ATOM     15  C   UNL     1       0.739  -4.636  -6.184  0.00  0.00    -0.027 A 
ATOM     16  C   UNL     1       1.982  -4.064  -6.378  0.00  0.00    +0.008 A 
ATOM     17  C   UNL     1       2.754  -4.438  -7.462  0.00  0.00    +0.038 A 
ATOM     18  C   UNL     1       2.281  -5.385  -8.354  0.00  0.00    +0.123 A 
ATOM     19  C   UNL     1       1.036  -5.958  -8.159  0.00  0.00    +0.038 A 
ATOM     20  C   UNL     1       0.268  -5.586  -7.071  0.00  0.00    +0.008 A 
ATOM     21  F   UNL     1       3.035  -5.751  -9.414  0.00  0.00    -0.205 F 
ENDBRANCH  12  15
BRANCH   1  23
ATOM     22  C   UNL     1      -0.018   1.503   0.010  0.00  0.00    +0.068 C 
ATOM     23  C   UNL     1       0.002  -0.004   0.002  0.00  0.00    +0.063 C 
ATOM     24  N   UNL     1       0.022  -0.659   1.123  0.00  0.00    -0.184 NA
BRANCH  24  25
ATOM     25  N   UNL     1       0.024   0.035   2.340  0.00  0.00    -0.203 N 
ATOM     26  C   UNL     1       0.044  -0.645   3.503  0.00  0.00    +0.263 C 
ATOM     27  O   UNL     1       0.060  -1.861   3.497  0.00  0.00    -0.268 OA
ATOM     28  H   UNL     1       0.011   1.005   2.345  0.00  0.00    +0.178 HD
BRANCH  26  29
ATOM     29  C   UNL     1       0.046   0.086   4.785  0.00  0.00    +0.042 A 
ATOM     30  C   UNL     1       0.021   1.483   4.795  0.00  0.00    +0.017 A 
ATOM     31  C   UNL     1       0.024   2.163   5.992  0.00  0.00    +0.050 A 
ATOM     32  C   UNL     1       0.051   1.465   7.192  0.00  0.00    +0.162 A 
ATOM     33  C   UNL     1       0.075   0.071   7.190  0.00  0.00    +0.162 A 
ATOM     34  C   UNL     1       0.067  -0.618   5.992  0.00  0.00    +0.062 A 
BRANCH  33  35
ATOM     35  O   UNL     1       0.101  -0.611   8.366  0.00  0.00    -0.491 OA
ATOM     36  C   UNL     1       0.125  -2.037   8.289  0.00  0.00    +0.277 C 
ENDBRANCH  33  35
BRANCH  32  37
ATOM     37  O   UNL     1       0.054   2.140   8.370  0.00  0.00    -0.491 OA
ATOM     38  C   UNL     1       0.028   3.568   8.299  0.00  0.00    +0.277 C 
ENDBRANCH  32  37
ENDBRANCH  26  29
ENDBRANCH  24  25
ENDBRANCH   1  23
TORSDOF 6
