REMARK  Name = ZINC36005480
REMARK  13 active torsions:
REMARK  status: ('A' for Active; 'I' for Inactive)
REMARK    1  A    between atoms: C_1  and  C_2
REMARK    2  A    between atoms: C_2  and  N_3
REMARK    3  A    between atoms: C_4  and  C_23
REMARK    4  A    between atoms: C_5  and  C_18
REMARK    5  A    between atoms: C_6  and  C_11
REMARK    6  A    between atoms: C_18  and  O_20
REMARK    7  A    between atoms: O_20  and  C_21
REMARK    8  A    between atoms: C_21  and  C_22
REMARK    9  A    between atoms: C_23  and  N_24
REMARK   10  A    between atoms: C_28  and  C_31
REMARK   11  A    between atoms: N_34  and  C_35
REMARK   12  A    between atoms: C_35  and  C_36
REMARK   13  A    between atoms: C_35  and  C_37
REMARK                            x       y       z     vdW  Elec       q    Type
REMARK                         _______ _______ _______ _____ _____    ______ ____
ROOT
ATOM      1  N   UNL     1       1.028  -0.474  -0.761  0.00  0.00    -0.258 N 
ATOM      2  C   UNL     1       0.046  -0.527  -1.709  0.00  0.00    +0.041 C 
ATOM      3  C   UNL     1       0.317  -0.915  -2.974  0.00  0.00    +0.080 C 
ATOM      4  C   UNL     1       1.748  -1.288  -3.305  0.00  0.00    +0.145 C 
ATOM      5  N   UNL     1       2.732  -1.197  -2.213  0.00  0.00    -0.288 N 
ATOM      6  C   UNL     1       2.308  -0.788  -1.000  0.00  0.00    +0.307 C 
ATOM      7  O   UNL     1       3.112  -0.706  -0.093  0.00  0.00    -0.252 OA
ATOM      8  H   UNL     1       3.663  -1.423  -2.363  0.00  0.00    +0.151 HD
ENDROOT
BRANCH   4   9
ATOM      9  C   UNL     1       2.214  -0.394  -4.425  0.00  0.00    -0.004 A 
ATOM     10  C   UNL     1       2.857   0.796  -4.137  0.00  0.00    +0.007 A 
ATOM     11  C   UNL     1       3.285   1.616  -5.164  0.00  0.00    +0.000 A 
ATOM     12  C   UNL     1       3.070   1.248  -6.479  0.00  0.00    +0.001 A 
ATOM     13  C   UNL     1       2.427   0.059  -6.768  0.00  0.00    +0.020 A 
ATOM     14  C   UNL     1       2.003  -0.766  -5.740  0.00  0.00    +0.046 A 
ATOM     15 CL   UNL     1       1.202  -2.262  -6.102  0.00  0.00    -0.083 Cl
ENDBRANCH   4   9
BRANCH   1  17
ATOM     16  C   UNL     1       0.803   1.475   0.699  0.00  0.00    +0.025 C 
ATOM     17  C   UNL     1       0.662  -0.045   0.591  0.00  0.00    +0.111 C 
ENDBRANCH   1  17
BRANCH   3  18
ATOM     18  C   UNL     1      -0.699  -0.971  -3.955  0.00  0.00    +0.339 C 
ATOM     19  O   UNL     1      -1.260  -2.025  -4.191  0.00  0.00    -0.245 OA
BRANCH  18  20
ATOM     20  O   UNL     1      -1.048   0.144  -4.631  0.00  0.00    -0.462 OA
BRANCH  20  21
ATOM     21  C   UNL     1      -2.007  -0.005  -5.679  0.00  0.00    +0.229 C 
ATOM     22  C   UNL     1      -2.182   1.331  -6.404  0.00  0.00    +0.048 C 
ENDBRANCH  20  21
ENDBRANCH  18  20
ENDBRANCH   3  18
BRANCH   2  23
ATOM     23  C   UNL     1      -1.364  -0.147  -1.337  0.00  0.00    +0.136 C 
BRANCH  23  24
ATOM     24  N   UNL     1      -1.903  -1.133  -0.389  0.00  0.00    -0.294 NA
ATOM     25  C   UNL     1      -2.044  -2.450  -1.024  0.00  0.00    +0.104 C 
ATOM     26  C   UNL     1      -2.434  -3.485   0.037  0.00  0.00    +0.125 C 
ATOM     27  N   UNL     1      -3.631  -3.003   0.743  0.00  0.00    -0.280 N 
ATOM     28  C   UNL     1      -3.615  -1.637   1.288  0.00  0.00    +0.088 C 
ATOM     29  C   UNL     1      -3.178  -0.675   0.178  0.00  0.00    +0.107 C 
ATOM     30  C   UNL     1      -5.015  -1.262   1.778  0.00  0.00    +0.029 C 
ATOM     31  C   UNL     1      -4.714  -3.792   0.886  0.00  0.00    +0.303 C 
ATOM     32  O   UNL     1      -5.728  -3.348   1.390  0.00  0.00    -0.253 OA
ATOM     33  N   UNL     1      -4.674  -5.073   0.471  0.00  0.00    -0.297 N 
ATOM     34  H   UNL     1      -3.845  -5.449   0.136  0.00  0.00    +0.150 HD
BRANCH  33  35
ATOM     35  C   UNL     1      -5.883  -5.899   0.524  0.00  0.00    +0.068 C 
ATOM     36  C   UNL     1      -6.714  -5.669  -0.740  0.00  0.00    +0.027 C 
ATOM     37  C   UNL     1      -5.490  -7.375   0.614  0.00  0.00    +0.027 C 
ENDBRANCH  33  35
ENDBRANCH  23  24
ENDBRANCH   2  23
TORSDOF 8
