REMARK  Name = ZINC39662218
REMARK  9 active torsions:
REMARK  status: ('A' for Active; 'I' for Inactive)
REMARK    1  A    between atoms: C_1  and  C_2
REMARK    2  A    between atoms: C_2  and  C_3
REMARK    3  A    between atoms: C_3  and  C_4
REMARK    4  A    between atoms: C_4  and  C_6
REMARK    5  A    between atoms: C_4  and  C_7
REMARK    6  A    between atoms: C_11  and  C_20
REMARK    7  A    between atoms: N_22  and  C_23
REMARK    8  A    between atoms: C_23  and  C_25
REMARK    9  A    between atoms: C_23  and  C_27
REMARK                            x       y       z     vdW  Elec       q    Type
REMARK                         _______ _______ _______ _____ _____    ______ ____
ROOT
ATOM      1  C   UNL     1       1.320  -2.780   2.746  0.00  0.00    +0.218 C 
ATOM      2  O   UNL     1       1.603  -2.081   3.695  0.00  0.00    -0.275 OA
ATOM      3  N   UNL     1       1.582  -4.102   2.781  0.00  0.00    -0.300 N 
ATOM      4  C   UNL     1       1.413  -5.091   1.690  0.00  0.00    +0.121 C 
ATOM      5  C   UNL     1       2.642  -6.020   1.812  0.00  0.00    +0.100 C 
ATOM      6  C   UNL     1       3.089  -5.889   3.277  0.00  0.00    -0.004 C 
ATOM      7  C   UNL     1       2.111  -4.894   3.918  0.00  0.00    +0.115 C 
ATOM      8  C   UNL     1       4.511  -5.340   3.348  0.00  0.00    -0.010 C 
ATOM      9  C   UNL     1       4.955  -5.272   4.812  0.00  0.00    -0.082 C 
ATOM     10  N   UNL     1       4.896  -6.614   5.406  0.00  0.00    +0.379 N 
ATOM     11  C   UNL     1       3.510  -7.096   5.418  0.00  0.00    -0.082 C 
ATOM     12  C   UNL     1       3.005  -7.240   3.980  0.00  0.00    -0.010 C 
ATOM     13  H   UNL     1       5.466  -7.245   4.864  0.00  0.00    -0.086 HD
ATOM     14  H   UNL     1       5.246  -6.577   6.352  0.00  0.00    -0.086 HD
ENDROOT
BRANCH   5  15
ATOM     15  C   UNL     1       2.255  -7.444   1.505  0.00  0.00    +0.219 C 
ATOM     16  O   UNL     1       1.126  -7.828   1.729  0.00  0.00    -0.275 OA
ATOM     17  N   UNL     1       3.163  -8.291   0.982  0.00  0.00    -0.296 N 
ATOM     18  H   UNL     1       4.066  -7.984   0.802  0.00  0.00    +0.150 HD
BRANCH  17  19
ATOM     19  C   UNL     1       2.787  -9.675   0.683  0.00  0.00    +0.207 C 
BRANCH  19  20
ATOM     20  C   UNL     1       4.016 -10.546   0.708  0.00  0.00    -0.013 A 
ATOM     21  C   UNL     1       5.205 -10.080   0.178  0.00  0.00    +0.006 A 
ATOM     22  C   UNL     1       6.332 -10.879   0.201  0.00  0.00    +0.000 A 
ATOM     23  C   UNL     1       6.272 -12.144   0.754  0.00  0.00    +0.000 A 
ATOM     24  C   UNL     1       5.084 -12.610   1.285  0.00  0.00    +0.000 A 
ATOM     25  C   UNL     1       3.957 -11.810   1.266  0.00  0.00    +0.006 A 
ENDBRANCH  19  20
BRANCH  19  26
ATOM     26  C   UNL     1       2.167  -9.739  -0.651  0.00  0.00    +0.090 C 
ATOM     27  N   UNL     1       1.689  -9.788  -1.680  0.00  0.00    -0.194 NA
ENDBRANCH  19  26
ENDBRANCH  17  19
ENDBRANCH   5  15
BRANCH   1  28
ATOM     28  C   UNL     1       0.676  -2.172   1.527  0.00  0.00    +0.072 C 
ATOM     29  C   UNL     1       1.762  -1.705   0.556  0.00  0.00    +0.017 C 
BRANCH  28  30
ATOM     30  C   UNL     1      -0.182  -0.977   1.946  0.00  0.00    +0.012 C 
BRANCH  30  32
ATOM     31  C   UNL     1      -1.792   0.759   1.148  0.00  0.00    +0.004 C 
ATOM     32  C   UNL     1      -0.934  -0.436   0.729  0.00  0.00    -0.003 C 
ENDBRANCH  30  32
ENDBRANCH  28  30
ENDBRANCH   1  28
TORSDOF 7
