REMARK  Name = ZINC36550074
REMARK  13 active torsions:
REMARK  status: ('A' for Active; 'I' for Inactive)
REMARK    1  A    between atoms: C_1  and  C_2
REMARK    2  A    between atoms: C_2  and  C_3
REMARK    3  A    between atoms: C_2  and  C_4
REMARK    4  A    between atoms: C_2  and  N_5
REMARK    5  A    between atoms: C_6  and  C_8
REMARK    6  A    between atoms: C_8  and  C_10
REMARK    7  A    between atoms: C_8  and  N_19
REMARK    8  A    between atoms: C_13  and  O_18
REMARK    9  A    between atoms: C_14  and  O_16
REMARK   10  A    between atoms: O_16  and  C_17
REMARK   11  A    between atoms: N_19  and  C_20
REMARK   12  A    between atoms: C_27  and  C_29
REMARK   13  A    between atoms: C_32  and  N_35
REMARK                            x       y       z     vdW  Elec       q    Type
REMARK                         _______ _______ _______ _____ _____    ______ ____
ROOT
ATOM      1  C   UNL     1       2.945  -0.485  -2.319  0.00  0.00    +0.198 C 
ENDROOT
BRANCH   1   2
ATOM      2  C   UNL     1       3.214  -1.939  -2.029  0.00  0.00    -0.014 A 
ATOM      3  C   UNL     1       4.365  -2.307  -1.358  0.00  0.00    +0.010 A 
ATOM      4  C   UNL     1       4.617  -3.639  -1.090  0.00  0.00    +0.049 A 
ATOM      5  C   UNL     1       3.713  -4.610  -1.492  0.00  0.00    +0.158 A 
ATOM      6  C   UNL     1       2.554  -4.239  -2.167  0.00  0.00    +0.162 A 
ATOM      7  C   UNL     1       2.305  -2.901  -2.429  0.00  0.00    +0.055 A 
BRANCH   6   8
ATOM      8  O   UNL     1       1.664  -5.188  -2.564  0.00  0.00    -0.491 OA
ATOM      9  C   UNL     1       0.496  -4.735  -3.251  0.00  0.00    +0.277 C 
ENDBRANCH   6   8
BRANCH   5  10
ATOM     10  O   UNL     1       3.959  -5.921  -1.229  0.00  0.00    -0.503 OA
ATOM     11  H   UNL     1       3.606  -6.225  -0.382  0.00  0.00    +0.292 HD
ENDBRANCH   5  10
ENDBRANCH   1   2
BRANCH   1  13
ATOM     12  N   UNL     1       1.806   0.142  -0.215  0.00  0.00    -0.309 N 
ATOM     13  C   UNL     1       2.875   0.282  -1.024  0.00  0.00    +0.239 C 
ATOM     14  O   UNL     1       3.781   1.024  -0.709  0.00  0.00    -0.273 OA
ATOM     15  H   UNL     1       1.081  -0.451  -0.467  0.00  0.00    +0.149 HD
BRANCH  12  17
ATOM     16  C   UNL     1       1.787   2.388   0.752  0.00  0.00    +0.031 C 
ATOM     17  C   UNL     1       1.738   0.887   1.044  0.00  0.00    +0.026 C 
ATOM     18  C   UNL     1       2.924   0.501   1.930  0.00  0.00    +0.031 C 
ATOM     19  C   UNL     1       0.431   0.551   1.766  0.00  0.00    +0.031 C 
ENDBRANCH  12  17
ENDBRANCH   1  13
BRANCH   1  20
ATOM     20  N   UNL     1       4.025   0.056  -3.149  0.00  0.00    -0.250 N 
ATOM     21  C   UNL     1       3.941   1.312  -3.630  0.00  0.00    +0.252 C 
ATOM     22  O   UNL     1       3.000   2.018  -3.324  0.00  0.00    -0.270 OA
BRANCH  20  23
ATOM     23  C   UNL     1       5.143  -0.732  -3.441  0.00  0.00    +0.056 A 
ATOM     24  C   UNL     1       5.042  -1.773  -4.356  0.00  0.00    +0.025 A 
ATOM     25  C   UNL     1       6.148  -2.548  -4.643  0.00  0.00    +0.002 A 
ATOM     26  C   UNL     1       7.356  -2.291  -4.021  0.00  0.00    +0.002 A 
ATOM     27  C   UNL     1       7.461  -1.256  -3.109  0.00  0.00    +0.022 A 
ATOM     28  C   UNL     1       6.359  -0.472  -2.822  0.00  0.00    +0.062 A 
ATOM     29 CL   UNL     1       6.494   0.831  -1.683  0.00  0.00    -0.082 Cl
ENDBRANCH  20  23
BRANCH  21  30
ATOM     30  C   UNL     1       4.992   1.830  -4.530  0.00  0.00    +0.037 A 
ATOM     31  C   UNL     1       5.585   0.989  -5.473  0.00  0.00    +0.015 A 
ATOM     32  C   UNL     1       6.566   1.479  -6.310  0.00  0.00    +0.033 A 
ATOM     33  C   UNL     1       6.963   2.801  -6.216  0.00  0.00    +0.126 A 
ATOM     34  C   UNL     1       6.379   3.640  -5.284  0.00  0.00    +0.033 A 
ATOM     35  C   UNL     1       5.393   3.164  -4.445  0.00  0.00    +0.015 A 
BRANCH  33  36
ATOM     36  N   UNL     1       8.017   3.320  -7.117  0.00  0.00    +0.056 N 
ATOM     37  O   UNL     1       8.529   2.589  -7.933  0.00  0.00    -0.126 OA
ATOM     38  O   UNL     1       8.365   4.475  -7.037  0.00  0.00    -0.126 OA
ENDBRANCH  33  36
ENDBRANCH  21  30
ENDBRANCH   1  20
TORSDOF 9
