REMARK  Name = ZINC02791846
REMARK  11 active torsions:
REMARK  status: ('A' for Active; 'I' for Inactive)
REMARK    1  A    between atoms: C_1  and  C_2
REMARK    2  A    between atoms: C_4  and  C_8
REMARK    3  A    between atoms: N_5  and  C_7
REMARK    4  A    between atoms: N_11  and  C_13
REMARK    5  A    between atoms: C_20  and  N_36
REMARK    6  A    between atoms: C_21  and  C_34
REMARK    7  A    between atoms: C_22  and  C_24
REMARK    8  A    between atoms: C_28  and  O_32
REMARK    9  A    between atoms: C_29  and  O_30
REMARK   10  A    between atoms: O_30  and  C_31
REMARK   11  A    between atoms: O_32  and  C_33
REMARK                            x       y       z     vdW  Elec       q    Type
REMARK                         _______ _______ _______ _____ _____    ______ ____
ROOT
ATOM      1  C   UNL     1       4.242  -0.754   2.541  0.00  0.00    +0.119 A 
ATOM      2  C   UNL     1       4.561  -0.409   1.222  0.00  0.00    +0.056 A 
ATOM      3  C   UNL     1       5.607   0.466   1.255  0.00  0.00    +0.230 A 
ATOM      4  N   UNL     1       5.934   0.666   2.552  0.00  0.00    -0.199 N 
ATOM      5  N   UNL     1       5.069  -0.107   3.342  0.00  0.00    -0.161 NA
ATOM      6  O   UNL     1       6.158   0.991   0.133  0.00  0.00    -0.423 OA
ATOM      7  C   UNL     1       5.834   0.424  -1.047  0.00  0.00    +0.200 C 
ATOM      8  C   UNL     1       4.812  -0.446  -1.207  0.00  0.00    +0.098 C 
ATOM      9  C   UNL     1       3.923  -0.867  -0.064  0.00  0.00    +0.105 C 
ENDROOT
BRANCH   1  13
ATOM     10  C   UNL     1       1.375  -4.906   3.083  0.00  0.00    +0.067 C 
ATOM     11  C   UNL     1       1.895  -3.498   3.214  0.00  0.00    +0.061 A 
ATOM     12  C   UNL     1       3.039  -2.991   2.596  0.00  0.00    +0.054 A 
ATOM     13  C   UNL     1       3.168  -1.681   2.963  0.00  0.00    +0.089 A 
ATOM     14  N   UNL     1       2.129  -1.388   3.794  0.00  0.00    -0.265 N 
ATOM     15  N   UNL     1       1.349  -2.544   3.925  0.00  0.00    -0.176 NA
ATOM     16  C   UNL     1       1.871  -0.095   4.432  0.00  0.00    +0.173 C 
ENDBRANCH   1  13
BRANCH   4  17
ATOM     17  C   UNL     1       6.957   1.498   3.024  0.00  0.00    +0.069 A 
ATOM     18  C   UNL     1       8.139   1.625   2.305  0.00  0.00    +0.028 A 
ATOM     19  C   UNL     1       9.143   2.450   2.771  0.00  0.00    +0.002 A 
ATOM     20  C   UNL     1       8.978   3.143   3.956  0.00  0.00    +0.000 A 
ATOM     21  C   UNL     1       7.805   3.014   4.677  0.00  0.00    +0.002 A 
ATOM     22  C   UNL     1       6.795   2.195   4.215  0.00  0.00    +0.028 A 
ENDBRANCH   4  17
BRANCH   9  23
ATOM     23  C   UNL     1       2.566  -0.229  -0.214  0.00  0.00    +0.011 A 
ATOM     24  C   UNL     1       2.452   1.148  -0.272  0.00  0.00    +0.008 A 
ATOM     25  C   UNL     1       1.209   1.736  -0.410  0.00  0.00    +0.004 A 
ATOM     26  C   UNL     1       0.073   0.950  -0.490  0.00  0.00    +0.049 A 
ATOM     27  C   UNL     1       0.181  -0.429  -0.433  0.00  0.00    +0.162 A 
ATOM     28  C   UNL     1       1.433  -1.022  -0.294  0.00  0.00    +0.166 A 
BRANCH  28  29
ATOM     29  O   UNL     1       1.543  -2.376  -0.237  0.00  0.00    -0.491 OA
ATOM     30  C   UNL     1       1.588  -3.076  -1.483  0.00  0.00    +0.277 C 
ENDBRANCH  28  29
BRANCH  27  31
ATOM     31  O   UNL     1      -0.935  -1.204  -0.512  0.00  0.00    -0.491 OA
ATOM     32  C   UNL     1      -2.185  -0.527  -0.654  0.00  0.00    +0.277 C 
ENDBRANCH  27  31
ENDBRANCH   9  23
BRANCH   7  33
ATOM     33  N   UNL     1       6.585   0.750  -2.149  0.00  0.00    -0.328 N 
ATOM     34  H   UNL     1       6.348   0.305  -3.127  0.00  0.00    +0.145 HD
ATOM     35  H   UNL     1       7.424   1.455  -2.054  0.00  0.00    +0.145 HD
ENDBRANCH   7  33
BRANCH   8  36
ATOM     36  C   UNL     1       4.565  -0.988  -2.509  0.00  0.00    +0.101 C 
ATOM     37  N   UNL     1       4.370  -1.418  -3.542  0.00  0.00    -0.191 NA
ENDBRANCH   8  36
TORSDOF 7
