REMARK  Name = ZINC20109434
REMARK  12 active torsions:
REMARK  status: ('A' for Active; 'I' for Inactive)
REMARK    1  A    between atoms: C_1  and  C_2
REMARK    2  A    between atoms: C_7  and  C_8
REMARK    3  A    between atoms: C_8  and  C_9
REMARK    4  A    between atoms: C_9  and  N_10
REMARK    5  A    between atoms: N_10  and  C_11
REMARK    6  A    between atoms: N_10  and  C_26
REMARK    7  A    between atoms: C_11  and  C_12
REMARK    8  A    between atoms: C_16  and  C_25
REMARK    9  A    between atoms: C_18  and  C_24
REMARK   10  A    between atoms: C_26  and  C_27
REMARK   11  A    between atoms: N_31  and  C_32
REMARK   12  A    between atoms: C_32  and  C_33
REMARK                            x       y       z     vdW  Elec       q    Type
REMARK                         _______ _______ _______ _____ _____    ______ ____
ROOT
ATOM      1  N   UNL     1       5.425   0.920  -1.389  0.00  0.00    -0.290 NA
ENDROOT
BRANCH   1   2
ATOM      2  C   UNL     1       4.484   0.061  -2.120  0.00  0.00    +0.090 C 
BRANCH   2   3
ATOM      3  C   UNL     1       4.271  -1.239  -1.343  0.00  0.00    +0.051 C 
BRANCH   3  10
ATOM      4  C   UNL     1       4.991  -3.083  -3.446  0.00  0.00    +0.044 C 
ATOM      5  C   UNL     1       3.550  -2.943  -3.028  0.00  0.00    -0.047 A 
ATOM      6  C   UNL     1       2.573  -3.698  -3.650  0.00  0.00    +0.003 A 
ATOM      7  C   UNL     1       1.252  -3.570  -3.266  0.00  0.00    +0.000 A 
ATOM      8  C   UNL     1       0.907  -2.688  -2.259  0.00  0.00    +0.000 A 
ATOM      9  C   UNL     1       1.884  -1.937  -1.633  0.00  0.00    +0.004 A 
ATOM     10  C   UNL     1       3.206  -2.061  -2.021  0.00  0.00    -0.043 A 
ENDBRANCH   3  10
ENDBRANCH   2   3
ENDBRANCH   1   2
BRANCH   1  11
ATOM     11  C   UNL     1       4.912   1.245  -0.052  0.00  0.00    +0.125 C 
BRANCH  11  12
ATOM     12  C   UNL     1       3.735   2.178  -0.178  0.00  0.00    +0.031 A 
ATOM     13  C   UNL     1       2.473   1.680  -0.153  0.00  0.00    +0.020 A 
ATOM     14  C   UNL     1       1.351   2.612  -0.279  0.00  0.00    -0.001 A 
ATOM     15  C   UNL     1       0.028   2.159  -0.260  0.00  0.00    +0.013 A 
ATOM     16  C   UNL     1      -0.996   3.054  -0.386  0.00  0.00    -0.050 A 
ATOM     17  C   UNL     1      -0.736   4.411  -0.521  0.00  0.00    +0.008 A 
ATOM     18  C   UNL     1       0.559   4.880  -0.542  0.00  0.00    -0.026 A 
ATOM     19  C   UNL     1       1.619   3.987  -0.421  0.00  0.00    +0.052 A 
ATOM     20  N   UNL     1       2.925   4.429  -0.440  0.00  0.00    -0.322 N 
ATOM     21  H   UNL     1       3.141   5.501  -0.551  0.00  0.00    +0.169 HD
ATOM     22  C   UNL     1       3.949   3.565  -0.324  0.00  0.00    +0.254 A 
ATOM     23  O   UNL     1       5.091   3.991  -0.345  0.00  0.00    -0.268 OA
ATOM     24  C   UNL     1       0.827   6.355  -0.695  0.00  0.00    +0.046 C 
ATOM     25  C   UNL     1      -2.421   2.564  -0.372  0.00  0.00    +0.044 C 
ENDBRANCH  11  12
ENDBRANCH   1  11
BRANCH   1  26
ATOM     26  C   UNL     1       6.752   0.295  -1.306  0.00  0.00    +0.162 C 
BRANCH  26  27
ATOM     27  C   UNL     1       7.350   0.201  -2.686  0.00  0.00    +0.166 A 
ATOM     28  N   UNL     1       7.227  -0.798  -3.525  0.00  0.00    -0.112 NA
ATOM     29  N   UNL     1       7.880  -0.501  -4.596  0.00  0.00    -0.023 NA
ATOM     30  N   UNL     1       8.423   0.658  -4.458  0.00  0.00    -0.044 NA
ATOM     31  N   UNL     1       8.119   1.123  -3.293  0.00  0.00    -0.224 N 
BRANCH  31  32
ATOM     32  C   UNL     1       8.534   2.414  -2.737  0.00  0.00    +0.182 C 
BRANCH  32  33
ATOM     33  C   UNL     1       9.838   2.247  -2.000  0.00  0.00    -0.026 A 
ATOM     34  C   UNL     1       9.835   1.935  -0.653  0.00  0.00    +0.008 A 
ATOM     35  C   UNL     1      11.030   1.778   0.023  0.00  0.00    +0.038 A 
ATOM     36  C   UNL     1      12.230   1.943  -0.647  0.00  0.00    +0.123 A 
ATOM     37  C   UNL     1      12.232   2.261  -1.994  0.00  0.00    +0.038 A 
ATOM     38  C   UNL     1      11.036   2.413  -2.669  0.00  0.00    +0.008 A 
ATOM     39  F   UNL     1      13.399   1.794   0.014  0.00  0.00    -0.205 F 
ENDBRANCH  32  33
ENDBRANCH  31  32
ENDBRANCH  26  27
ENDBRANCH   1  26
TORSDOF 9
