REMARK  Name = ZINC38660860
REMARK  12 active torsions:
REMARK  status: ('A' for Active; 'I' for Inactive)
REMARK    1  A    between atoms: C_1  and  C_2
REMARK    2  A    between atoms: C_6  and  C_40
REMARK    3  A    between atoms: C_7  and  O_8
REMARK    4  A    between atoms: O_8  and  C_9
REMARK    5  A    between atoms: C_9  and  C_10
REMARK    6  A    between atoms: C_10  and  O_12
REMARK    7  A    between atoms: O_12  and  C_13
REMARK    8  A    between atoms: C_20  and  N_39
REMARK    9  A    between atoms: C_21  and  C_37
REMARK   10  A    between atoms: C_22  and  C_24
REMARK   11  A    between atoms: C_28  and  O_30
REMARK   12  A    between atoms: O_30  and  C_31
REMARK                            x       y       z     vdW  Elec       q    Type
REMARK                         _______ _______ _______ _____ _____    ______ ____
ROOT
ATOM      1  C   UNL     1      -2.196   1.944   6.500  0.00  0.00    +0.135 A 
ATOM      2  C   UNL     1      -0.920   2.275   6.934  0.00  0.00    +0.047 A 
ATOM      3  C   UNL     1      -0.752   2.976   8.111  0.00  0.00    +0.012 A 
ATOM      4  C   UNL     1      -1.852   3.351   8.863  0.00  0.00    +0.008 A 
ATOM      5  C   UNL     1      -3.128   3.023   8.434  0.00  0.00    +0.138 A 
ATOM      6  C   UNL     1      -3.299   2.323   7.247  0.00  0.00    +0.093 A 
ATOM      7  O   UNL     1      -4.218   3.381   9.156  0.00  0.00    -0.441 OA
ATOM      8  C   UNL     1      -4.085   3.707  10.453  0.00  0.00    +0.199 C 
ATOM      9  C   UNL     1      -2.892   4.064  10.984  0.00  0.00    +0.098 C 
ATOM     10  C   UNL     1      -1.647   4.115  10.144  0.00  0.00    +0.098 C 
ENDROOT
BRANCH  10  11
ATOM     11  C   UNL     1      -1.322   5.551   9.822  0.00  0.00    -0.031 A 
ATOM     12  C   UNL     1      -2.226   6.323   9.116  0.00  0.00    +0.005 A 
ATOM     13  C   UNL     1      -1.931   7.641   8.819  0.00  0.00    +0.004 A 
ATOM     14  C   UNL     1      -0.730   8.190   9.227  0.00  0.00    +0.046 A 
ATOM     15  C   UNL     1       0.179   7.417   9.936  0.00  0.00    +0.129 A 
ATOM     16  C   UNL     1      -0.122   6.097  10.237  0.00  0.00    +0.050 A 
BRANCH  15  17
ATOM     17  O   UNL     1       1.360   7.955  10.338  0.00  0.00    -0.456 OA
BRANCH  17  18
ATOM     18  C   UNL     1       2.272   7.130  10.917  0.00  0.00    +0.128 A 
ATOM     19  C   UNL     1       2.891   6.141  10.165  0.00  0.00    +0.046 A 
ATOM     20  C   UNL     1       3.817   5.304  10.755  0.00  0.00    +0.004 A 
ATOM     21  C   UNL     1       4.128   5.450  12.095  0.00  0.00    +0.000 A 
ATOM     22  C   UNL     1       3.513   6.434  12.847  0.00  0.00    +0.004 A 
ATOM     23  C   UNL     1       2.591   7.278  12.259  0.00  0.00    +0.046 A 
ENDBRANCH  17  18
ENDBRANCH  15  17
ENDBRANCH  10  11
BRANCH   8  24
ATOM     24  N   UNL     1      -5.193   3.676  11.264  0.00  0.00    -0.328 N 
ATOM     25  H   UNL     1      -6.055   3.423  10.898  0.00  0.00    +0.145 HD
ATOM     26  H   UNL     1      -5.113   3.909  12.202  0.00  0.00    +0.145 HD
ENDBRANCH   8  24
BRANCH   9  27
ATOM     27  C   UNL     1      -2.815   4.399  12.374  0.00  0.00    +0.101 C 
ATOM     28  N   UNL     1      -2.753   4.665  13.477  0.00  0.00    -0.191 NA
ENDBRANCH   9  27
BRANCH   1  29
ATOM     29  O   UNL     1      -2.363   1.253   5.341  0.00  0.00    -0.423 OA
BRANCH  29  30
ATOM     30  C   UNL     1      -2.091  -0.061   5.346  0.00  0.00    +0.350 C 
ATOM     31  O   UNL     1      -1.624  -0.578   6.333  0.00  0.00    -0.247 OA
BRANCH  30  32
ATOM     32  C   UNL     1      -2.366  -0.892   4.119  0.00  0.00    +0.349 C 
BRANCH  32  33
ATOM     33  O   UNL     1      -1.996  -2.250   4.370  0.00  0.00    -0.480 OA
BRANCH  33  40
ATOM     34  C   UNL     1       0.138  -2.623   2.557  0.00  0.00    +0.047 C 
ATOM     35  C   UNL     1      -1.169  -3.363   2.437  0.00  0.00    -0.009 A 
ATOM     36  C   UNL     1      -1.359  -4.270   1.412  0.00  0.00    +0.007 A 
ATOM     37  C   UNL     1      -2.558  -4.949   1.301  0.00  0.00    +0.001 A 
ATOM     38  C   UNL     1      -3.571  -4.721   2.215  0.00  0.00    +0.007 A 
ATOM     39  C   UNL     1      -3.387  -3.815   3.241  0.00  0.00    -0.009 A 
ATOM     40  C   UNL     1      -2.182  -3.137   3.358  0.00  0.00    +0.127 A 
ATOM     41  C   UNL     1      -4.491  -3.568   4.236  0.00  0.00    +0.047 C 
ENDBRANCH  33  40
ENDBRANCH  32  33
ENDBRANCH  30  32
ENDBRANCH  29  30
ENDBRANCH   1  29
TORSDOF 10
