REMARK  Name = ZINC02685401
REMARK  10 active torsions:
REMARK  status: ('A' for Active; 'I' for Inactive)
REMARK    1  A    between atoms: C_1  and  C_2
REMARK    2  A    between atoms: C_2  and  C_3
REMARK    3  A    between atoms: C_2  and  C_4
REMARK    4  A    between atoms: C_2  and  C_5
REMARK    5  A    between atoms: C_8  and  S_11
REMARK    6  A    between atoms: S_11  and  N_14
REMARK    7  A    between atoms: N_14  and  C_15
REMARK    8  A    between atoms: C_17  and  S_26
REMARK    9  A    between atoms: C_18  and  O_25
REMARK   10  A    between atoms: S_26  and  C_27
REMARK                            x       y       z     vdW  Elec       q    Type
REMARK                         _______ _______ _______ _____ _____    ______ ____
ROOT
ATOM      1  C   UNL     1       2.283   1.453  -0.209  0.00  0.00    +0.057 A 
ATOM      2  C   UNL     1       2.085   0.185   0.289  0.00  0.00    +0.044 A 
ATOM      3  C   UNL     1       0.800  -0.359   0.368  0.00  0.00    +0.059 A 
ATOM      4  C   UNL     1      -0.300   0.364  -0.053  0.00  0.00    +0.138 A 
ATOM      5  C   UNL     1      -0.127   1.662  -0.566  0.00  0.00    +0.026 A 
ATOM      6  C   UNL     1       1.177   2.214  -0.646  0.00  0.00    +0.008 A 
ATOM      7  C   UNL     1       1.345   3.510  -1.159  0.00  0.00    +0.010 A 
ATOM      8  C   UNL     1       0.259   4.218  -1.572  0.00  0.00    +0.001 A 
ATOM      9  C   UNL     1      -1.023   3.677  -1.493  0.00  0.00    +0.001 A 
ATOM     10  C   UNL     1      -1.224   2.421  -1.007  0.00  0.00    +0.012 A 
ENDROOT
BRANCH   1  11
ATOM     11  N   UNL     1       3.572   1.985  -0.282  0.00  0.00    -0.216 N 
ATOM     12  H   UNL     1       3.844   2.856   0.333  0.00  0.00    +0.174 HD
BRANCH  11  13
ATOM     13  S   UNL     1       4.692   1.304  -1.294  0.00  0.00    +0.072 S 
ATOM     14  O   UNL     1       5.868   2.095  -1.188  0.00  0.00    -0.150 OA
ATOM     15  O   UNL     1       4.685  -0.091  -1.028  0.00  0.00    -0.150 OA
BRANCH  13  19
ATOM     16  C   UNL     1       3.164   1.822  -5.524  0.00  0.00    -0.042 A 
ATOM     17  C   UNL     1       3.965   2.794  -4.955  0.00  0.00    +0.006 A 
ATOM     18  C   UNL     1       4.432   2.636  -3.663  0.00  0.00    +0.029 A 
ATOM     19  C   UNL     1       4.097   1.506  -2.940  0.00  0.00    +0.109 A 
ATOM     20  C   UNL     1       3.299   0.532  -3.511  0.00  0.00    +0.029 A 
ATOM     21  C   UNL     1       2.829   0.692  -4.801  0.00  0.00    +0.006 A 
BRANCH  16  23
ATOM     22  C   UNL     1       3.841   2.105  -7.892  0.00  0.00    +0.015 C 
ATOM     23  C   UNL     1       2.655   1.994  -6.931  0.00  0.00    -0.013 C 
ATOM     24  C   UNL     1       1.798   0.786  -7.316  0.00  0.00    +0.015 C 
ATOM     25  C   UNL     1       1.810   3.267  -7.016  0.00  0.00    +0.015 C 
ENDBRANCH  16  23
ENDBRANCH  13  19
ENDBRANCH  11  13
ENDBRANCH   1  11
BRANCH   4  26
ATOM     26  O   UNL     1      -1.546  -0.177   0.030  0.00  0.00    -0.505 OA
ATOM     27  H   UNL     1      -2.420   0.400  -0.305  0.00  0.00    +0.292 HD
ENDBRANCH   4  26
BRANCH   3  28
ATOM     28  S   UNL     1       0.581  -1.985   1.010  0.00  0.00    -0.047 S 
BRANCH  28  29
ATOM     29  C   UNL     1      -0.062  -1.600   2.605  0.00  0.00    +0.189 A 
ATOM     30  N   UNL     1      -0.516  -2.488   3.516  0.00  0.00    -0.254 N 
ATOM     31  H   UNL     1      -0.506  -3.564   3.287  0.00  0.00    +0.191 HD
ATOM     32  N   UNL     1      -0.924  -1.737   4.630  0.00  0.00    -0.160 NA
ATOM     33  C   UNL     1      -0.712  -0.481   4.343  0.00  0.00    +0.245 A 
ATOM     34  N   UNL     1      -0.191  -0.395   3.119  0.00  0.00    -0.209 NA
ENDBRANCH  28  29
ENDBRANCH   3  28
TORSDOF 7
