REMARK  Name = ZINC39314930
REMARK  8 active torsions:
REMARK  status: ('A' for Active; 'I' for Inactive)
REMARK    1  A    between atoms: C_1  and  C_2
REMARK    2  A    between atoms: C_2  and  C_3
REMARK    3  A    between atoms: C_3  and  C_4
REMARK    4  A    between atoms: C_6  and  C_18
REMARK    5  A    between atoms: C_8  and  C_16
REMARK    6  A    between atoms: C_9  and  N_15
REMARK    7  A    between atoms: C_21  and  O_24
REMARK    8  A    between atoms: O_24  and  C_25
REMARK                            x       y       z     vdW  Elec       q    Type
REMARK                         _______ _______ _______ _____ _____    ______ ____
ROOT
ATOM      1  C   UNL     1      -1.413  -2.041   0.005  0.00  0.00    +0.069 C 
ATOM      2  C   UNL     1      -1.491  -2.797   1.073  0.00  0.00    +0.030 C 
ATOM      3  C   UNL     1      -1.750  -2.513   2.527  0.00  0.00    +0.098 C 
ATOM      4  C   UNL     1      -2.702  -3.600   2.991  0.00  0.00    +0.097 C 
ATOM      5  C   UNL     1      -3.003  -4.659   2.211  0.00  0.00    +0.195 C 
ATOM      6  O   UNL     1      -2.557  -4.891   0.964  0.00  0.00    -0.448 OA
ATOM      7  C   UNL     1      -1.356  -4.230   0.557  0.00  0.00    +0.343 C 
ATOM      8  N   UNL     1      -1.298  -4.027  -0.894  0.00  0.00    -0.138 NA
ATOM      9  N   UNL     1      -1.316  -2.809  -1.110  0.00  0.00    -0.155 NA
ENDROOT
BRANCH   3  10
ATOM     10  C   UNL     1      -0.462  -2.576   3.307  0.00  0.00    -0.035 A 
ATOM     11  C   UNL     1       0.276  -3.745   3.327  0.00  0.00    +0.008 A 
ATOM     12  C   UNL     1       1.457  -3.806   4.042  0.00  0.00    +0.046 A 
ATOM     13  C   UNL     1       1.902  -2.693   4.739  0.00  0.00    +0.120 A 
ATOM     14  C   UNL     1       1.160  -1.521   4.717  0.00  0.00    +0.046 A 
ATOM     15  C   UNL     1      -0.017  -1.464   3.997  0.00  0.00    +0.008 A 
BRANCH  13  16
ATOM     16  O   UNL     1       3.063  -2.750   5.443  0.00  0.00    -0.495 OA
ATOM     17  C   UNL     1       3.460  -1.566   6.138  0.00  0.00    +0.277 C 
ENDBRANCH  13  16
ENDBRANCH   3  10
BRANCH   5  18
ATOM     18  N   UNL     1      -3.852  -5.595   2.746  0.00  0.00    -0.329 N 
ATOM     19  H   UNL     1      -4.202  -5.477   3.642  0.00  0.00    +0.145 HD
ATOM     20  H   UNL     1      -4.101  -6.376   2.227  0.00  0.00    +0.145 HD
ENDBRANCH   5  18
BRANCH   4  21
ATOM     21  C   UNL     1      -3.295  -3.500   4.291  0.00  0.00    +0.101 C 
ATOM     22  N   UNL     1      -3.765  -3.420   5.322  0.00  0.00    -0.191 NA
ENDBRANCH   4  21
BRANCH   1  23
ATOM     23  C   UNL     1      -1.433  -0.534   0.013  0.00  0.00    +0.057 C 
BRANCH  23  25
ATOM     24  C   UNL     1      -0.019   1.526   0.010  0.00  0.00    +0.004 C 
ATOM     25  C   UNL     1       0.002  -0.004   0.002  0.00  0.00    +0.003 C 
ENDBRANCH  23  25
ENDBRANCH   1  23
TORSDOF 6
