REMARK  Name = ZINC03999437
REMARK  9 active torsions:
REMARK  status: ('A' for Active; 'I' for Inactive)
REMARK    1  A    between atoms: C_1  and  C_2
REMARK    2  A    between atoms: C_2  and  C_4
REMARK    3  A    between atoms: C_6  and  C_30
REMARK    4  A    between atoms: C_11  and  C_29
REMARK    5  A    between atoms: C_21  and  C_28
REMARK    6  A    between atoms: C_24  and  O_27
REMARK    7  A    between atoms: C_33  and  N_36
REMARK    8  A    between atoms: N_36  and  C_37
REMARK    9  A    between atoms: N_36  and  C_38
REMARK                            x       y       z     vdW  Elec       q    Type
REMARK                         _______ _______ _______ _____ _____    ______ ____
ROOT
ATOM      1  C   UNL     1       3.760  -2.368  -1.519  0.00  0.00    +0.069 C 
ATOM      2  C   UNL     1       2.521  -2.727  -2.371  0.00  0.00    +0.030 C 
ATOM      3  C   UNL     1       1.286  -2.329  -1.540  0.00  0.00    +0.013 C 
ATOM      4  C   UNL     1       1.829  -1.697  -0.230  0.00  0.00    -0.000 C 
ATOM      5  C   UNL     1       3.211  -2.352  -0.080  0.00  0.00    -0.019 C 
ATOM      6  C   UNL     1       4.117  -1.615   0.879  0.00  0.00    +0.008 C 
ATOM      7  C   UNL     1       4.232  -0.142   0.494  0.00  0.00    +0.005 C 
ATOM      8  C   UNL     1       2.838   0.501   0.535  0.00  0.00    +0.003 C 
ATOM      9  C   UNL     1       1.942  -0.192  -0.491  0.00  0.00    +0.000 C 
ATOM     10  C   UNL     1       0.532   0.408  -0.383  0.00  0.00    +0.031 C 
ATOM     11  C   UNL     1       0.602   1.902  -0.468  0.00  0.00    -0.027 C 
ATOM     12  C   UNL     1       1.673   2.586  -0.223  0.00  0.00    -0.065 C 
ATOM     13  C   UNL     1       2.980   1.979   0.181  0.00  0.00    -0.008 C 
ATOM     14  C   UNL     1       4.009   2.171  -0.932  0.00  0.00    +0.014 C 
ATOM     15  C   UNL     1       3.674   3.419  -1.747  0.00  0.00    +0.032 C 
ATOM     16  C   UNL     1       3.071   4.509  -0.863  0.00  0.00    +0.119 C 
ATOM     17  C   UNL     1       1.656   4.096  -0.435  0.00  0.00    +0.062 C 
ATOM     18  C   UNL     1       3.467   2.729   1.422  0.00  0.00    +0.016 C 
ATOM     19  C   UNL     1       3.038  -3.791   0.411  0.00  0.00    +0.012 C 
ENDROOT
BRANCH   2  20
ATOM     20  C   UNL     1       2.542  -1.957  -3.666  0.00  0.00    -0.043 A 
ATOM     21  C   UNL     1       2.087  -2.550  -4.829  0.00  0.00    +0.006 A 
ATOM     22  C   UNL     1       2.100  -1.844  -6.016  0.00  0.00    +0.023 A 
ATOM     23  C   UNL     1       2.581  -0.542  -6.043  0.00  0.00    +0.029 A 
ATOM     24  C   UNL     1       3.043   0.049  -4.874  0.00  0.00    +0.023 A 
ATOM     25  C   UNL     1       3.022  -0.660  -3.689  0.00  0.00    +0.006 A 
BRANCH  23  26
ATOM     26  N   UNL     1       2.601   0.173  -7.243  0.00  0.00    -0.336 N 
ATOM     27  C   UNL     1       3.108   1.547  -7.269  0.00  0.00    +0.129 C 
ATOM     28  C   UNL     1       2.114  -0.452  -8.475  0.00  0.00    +0.129 C 
ENDBRANCH  23  26
ENDBRANCH   2  20
BRANCH   1  30
ATOM     29  C   UNL     1       6.279  -3.053  -1.476  0.00  0.00    +0.086 C 
ATOM     30  C   UNL     1       4.830  -3.420  -1.667  0.00  0.00    +0.134 C 
ATOM     31  O   UNL     1       4.525  -4.556  -1.939  0.00  0.00    -0.297 OA
ENDBRANCH   1  30
BRANCH  16  32
ATOM     32  O   UNL     1       3.887   4.686   0.297  0.00  0.00    -0.391 OA
ATOM     33  H   UNL     1       3.576   5.381   0.894  0.00  0.00    +0.210 HD
ENDBRANCH  16  32
TORSDOF 4
