REMARK  Name = ZINC39007582
REMARK  8 active torsions:
REMARK  status: ('A' for Active; 'I' for Inactive)
REMARK    1  A    between atoms: C_5  and  C_7
REMARK    2  A    between atoms: C_7  and  O_8
REMARK    3  A    between atoms: O_8  and  C_9
REMARK    4  A    between atoms: C_13  and  C_15
REMARK    5  A    between atoms: C_17  and  C_21
REMARK    6  A    between atoms: N_23  and  N_24
REMARK    7  A    between atoms: C_25  and  C_26
REMARK    8  A    between atoms: C_29  and  O_32
REMARK                            x       y       z     vdW  Elec       q    Type
REMARK                         _______ _______ _______ _____ _____    ______ ____
ROOT
ATOM      1  C   UNL     1      -3.065  -6.552  -0.016  0.00  0.00    +0.092 C 
ATOM      2  C   UNL     1      -3.328  -7.873  -0.017  0.00  0.00    +0.041 C 
ATOM      3  C   UNL     1      -4.845  -7.942  -0.013  0.00  0.00    +0.240 C 
ATOM      4  N   UNL     1      -5.245  -6.525  -0.010  0.00  0.00    -0.170 NA
ATOM      5  N   UNL     1      -4.221  -5.838  -0.006  0.00  0.00    -0.153 NA
ENDROOT
BRANCH   1  10
ATOM      6  C   UNL     1      -0.272  -4.030  -0.017  0.00  0.00    +0.122 A 
ATOM      7  C   UNL     1       0.840  -4.861  -0.027  0.00  0.00    +0.046 A 
ATOM      8  C   UNL     1       0.682  -6.234  -0.033  0.00  0.00    +0.004 A 
ATOM      9  C   UNL     1      -0.583  -6.787  -0.030  0.00  0.00    +0.010 A 
ATOM     10  C   UNL     1      -1.704  -5.960  -0.020  0.00  0.00    +0.005 A 
ATOM     11  C   UNL     1      -1.545  -4.577  -0.007  0.00  0.00    +0.055 A 
BRANCH   6  12
ATOM     12  O   UNL     1      -0.112  -2.680  -0.011  0.00  0.00    -0.487 OA
BRANCH  12  13
ATOM     13  C   UNL     1       1.229  -2.186  -0.022  0.00  0.00    +0.266 C 
BRANCH  13  18
ATOM     14  C   UNL     1      -0.017   1.378   0.010  0.00  0.00    +0.000 A 
ATOM     15  C   UNL     1       1.171   2.086   0.002  0.00  0.00    +0.001 A 
ATOM     16  C   UNL     1       2.377   1.412  -0.013  0.00  0.00    +0.020 A 
ATOM     17  C   UNL     1       2.397   0.029  -0.021  0.00  0.00    +0.047 A 
ATOM     18  C   UNL     1       1.208  -0.679  -0.013  0.00  0.00    +0.008 A 
ATOM     19  C   UNL     1       0.002  -0.004   0.002  0.00  0.00    +0.008 A 
ATOM     20 CL   UNL     1       3.912  -0.818  -0.041  0.00  0.00    -0.083 Cl
ENDBRANCH  13  18
ENDBRANCH  12  13
ENDBRANCH   6  12
ENDBRANCH   1  10
BRANCH   3  21
ATOM     21  C   UNL     1      -5.350  -8.638  -1.250  0.00  0.00    +0.263 C 
ATOM     22  O   UNL     1      -5.767  -7.987  -2.185  0.00  0.00    -0.271 OA
ATOM     23  N   UNL     1      -5.338  -9.984  -1.318  0.00  0.00    -0.205 N 
ATOM     24  H   UNL     1      -5.004 -10.505  -0.571  0.00  0.00    +0.177 HD
BRANCH  23  25
ATOM     25  N   UNL     1      -5.807 -10.632  -2.469  0.00  0.00    -0.188 NA
ATOM     26  C   UNL     1      -5.795 -11.928  -2.534  0.00  0.00    +0.138 C 
BRANCH  26  27
ATOM     27  C   UNL     1      -6.289 -12.609  -3.745  0.00  0.00    -0.005 A 
ATOM     28  C   UNL     1      -6.765 -11.861  -4.825  0.00  0.00    +0.013 A 
ATOM     29  C   UNL     1      -7.225 -12.502  -5.955  0.00  0.00    +0.046 A 
ATOM     30  C   UNL     1      -7.216 -13.890  -6.020  0.00  0.00    +0.117 A 
ATOM     31  C   UNL     1      -6.745 -14.637  -4.949  0.00  0.00    +0.046 A 
ATOM     32  C   UNL     1      -6.277 -14.005  -3.817  0.00  0.00    +0.013 A 
BRANCH  30  33
ATOM     33  O   UNL     1      -7.671 -14.518  -7.136  0.00  0.00    -0.507 OA
ATOM     34  H   UNL     1      -6.989 -14.678  -7.803  0.00  0.00    +0.292 HD
ENDBRANCH  30  33
ENDBRANCH  26  27
ENDBRANCH  23  25
ENDBRANCH   3  21
TORSDOF 8
