REMARK  Name = ZINC64364265
REMARK  3 active torsions:
REMARK  status: ('A' for Active; 'I' for Inactive)
REMARK    1  A    between atoms: C_3  and  N_24
REMARK    2  A    between atoms: C_6  and  C_7
REMARK    3  A    between atoms: N_9  and  C_10
REMARK                            x       y       z     vdW  Elec       q    Type
REMARK                         _______ _______ _______ _____ _____    ______ ____
ROOT
ATOM      1  C   UNL     1      -1.265  -0.761   0.011  0.00  0.00    +0.246 C 
ATOM      2  O   UNL     1      -2.317  -0.188  -0.193  0.00  0.00    -0.270 OA
ATOM      3  N   UNL     1      -1.255  -2.089   0.244  0.00  0.00    -0.284 N 
ATOM      4  H   UNL     1      -0.415  -2.546   0.407  0.00  0.00    +0.152 HD
ENDROOT
BRANCH   3   5
ATOM      5  C   UNL     1      -2.513  -2.840   0.253  0.00  0.00    +0.224 C 
ATOM      6  N   UNL     1      -2.263  -4.288   0.249  0.00  0.00    -0.316 N 
ATOM      7  C   UNL     1      -2.719  -5.024   1.346  0.00  0.00    +0.046 A 
ATOM      8  C   UNL     1      -2.574  -6.412   1.516  0.00  0.00    +0.073 A 
ATOM      9  C   UNL     1      -3.059  -7.055   2.638  0.00  0.00    +0.164 A 
ATOM     10  C   UNL     1      -3.707  -6.339   3.637  0.00  0.00    +0.163 A 
ATOM     11  C   UNL     1      -3.864  -4.968   3.491  0.00  0.00    +0.066 A 
ATOM     12  C   UNL     1      -3.378  -4.336   2.369  0.00  0.00    +0.036 A 
ATOM     13  S   UNL     1      -3.395  -2.634   1.851  0.00  0.00    -0.082 S 
ATOM     14  O   UNL     1      -4.183  -6.958   4.751  0.00  0.00    -0.485 OA
ATOM     15  C   UNL     1      -4.331  -8.381   4.683  0.00  0.00    +0.270 C 
ATOM     16  C   UNL     1      -3.055  -8.964   4.061  0.00  0.00    +0.270 C 
ATOM     17  O   UNL     1      -2.896  -8.405   2.753  0.00  0.00    -0.485 OA
ATOM     18  H   UNL     1      -1.800  -4.717  -0.487  0.00  0.00    +0.149 HD
ENDBRANCH   3   5
BRANCH   1  24
ATOM     19  C   UNL     1      -0.006   1.372  -0.240  0.00  0.00    +0.015 A 
ATOM     20  C   UNL     1       1.178   2.075  -0.247  0.00  0.00    +0.027 A 
ATOM     21  C   UNL     1       2.381   1.417  -0.013  0.00  0.00    +0.048 A 
ATOM     22  C   UNL     1       2.393   0.047   0.228  0.00  0.00    +0.027 A 
ATOM     23  C   UNL     1       1.213  -0.662   0.236  0.00  0.00    +0.015 A 
ATOM     24  C   UNL     1       0.002  -0.004   0.002  0.00  0.00    +0.037 A 
BRANCH  21  25
ATOM     25  N   UNL     1       3.579   2.133  -0.022  0.00  0.00    -0.295 N 
ATOM     26  C   UNL     1       4.598   2.007  -0.956  0.00  0.00    +0.111 A 
ATOM     27  C   UNL     1       5.565   2.855  -0.622  0.00  0.00    +0.103 A 
ATOM     28  N   UNL     1       5.168   3.525   0.525  0.00  0.00    -0.340 N 
ATOM     29  C   UNL     1       3.947   3.071   0.872  0.00  0.00    +0.162 A 
ATOM     30  S   UNL     1       3.026   3.594   2.217  0.00  0.00    -0.013 S 
ATOM     31  H   UNL     1       5.678   4.203   0.994  0.00  0.00    +0.167 HD
ENDBRANCH  21  25
ENDBRANCH   1  24
TORSDOF 3
