REMARK  Name = ZINC08685867
REMARK  12 active torsions:
REMARK  status: ('A' for Active; 'I' for Inactive)
REMARK    1  A    between atoms: C_1  and  C_2
REMARK    2  A    between atoms: C_2  and  C_3
REMARK    3  A    between atoms: C_2  and  C_4
REMARK    4  A    between atoms: C_4  and  C_5
REMARK    5  A    between atoms: C_5  and  N_6
REMARK    6  A    between atoms: C_7  and  C_9
REMARK    7  A    between atoms: C_9  and  C_11
REMARK    8  A    between atoms: C_9  and  N_18
REMARK    9  A    between atoms: C_14  and  O_17
REMARK   10  A    between atoms: N_18  and  C_19
REMARK   11  A    between atoms: C_19  and  C_20
REMARK   12  A    between atoms: C_25  and  C_27
REMARK                            x       y       z     vdW  Elec       q    Type
REMARK                         _______ _______ _______ _____ _____    ______ ____
ROOT
ATOM      1  N   UNL     1      -5.709  -5.534   0.652  0.00  0.00    -0.278 N 
ATOM      2  C   UNL     1      -5.535  -5.842   1.952  0.00  0.00    +0.261 C 
ATOM      3  O   UNL     1      -5.242  -4.974   2.747  0.00  0.00    -0.271 OA
ENDROOT
BRANCH   2   4
ATOM      4  C   UNL     1      -5.704  -7.265   2.419  0.00  0.00    +0.296 C 
ATOM      5  C   UNL     1      -4.380  -8.024   2.256  0.00  0.00    +0.283 C 
ATOM      6  O   UNL     1      -4.572  -9.365   2.720  0.00  0.00    -0.484 OA
ATOM      7  C   UNL     1      -5.214  -9.513   3.911  0.00  0.00    +0.162 A 
ATOM      8  C   UNL     1      -5.118 -10.719   4.590  0.00  0.00    +0.049 A 
ATOM      9  C   UNL     1      -5.767 -10.886   5.799  0.00  0.00    +0.004 A 
ATOM     10  C   UNL     1      -6.513  -9.852   6.334  0.00  0.00    +0.004 A 
ATOM     11  C   UNL     1      -6.612  -8.648   5.663  0.00  0.00    +0.049 A 
ATOM     12  C   UNL     1      -5.962  -8.474   4.450  0.00  0.00    +0.163 A 
ATOM     13  O   UNL     1      -6.062  -7.279   3.805  0.00  0.00    -0.473 OA
ENDBRANCH   2   4
BRANCH   1  14
ATOM     14  C   UNL     1      -5.444  -4.173   0.180  0.00  0.00    +0.193 C 
BRANCH  14  15
ATOM     15  C   UNL     1      -6.731  -3.545  -0.289  0.00  0.00    -0.018 A 
ATOM     16  C   UNL     1      -7.263  -3.896  -1.516  0.00  0.00    +0.009 A 
ATOM     17  C   UNL     1      -8.443  -3.321  -1.949  0.00  0.00    +0.046 A 
ATOM     18  C   UNL     1      -9.094  -2.392  -1.151  0.00  0.00    +0.117 A 
ATOM     19  C   UNL     1      -8.558  -2.042   0.080  0.00  0.00    +0.046 A 
ATOM     20  C   UNL     1      -7.381  -2.623   0.510  0.00  0.00    +0.009 A 
BRANCH  18  21
ATOM     21  O   UNL     1     -10.254  -1.825  -1.574  0.00  0.00    -0.507 OA
ATOM     22  H   UNL     1     -11.048  -2.311  -1.313  0.00  0.00    +0.292 HD
ENDBRANCH  18  21
ENDBRANCH  14  15
BRANCH  14  24
ATOM     23  N   UNL     1      -4.027  -3.074  -1.524  0.00  0.00    -0.313 N 
ATOM     24  C   UNL     1      -4.462  -4.219  -0.963  0.00  0.00    +0.238 C 
ATOM     25  O   UNL     1      -4.064  -5.287  -1.377  0.00  0.00    -0.273 OA
ATOM     26  H   UNL     1      -4.345  -2.220  -1.192  0.00  0.00    +0.149 HD
BRANCH  23  27
ATOM     27  C   UNL     1      -3.072  -3.119  -2.634  0.00  0.00    +0.104 C 
BRANCH  27  28
ATOM     28  C   UNL     1      -2.744  -1.693  -3.083  0.00  0.00    +0.022 C 
BRANCH  28  30
ATOM     29  C   UNL     1      -1.515  -0.324  -4.773  0.00  0.00    +0.007 C 
ATOM     30  C   UNL     1      -1.747  -1.740  -4.243  0.00  0.00    -0.016 C 
ATOM     31  C   UNL     1      -0.421  -2.326  -3.752  0.00  0.00    +0.007 C 
ENDBRANCH  28  30
ENDBRANCH  27  28
ENDBRANCH  23  27
ENDBRANCH  14  24
ENDBRANCH   1  14
BRANCH   1  32
ATOM     32  C   UNL     1      -6.162  -6.561  -0.290  0.00  0.00    +0.151 C 
BRANCH  32  33
ATOM     33  C   UNL     1      -7.666  -6.649  -0.251  0.00  0.00    +0.007 A 
ATOM     34  C   UNL     1      -8.570  -6.220  -1.165  0.00  0.00    +0.013 A 
ATOM     35  C   UNL     1      -9.917  -6.410  -0.916  0.00  0.00    +0.008 A 
ATOM     36  C   UNL     1     -10.293  -7.019   0.235  0.00  0.00    +0.045 A 
ATOM     37  S   UNL     1      -8.719  -7.353   1.008  0.00  0.00    -0.100 S 
ENDBRANCH  32  33
ENDBRANCH   1  32
TORSDOF 10
