REMARK  Name = ZINC39637345
REMARK  8 active torsions:
REMARK  status: ('A' for Active; 'I' for Inactive)
REMARK    1  A    between atoms: C_1  and  C_2
REMARK    2  A    between atoms: C_7  and  N_12
REMARK    3  A    between atoms: C_9  and  C_11
REMARK    4  A    between atoms: C_13  and  C_15
REMARK    5  A    between atoms: C_26  and  C_28
REMARK    6  A    between atoms: C_32  and  N_34
REMARK    7  A    between atoms: N_34  and  C_35
REMARK    8  A    between atoms: N_34  and  C_36
REMARK                            x       y       z     vdW  Elec       q    Type
REMARK                         _______ _______ _______ _____ _____    ______ ____
ROOT
ATOM      1  C   UNL     1       3.141  -4.059   3.050  0.00  0.00    +0.100 C 
ATOM      2  C   UNL     1       4.300  -3.247   3.671  0.00  0.00    +0.121 C 
ATOM      3  N   UNL     1       5.245  -4.271   4.177  0.00  0.00    -0.296 N 
ATOM      4  C   UNL     1       5.232  -5.329   3.139  0.00  0.00    +0.115 C 
ATOM      5  C   UNL     1       3.757  -5.424   2.702  0.00  0.00    -0.004 C 
ATOM      6  C   UNL     1       3.049  -6.535   3.471  0.00  0.00    -0.010 C 
ATOM      7  C   UNL     1       3.642  -7.888   3.065  0.00  0.00    -0.082 C 
ATOM      8  N   UNL     1       3.475  -8.083   1.620  0.00  0.00    +0.379 N 
ATOM      9  C   UNL     1       4.235  -7.064   0.886  0.00  0.00    -0.082 C 
ATOM     10  C   UNL     1       3.668  -5.676   1.200  0.00  0.00    -0.010 C 
ATOM     11  C   UNL     1       5.955  -4.245   5.322  0.00  0.00    +0.247 C 
ATOM     12  O   UNL     1       5.760  -3.365   6.138  0.00  0.00    -0.270 OA
ATOM     13  H   UNL     1       3.810  -8.999   1.365  0.00  0.00    -0.086 HD
ATOM     14  H   UNL     1       2.497  -8.007   1.382  0.00  0.00    -0.086 HD
ENDROOT
BRANCH  11  15
ATOM     15  C   UNL     1       6.970  -5.287   5.586  0.00  0.00    +0.039 A 
ATOM     16  C   UNL     1       7.501  -6.031   4.531  0.00  0.00    +0.013 A 
ATOM     17  C   UNL     1       8.448  -7.003   4.779  0.00  0.00    +0.003 A 
ATOM     18  C   UNL     1       8.874  -7.245   6.072  0.00  0.00    +0.023 A 
ATOM     19  C   UNL     1       8.352  -6.510   7.130  0.00  0.00    +0.030 A 
ATOM     20  C   UNL     1       7.404  -5.527   6.890  0.00  0.00    +0.036 A 
BRANCH  19  21
ATOM     21  N   UNL     1       8.786  -6.759   8.434  0.00  0.00    -0.336 N 
ATOM     22  C   UNL     1       9.682  -7.885   8.706  0.00  0.00    +0.129 C 
ATOM     23  C   UNL     1       8.344  -5.893   9.531  0.00  0.00    +0.129 C 
ENDBRANCH  19  21
ENDBRANCH  11  15
BRANCH   1  25
ATOM     24  N   UNL     1       1.385  -3.628   1.362  0.00  0.00    -0.312 N 
ATOM     25  C   UNL     1       2.633  -3.379   1.805  0.00  0.00    +0.218 C 
ATOM     26  O   UNL     1       3.348  -2.607   1.200  0.00  0.00    -0.275 OA
ATOM     27  H   UNL     1       0.813  -4.245   1.846  0.00  0.00    +0.149 HD
BRANCH  24  33
ATOM     28  C   UNL     1      -2.680  -2.135  -1.023  0.00  0.00    +0.008 C 
ATOM     29  C   UNL     1      -1.153  -2.206  -1.068  0.00  0.00    -0.009 C 
ATOM     30  C   UNL     1      -0.715  -3.003  -2.299  0.00  0.00    +0.003 C 
ATOM     31  C   UNL     1       0.813  -3.075  -2.343  0.00  0.00    +0.002 C 
ATOM     32  C   UNL     1       1.328  -3.765  -1.079  0.00  0.00    +0.022 C 
ATOM     33  C   UNL     1       0.891  -2.968   0.152  0.00  0.00    +0.076 C 
ATOM     34  C   UNL     1      -0.637  -2.896   0.196  0.00  0.00    +0.009 C 
ATOM     35  C   UNL     1      -1.211  -4.312   0.275  0.00  0.00    +0.009 C 
ENDBRANCH  24  33
ENDBRANCH   1  25
TORSDOF 4
