REMARK  Name = ZINC13979699
REMARK  9 active torsions:
REMARK  status: ('A' for Active; 'I' for Inactive)
REMARK    1  A    between atoms: C_1  and  C_2
REMARK    2  A    between atoms: C_4  and  O_10
REMARK    3  A    between atoms: C_6  and  C_9
REMARK    4  A    between atoms: O_10  and  C_11
REMARK    5  A    between atoms: C_11  and  C_12
REMARK    6  A    between atoms: N_14  and  N_15
REMARK    7  A    between atoms: C_18  and  C_24
REMARK    8  A    between atoms: C_22  and  C_23
REMARK    9  A    between atoms: C_24  and  C_26
REMARK                            x       y       z     vdW  Elec       q    Type
REMARK                         _______ _______ _______ _____ _____    ______ ____
ROOT
ATOM      1  C   UNL     1      -5.223   5.698  -0.281  0.00  0.00    +0.270 C 
ATOM      2  O   UNL     1      -5.331   6.877  -0.015  0.00  0.00    -0.270 OA
ATOM      3  N   UNL     1      -4.053   5.064  -0.067  0.00  0.00    -0.204 N 
ATOM      4  H   UNL     1      -3.966   4.122  -0.280  0.00  0.00    +0.177 HD
ENDROOT
BRANCH   3   5
ATOM      5  N   UNL     1      -2.962   5.766   0.462  0.00  0.00    -0.185 NA
ATOM      6  C   UNL     1      -1.834   5.154   0.668  0.00  0.00    +0.062 C 
ATOM      7  C   UNL     1      -1.670   3.683   0.345  0.00  0.00    +0.065 C 
ATOM      8  C   UNL     1      -0.874   3.050   1.496  0.00  0.00    +0.024 C 
ATOM      9  C   UNL     1       0.505   3.704   1.566  0.00  0.00    +0.035 C 
ATOM     10  C   UNL     1       0.394   5.198   1.636  0.00  0.00    -0.021 C 
ATOM     11  C   UNL     1      -0.672   5.867   1.222  0.00  0.00    -0.032 C 
ATOM     12  C   UNL     1      -0.695   7.370   1.320  0.00  0.00    +0.045 C 
BRANCH   8  13
ATOM     13  C   UNL     1      -0.718   1.572   1.248  0.00  0.00    -0.076 C 
ATOM     14  C   UNL     1      -1.196   0.709   2.110  0.00  0.00    +0.007 C 
ATOM     15  C   UNL     1      -0.013   1.086   0.008  0.00  0.00    +0.039 C 
ENDBRANCH   8  13
ENDBRANCH   3   5
BRANCH   1  16
ATOM     16  C   UNL     1      -6.396   4.943  -0.850  0.00  0.00    +0.326 C 
BRANCH  16  17
ATOM     17  O   UNL     1      -7.512   5.827  -0.983  0.00  0.00    -0.483 OA
BRANCH  17  21
ATOM     18  C   UNL     1     -12.166   6.434  -2.322  0.00  0.00    +0.045 C 
ATOM     19  C   UNL     1     -10.947   5.564  -2.153  0.00  0.00    -0.028 A 
ATOM     20  C   UNL     1      -9.781   6.101  -1.641  0.00  0.00    +0.050 A 
ATOM     21  C   UNL     1      -8.659   5.300  -1.486  0.00  0.00    +0.122 A 
ATOM     22  C   UNL     1      -8.709   3.962  -1.849  0.00  0.00    +0.050 A 
ATOM     23  C   UNL     1      -9.877   3.428  -2.356  0.00  0.00    -0.028 A 
ATOM     24  C   UNL     1     -10.995   4.228  -2.510  0.00  0.00    +0.047 A 
ATOM     25 CL   UNL     1     -12.461   3.555  -3.153  0.00  0.00    -0.083 Cl
ATOM     26  C   UNL     1      -9.933   1.973  -2.746  0.00  0.00    +0.045 C 
ENDBRANCH  17  21
ENDBRANCH  16  17
ENDBRANCH   1  16
TORSDOF 5
