REMARK  Name = ZINC58891597
REMARK  13 active torsions:
REMARK  status: ('A' for Active; 'I' for Inactive)
REMARK    1  A    between atoms: C_1  and  C_2
REMARK    2  A    between atoms: C_2  and  O_3
REMARK    3  A    between atoms: O_3  and  C_4
REMARK    4  A    between atoms: C_6  and  C_15
REMARK    5  A    between atoms: C_9  and  O_10
REMARK    6  A    between atoms: O_10  and  C_11
REMARK    7  A    between atoms: C_11  and  C_12
REMARK    8  A    between atoms: N_16  and  N_17
REMARK    9  A    between atoms: C_18  and  C_20
REMARK   10  A    between atoms: C_20  and  C_21
REMARK   11  A    between atoms: C_21  and  C_22
REMARK   12  A    between atoms: C_22  and  C_24
REMARK   13  A    between atoms: C_22  and  O_30
REMARK                            x       y       z     vdW  Elec       q    Type
REMARK                         _______ _______ _______ _____ _____    ______ ____
ROOT
ATOM      1  C   UNL     1       0.619  -4.948   0.012  0.00  0.00    +0.138 C 
ATOM      2  N   UNL     1       0.465  -6.235   0.074  0.00  0.00    -0.188 NA
ENDROOT
BRANCH   1   5
ATOM      3  C   UNL     1      -1.434  -1.864   0.625  0.00  0.00    +0.164 A 
ATOM      4  C   UNL     1      -0.433  -2.698   0.163  0.00  0.00    +0.059 A 
ATOM      5  C   UNL     1      -0.446  -4.054   0.502  0.00  0.00    -0.001 A 
ATOM      6  C   UNL     1      -1.470  -4.559   1.307  0.00  0.00    +0.027 A 
ATOM      7  C   UNL     1      -2.465  -3.721   1.764  0.00  0.00    +0.059 A 
ATOM      8  C   UNL     1      -2.449  -2.374   1.431  0.00  0.00    +0.176 A 
ATOM      9  I   UNL     1      -3.999  -4.481   2.971  0.00  0.00    -0.040 I 
BRANCH   3  10
ATOM     10  O   UNL     1      -1.425  -0.544   0.297  0.00  0.00    -0.489 OA
BRANCH  10  12
ATOM     11  C   UNL     1      -0.511   1.409  -0.794  0.00  0.00    +0.048 C 
ATOM     12  C   UNL     1      -0.354  -0.090  -0.534  0.00  0.00    +0.226 C 
ENDBRANCH  10  12
ENDBRANCH   3  10
BRANCH   8  13
ATOM     13  O   UNL     1      -3.429  -1.550   1.889  0.00  0.00    -0.475 OA
BRANCH  13  14
ATOM     14  C   UNL     1      -4.593  -1.410   1.072  0.00  0.00    +0.317 C 
BRANCH  14  15
ATOM     15  C   UNL     1      -5.540  -0.488   1.721  0.00  0.00    -0.065 C 
ATOM     16  C   UNL     1      -6.295   0.247   2.238  0.00  0.00    +0.007 C 
ENDBRANCH  14  15
ENDBRANCH  13  14
ENDBRANCH   8  13
ENDBRANCH   1   5
BRANCH   2  17
ATOM     17  N   UNL     1      -0.823  -6.787   0.079  0.00  0.00    -0.207 N 
ATOM     18  C   UNL     1      -0.988  -8.111   0.277  0.00  0.00    +0.232 C 
ATOM     19  O   UNL     1      -0.021  -8.823   0.450  0.00  0.00    -0.274 OA
ATOM     20  H   UNL     1      -1.595  -6.218  -0.060  0.00  0.00    +0.177 HD
BRANCH  18  21
ATOM     21  C   UNL     1      -2.373  -8.705   0.281  0.00  0.00    +0.100 C 
BRANCH  21  22
ATOM     22  C   UNL     1      -2.280 -10.212   0.525  0.00  0.00    +0.045 C 
BRANCH  22  23
ATOM     23  C   UNL     1      -3.686 -10.815   0.530  0.00  0.00    +0.145 C 
BRANCH  23  24
ATOM     24  C   UNL     1      -3.589 -12.315   0.646  0.00  0.00    -0.019 A 
ATOM     25  C   UNL     1      -3.480 -12.906   1.891  0.00  0.00    +0.006 A 
ATOM     26  C   UNL     1      -3.392 -14.281   1.998  0.00  0.00    +0.000 A 
ATOM     27  C   UNL     1      -3.411 -15.066   0.860  0.00  0.00    +0.000 A 
ATOM     28  C   UNL     1      -3.521 -14.475  -0.385  0.00  0.00    +0.000 A 
ATOM     29  C   UNL     1      -3.614 -13.100  -0.492  0.00  0.00    +0.006 A 
ENDBRANCH  23  24
BRANCH  23  30
ATOM     30  O   UNL     1      -4.422 -10.298   1.640  0.00  0.00    -0.387 OA
ATOM     31  H   UNL     1      -4.025 -10.492   2.500  0.00  0.00    +0.210 HD
ENDBRANCH  23  30
ENDBRANCH  22  23
ENDBRANCH  21  22
ENDBRANCH  18  21
ENDBRANCH   2  17
TORSDOF 12
