REMARK  Name = ZINC41585178
REMARK  6 active torsions:
REMARK  status: ('A' for Active; 'I' for Inactive)
REMARK    1  A    between atoms: C_4  and  N_7
REMARK    2  A    between atoms: N_10  and  C_13
REMARK    3  A    between atoms: C_13  and  C_14
REMARK    4  A    between atoms: C_15  and  O_31
REMARK    5  A    between atoms: C_22  and  C_23
REMARK    6  A    between atoms: C_23  and  C_24
REMARK                            x       y       z     vdW  Elec       q    Type
REMARK                         _______ _______ _______ _____ _____    ______ ____
ROOT
ATOM      1  C   UNL     1       7.068  -4.006  -1.615  0.00  0.00    +0.053 A 
ATOM      2  C   UNL     1       8.137  -4.273  -0.777  0.00  0.00    +0.125 A 
ATOM      3  C   UNL     1       8.423  -5.581  -0.393  0.00  0.00    +0.046 A 
ATOM      4  C   UNL     1       7.654  -6.617  -0.838  0.00  0.00    +0.017 A 
ATOM      5  C   UNL     1       6.571  -6.366  -1.685  0.00  0.00    +0.045 A 
ATOM      6  C   UNL     1       6.274  -5.048  -2.072  0.00  0.00    +0.175 A 
ATOM      7  O   UNL     1       5.190  -5.105  -2.872  0.00  0.00    -0.354 OA
ATOM      8  N   UNL     1       4.777  -6.450  -3.005  0.00  0.00    -0.082 NA
ATOM      9  C   UNL     1       5.570  -7.222  -2.327  0.00  0.00    +0.096 A 
ENDROOT
BRANCH   2  10
ATOM     10  O   UNL     1       8.912  -3.253  -0.326  0.00  0.00    -0.506 OA
ATOM     11  H   UNL     1       8.608  -2.866   0.506  0.00  0.00    +0.292 HD
ENDBRANCH   2  10
BRANCH   1  12
ATOM     12  C   UNL     1       6.766  -2.588  -2.026  0.00  0.00    +0.127 C 
BRANCH  12  16
ATOM     13  N   UNL     1       3.620  -0.649  -0.036  0.00  0.00    -0.327 N 
ATOM     14  C   UNL     1       4.891   0.083  -0.149  0.00  0.00    +0.120 C 
ATOM     15  C   UNL     1       5.711  -0.538  -1.285  0.00  0.00    +0.103 C 
ATOM     16  N   UNL     1       5.844  -1.983  -1.055  0.00  0.00    -0.295 NA
ATOM     17  C   UNL     1       4.536  -2.651  -1.085  0.00  0.00    +0.103 C 
ATOM     18  C   UNL     1       3.668  -2.116   0.065  0.00  0.00    +0.120 C 
BRANCH  13  22
ATOM     19  C   UNL     1      -0.017   1.379   0.011  0.00  0.00    +0.000 A 
ATOM     20  C   UNL     1       0.002  -0.004  -0.011  0.00  0.00    +0.002 A 
ATOM     21  C   UNL     1       1.206  -0.680  -0.027  0.00  0.00    +0.023 A 
ATOM     22  C   UNL     1       2.400   0.031  -0.021  0.00  0.00    +0.030 A 
ATOM     23  C   UNL     1       2.377   1.420   0.002  0.00  0.00    +0.023 A 
ATOM     24  C   UNL     1       1.170   2.089   0.018  0.00  0.00    +0.002 A 
ENDBRANCH  13  22
ENDBRANCH  12  16
ENDBRANCH   1  12
BRANCH   9  25
ATOM     25  C   UNL     1       5.471  -8.721  -2.210  0.00  0.00    +0.097 C 
BRANCH  25  26
ATOM     26  C   UNL     1       4.588  -9.075  -1.041  0.00  0.00    -0.006 A 
ATOM     27  C   UNL     1       5.150  -9.341   0.194  0.00  0.00    +0.007 A 
ATOM     28  C   UNL     1       4.340  -9.666   1.266  0.00  0.00    +0.000 A 
ATOM     29  C   UNL     1       2.969  -9.726   1.105  0.00  0.00    +0.003 A 
ATOM     30  C   UNL     1       2.405  -9.461  -0.128  0.00  0.00    +0.038 A 
ATOM     31  C   UNL     1       3.214  -9.130  -1.202  0.00  0.00    +0.127 A 
ATOM     32  F   UNL     1       2.664  -8.866  -2.407  0.00  0.00    -0.205 F 
ENDBRANCH  25  26
ENDBRANCH   9  25
TORSDOF 6
