REMARK  Name = ZINC66682152
REMARK  8 active torsions:
REMARK  status: ('A' for Active; 'I' for Inactive)
REMARK    1  A    between atoms: C_1  and  C_2
REMARK    2  A    between atoms: C_4  and  N_14
REMARK    3  A    between atoms: C_7  and  C_8
REMARK    4  A    between atoms: N_10  and  C_11
REMARK    5  A    between atoms: C_11  and  C_12
REMARK    6  A    between atoms: C_11  and  C_13
REMARK    7  A    between atoms: N_17  and  C_18
REMARK    8  A    between atoms: N_27  and  C_29
REMARK                            x       y       z     vdW  Elec       q    Type
REMARK                         _______ _______ _______ _____ _____    ______ ____
ROOT
ATOM      1  N   UNL     1       0.211  -2.848  -2.359  0.00  0.00    -0.269 N 
ATOM      2  C   UNL     1       0.451  -4.173  -2.309  0.00  0.00    +0.304 C 
ATOM      3  O   UNL     1       0.675  -4.711  -1.241  0.00  0.00    -0.253 OA
ATOM      4  N   UNL     1       0.443  -4.903  -3.442  0.00  0.00    -0.296 N 
ATOM      5  H   UNL     1       0.107  -2.406  -3.216  0.00  0.00    +0.156 HD
ATOM      6  H   UNL     1       0.264  -4.474  -4.293  0.00  0.00    +0.151 HD
ENDROOT
BRANCH   4   7
ATOM      7  C   UNL     1       0.703  -6.341  -3.387  0.00  0.00    +0.077 C 
ATOM      8  C   UNL     1      -0.594  -7.106  -3.112  0.00  0.00    -0.007 C 
ATOM      9  C   UNL     1      -0.279  -8.589  -2.947  0.00  0.00    +0.003 C 
ATOM     10  C   UNL     1       0.457  -9.171  -4.143  0.00  0.00    +0.001 C 
ATOM     11  C   UNL     1       1.618  -8.308  -4.613  0.00  0.00    +0.003 C 
ATOM     12  C   UNL     1       1.248  -6.834  -4.730  0.00  0.00    -0.007 C 
ATOM     13  C   UNL     1       0.228  -6.597  -5.832  0.00  0.00    -0.073 C 
ATOM     14  N   UNL     1      -1.074  -7.194  -5.554  0.00  0.00    +0.382 N 
ATOM     15  C   UNL     1      -1.595  -6.866  -4.231  0.00  0.00    -0.073 C 
ATOM     16  H   UNL     1      -1.034  -8.193  -5.677  0.00  0.00    -0.081 HD
BRANCH  14  17
ATOM     17  C   UNL     1      -2.027  -6.694  -6.554  0.00  0.00    -0.069 C 
ATOM     18  C   UNL     1      -2.863  -7.727  -7.312  0.00  0.00    -0.017 C 
ATOM     19  C   UNL     1      -1.727  -6.990  -8.025  0.00  0.00    -0.017 C 
ENDBRANCH  14  17
ENDBRANCH   4   7
BRANCH   1  23
ATOM     20  C   UNL     1      -1.133  -2.603   2.357  0.00  0.00    +0.044 C 
ATOM     21  C   UNL     1      -0.536  -1.971   1.126  0.00  0.00    -0.037 A 
ATOM     22  C   UNL     1      -0.438  -2.695  -0.041  0.00  0.00    +0.027 A 
ATOM     23  C   UNL     1       0.113  -2.112  -1.179  0.00  0.00    +0.035 A 
ATOM     24  C   UNL     1       0.566  -0.797  -1.141  0.00  0.00    +0.024 A 
ATOM     25  C   UNL     1       0.470  -0.068   0.023  0.00  0.00    +0.015 A 
ATOM     26  C   UNL     1      -0.087  -0.649   1.166  0.00  0.00    +0.040 A 
BRANCH  26  27
ATOM     27  C   UNL     1      -0.196   0.132   2.414  0.00  0.00    +0.245 C 
ATOM     28  O   UNL     1      -0.785  -0.332   3.371  0.00  0.00    -0.270 OA
ATOM     29  N   UNL     1       0.357   1.358   2.492  0.00  0.00    -0.309 N 
ATOM     30  H   UNL     1       0.827   1.728   1.728  0.00  0.00    +0.149 HD
BRANCH  29  31
ATOM     31  C   UNL     1       0.249   2.133   3.731  0.00  0.00    +0.067 C 
ATOM     32  C   UNL     1       1.407   3.130   3.811  0.00  0.00    +0.027 C 
ATOM     33  C   UNL     1      -1.079   2.892   3.743  0.00  0.00    +0.027 C 
ENDBRANCH  29  31
ENDBRANCH  26  27
ENDBRANCH   1  23
TORSDOF 5
