REMARK  Name = ZINC12360659
REMARK  4 active torsions:
REMARK  status: ('A' for Active; 'I' for Inactive)
REMARK    1  A    between atoms: N_7  and  S_8
REMARK    2  A    between atoms: S_8  and  C_11
REMARK    3  A    between atoms: C_28  and  C_31
REMARK    4  A    between atoms: C_34  and  C_37
REMARK                            x       y       z     vdW  Elec       q    Type
REMARK                         _______ _______ _______ _____ _____    ______ ____
ROOT
ATOM      1  C   UNL     1       4.846   0.387  -0.662  0.00  0.00    +0.109 A 
ATOM      2  C   UNL     1       4.595  -0.962  -0.489  0.00  0.00    +0.030 A 
ATOM      3  C   UNL     1       3.349  -1.378  -0.055  0.00  0.00    +0.025 A 
ATOM      4  C   UNL     1       2.370  -0.438   0.202  0.00  0.00    +0.031 A 
ATOM      5  C   UNL     1       2.622   0.921   0.063  0.00  0.00    -0.021 A 
ATOM      6  C   UNL     1       3.868   1.324  -0.389  0.00  0.00    +0.034 A 
ATOM      7  C   UNL     1       1.598   1.947   0.436  0.00  0.00    +0.029 C 
ATOM      8  C   UNL     1       1.870   2.386   1.912  0.00  0.00    -0.003 C 
ATOM      9  C   UNL     1       1.942   1.044   2.702  0.00  0.00    +0.004 C 
ATOM     10  C   UNL     1       0.491   0.512   2.700  0.00  0.00    +0.004 C 
ATOM     11  C   UNL     1      -0.323   1.585   1.916  0.00  0.00    -0.005 C 
ATOM     12  C   UNL     1       0.444   2.891   2.333  0.00  0.00    +0.008 C 
ATOM     13  C   UNL     1       0.155   1.442   0.440  0.00  0.00    +0.024 C 
ATOM     14  C   UNL     1       0.002  -0.004   0.002  0.00  0.00    +0.105 C 
ATOM     15  N   UNL     1       1.079  -0.813   0.609  0.00  0.00    -0.336 N 
ATOM     16  H   UNL     1       0.909  -1.537   1.231  0.00  0.00    +0.147 HD
ENDROOT
BRANCH  14  17
ATOM     17  C   UNL     1      -1.337  -0.528   0.454  0.00  0.00    -0.027 A 
ATOM     18  C   UNL     1      -1.407  -1.418   1.511  0.00  0.00    +0.006 A 
ATOM     19  C   UNL     1      -2.629  -1.898   1.933  0.00  0.00    +0.015 A 
ATOM     20  C   UNL     1      -3.797  -1.492   1.284  0.00  0.00    +0.063 A 
ATOM     21  C   UNL     1      -3.718  -0.597   0.215  0.00  0.00    +0.015 A 
ATOM     22  C   UNL     1      -2.490  -0.121  -0.193  0.00  0.00    +0.006 A 
BRANCH  20  23
ATOM     23  C   UNL     1      -5.109  -2.005   1.728  0.00  0.00    +0.387 C 
ATOM     24  O   UNL     1      -6.123  -1.650   1.161  0.00  0.00    -0.241 OA
ATOM     25  O   UNL     1      -5.181  -2.868   2.760  0.00  0.00    -0.241 OA
ENDBRANCH  20  23
ENDBRANCH  14  17
BRANCH   1  26
ATOM     26  S   UNL     1       6.426   0.916  -1.234  0.00  0.00    +0.075 S 
ATOM     27  O   UNL     1       6.590   2.257  -0.794  0.00  0.00    -0.150 OA
ATOM     28  O   UNL     1       7.345  -0.115  -0.897  0.00  0.00    -0.150 OA
BRANCH  26  35
ATOM     29  C   UNL     1       3.889   3.608  -4.737  0.00  0.00    +0.039 A 
ATOM     30  C   UNL     1       4.894   2.964  -5.443  0.00  0.00    +0.116 A 
ATOM     31  N   UNL     1       5.680   2.109  -4.810  0.00  0.00    -0.222 NA
ATOM     32  C   UNL     1       5.516   1.866  -3.518  0.00  0.00    +0.235 A 
ATOM     33  N   UNL     1       4.562   2.461  -2.816  0.00  0.00    -0.222 NA
ATOM     34  C   UNL     1       3.745   3.331  -3.387  0.00  0.00    +0.116 A 
ATOM     35  N   UNL     1       6.356   0.965  -2.888  0.00  0.00    -0.184 N 
ATOM     36  H   UNL     1       6.905   0.363  -3.415  0.00  0.00    +0.177 HD
ENDBRANCH  26  35
ENDBRANCH   1  26
TORSDOF 4
