REMARK  Name = ZINC36988612
REMARK  4 active torsions:
REMARK  status: ('A' for Active; 'I' for Inactive)
REMARK    1  A    between atoms: C_1  and  C_2
REMARK    2  A    between atoms: C_2  and  C_4
REMARK    3  A    between atoms: C_2  and  N_10
REMARK    4  A    between atoms: N_10  and  C_11
REMARK                            x       y       z     vdW  Elec       q    Type
REMARK                         _______ _______ _______ _____ _____    ______ ____
ROOT
ATOM      1  C   UNL     1      -0.021  -0.614  -2.404  0.00  0.00    +0.044 A 
ATOM      2  C   UNL     1      -1.371  -0.272  -2.469  0.00  0.00    +0.027 A 
ATOM      3  C   UNL     1      -2.030  -0.422  -3.675  0.00  0.00    +0.043 A 
ATOM      4  C   UNL     1      -1.330  -0.906  -4.775  0.00  0.00    +0.099 A 
ATOM      5  N   UNL     1      -0.048  -1.221  -4.676  0.00  0.00    -0.348 N 
ATOM      6  C   UNL     1       0.614  -1.084  -3.543  0.00  0.00    +0.107 A 
ATOM      7  N   UNL     1      -1.985  -1.060  -5.995  0.00  0.00    -0.317 N 
ATOM      8  C   UNL     1      -1.240  -1.444  -7.202  0.00  0.00    +0.106 C 
ATOM      9  C   UNL     1      -1.904  -2.677  -7.821  0.00  0.00    +0.019 C 
ATOM     10  C   UNL     1      -3.387  -2.385  -8.064  0.00  0.00    +0.003 C 
ATOM     11  C   UNL     1      -4.074  -2.083  -6.731  0.00  0.00    +0.019 C 
ATOM     12  C   UNL     1      -3.435  -0.849  -6.098  0.00  0.00    +0.106 C 
ATOM     13  H   UNL     1       0.417  -1.556  -5.458  0.00  0.00    +0.167 HD
ENDROOT
BRANCH   1  14
ATOM     14  N   UNL     1       0.687  -0.478  -1.203  0.00  0.00    -0.336 N 
ATOM     15  H   UNL     1       1.627  -0.714  -1.165  0.00  0.00    +0.147 HD
BRANCH  14  17
ATOM     16  C   UNL     1       0.017   1.550  -0.012  0.00  0.00    +0.033 C 
ATOM     17  C   UNL     1       0.008   0.020  -0.004  0.00  0.00    +0.104 C 
BRANCH  17  18
ATOM     18  C   UNL     1       0.724  -0.481   1.224  0.00  0.00    +0.011 A 
ATOM     19  C   UNL     1       0.204  -0.934   2.390  0.00  0.00    +0.014 A 
ATOM     20  C   UNL     1       1.062  -1.348   3.392  0.00  0.00    +0.028 A 
ATOM     21  C   UNL     1       2.400  -1.287   3.177  0.00  0.00    +0.078 A 
ATOM     22  S   UNL     1       2.478  -0.637   1.516  0.00  0.00    -0.080 S 
ATOM     23 CL   UNL     1       3.699  -1.732   4.239  0.00  0.00    -0.076 Cl
ENDBRANCH  17  18
ENDBRANCH  14  17
ENDBRANCH   1  14
TORSDOF 3
