REMARK  Name = ZINC08453906
REMARK  11 active torsions:
REMARK  status: ('A' for Active; 'I' for Inactive)
REMARK    1  A    between atoms: C_1  and  C_2
REMARK    2  A    between atoms: C_2  and  O_3
REMARK    3  A    between atoms: O_3  and  C_4
REMARK    4  A    between atoms: C_4  and  C_6
REMARK    5  A    between atoms: C_9  and  O_27
REMARK    6  A    between atoms: N_13  and  C_20
REMARK    7  A    between atoms: C_14  and  C_15
REMARK    8  A    between atoms: C_15  and  S_16
REMARK    9  A    between atoms: S_16  and  C_17
REMARK   10  A    between atoms: O_27  and  C_28
REMARK   11  A    between atoms: C_28  and  C_30
REMARK                            x       y       z     vdW  Elec       q    Type
REMARK                         _______ _______ _______ _____ _____    ______ ____
ROOT
ATOM      1  C   UNL     1       1.474  -2.282  -2.587  0.00  0.00    +0.089 A 
ATOM      2  C   UNL     1       2.902  -2.639  -2.690  0.00  0.00    +0.018 A 
ATOM      3  C   UNL     1       3.986  -2.543  -1.821  0.00  0.00    +0.058 A 
ATOM      4  C   UNL     1       5.231  -2.980  -2.232  0.00  0.00    +0.146 A 
ATOM      5  C   UNL     1       5.401  -3.513  -3.507  0.00  0.00    +0.062 A 
ATOM      6  C   UNL     1       4.333  -3.612  -4.372  0.00  0.00    +0.045 A 
ATOM      7  C   UNL     1       3.073  -3.178  -3.975  0.00  0.00    +0.056 A 
ATOM      8  N   UNL     1       1.842  -3.148  -4.604  0.00  0.00    -0.311 N 
ATOM      9  C   UNL     1       0.902  -2.624  -3.778  0.00  0.00    +0.049 A 
ATOM     10 BR   UNL     1       7.111  -4.106  -4.056  0.00  0.00    -0.046 Br
ENDROOT
BRANCH   8  11
ATOM     11  C   UNL     1       1.599  -3.600  -5.907  0.00  0.00    +0.047 A 
ATOM     12  C   UNL     1       1.216  -2.703  -6.895  0.00  0.00    +0.026 A 
ATOM     13  C   UNL     1       0.977  -3.152  -8.179  0.00  0.00    +0.002 A 
ATOM     14  C   UNL     1       1.119  -4.494  -8.481  0.00  0.00    +0.000 A 
ATOM     15  C   UNL     1       1.500  -5.390  -7.500  0.00  0.00    +0.002 A 
ATOM     16  C   UNL     1       1.746  -4.946  -6.215  0.00  0.00    +0.026 A 
ENDBRANCH   8  11
BRANCH   1  17
ATOM     17  C   UNL     1       0.800  -1.681  -1.431  0.00  0.00    +0.342 C 
ATOM     18  O   UNL     1       0.312  -2.394  -0.574  0.00  0.00    -0.245 OA
BRANCH  17  19
ATOM     19  O   UNL     1       0.723  -0.340  -1.317  0.00  0.00    -0.461 OA
BRANCH  19  21
ATOM     20  C   UNL     1       0.065   1.705  -0.209  0.00  0.00    +0.048 C 
ATOM     21  C   UNL     1       0.052   0.176  -0.165  0.00  0.00    +0.229 C 
ENDBRANCH  19  21
ENDBRANCH  17  19
ENDBRANCH   1  17
BRANCH   9  22
ATOM     22  C   UNL     1      -0.553  -2.443  -4.125  0.00  0.00    +0.131 C 
BRANCH  22  23
ATOM     23  S   UNL     1      -1.477  -3.931  -3.652  0.00  0.00    -0.087 S 
BRANCH  23  24
ATOM     24  C   UNL     1      -3.137  -3.567  -4.116  0.00  0.00    +0.123 C 
ATOM     25  N   UNL     1      -3.959  -4.552  -4.479  0.00  0.00    -0.382 N 
ATOM     26  N   UNL     1      -3.572  -2.307  -4.103  0.00  0.00    -0.340 N 
ATOM     27  H   UNL     1      -3.642  -5.469  -4.488  0.00  0.00    +0.158 HD
ATOM     28  H   UNL     1      -2.974  -1.591  -3.839  0.00  0.00    +0.144 HD
ATOM     29  H   UNL     1      -4.486  -2.107  -4.359  0.00  0.00    +0.144 HD
ATOM     30  H   UNL     1      -4.873  -4.352  -4.734  0.00  0.00    +0.158 HD
ENDBRANCH  23  24
ENDBRANCH  22  23
ENDBRANCH   9  22
BRANCH   4  31
ATOM     31  O   UNL     1       6.294  -2.887  -1.389  0.00  0.00    -0.425 OA
BRANCH  31  32
ATOM     32  C   UNL     1       7.121  -1.839  -1.529  0.00  0.00    +0.309 C 
ATOM     33  O   UNL     1       6.856  -0.962  -2.317  0.00  0.00    -0.251 OA
ATOM     34  C   UNL     1       8.380  -1.757  -0.705  0.00  0.00    +0.136 C 
ENDBRANCH  31  32
ENDBRANCH   4  31
TORSDOF 9
