REMARK  Name = ZINC20911431
REMARK  13 active torsions:
REMARK  status: ('A' for Active; 'I' for Inactive)
REMARK    1  A    between atoms: C_1  and  C_2
REMARK    2  A    between atoms: C_5  and  N_9
REMARK    3  A    between atoms: C_10  and  C_12
REMARK    4  A    between atoms: C_12  and  S_13
REMARK    5  A    between atoms: S_13  and  C_14
REMARK    6  A    between atoms: N_18  and  N_19
REMARK    7  A    between atoms: N_20  and  N_21
REMARK    8  A    between atoms: C_22  and  C_23
REMARK    9  A    between atoms: C_24  and  C_32
REMARK   10  A    between atoms: N_26  and  C_29
REMARK   11  A    between atoms: C_27  and  C_28
REMARK   12  A    between atoms: C_29  and  C_30
REMARK   13  A    between atoms: C_29  and  C_31
REMARK                            x       y       z     vdW  Elec       q    Type
REMARK                         _______ _______ _______ _____ _____    ______ ____
ROOT
ATOM      1  C   UNL     1       1.306  -0.410  -0.050  0.00  0.00    +0.210 A 
ATOM      2  N   UNL     1       2.062   0.662  -0.055  0.00  0.00    -0.119 NA
ATOM      3  N   UNL     1       1.222   1.784  -0.052  0.00  0.00    -0.109 NA
ATOM      4  C   UNL     1      -0.019   1.361  -0.044  0.00  0.00    +0.254 A 
ATOM      5  N   UNL     1       0.001  -0.006  -0.043  0.00  0.00    -0.211 N 
ATOM      6  N   UNL     1      -1.152   2.161  -0.044  0.00  0.00    -0.204 N 
ATOM      7  H   UNL     1      -2.151   1.699  -0.042  0.00  0.00    +0.177 HD
ENDROOT
BRANCH   5   8
ATOM      8  N   UNL     1      -1.093  -0.824  -0.035  0.00  0.00    -0.294 N 
ATOM      9  H   UNL     1      -2.104  -0.391  -0.030  0.00  0.00    +0.163 HD
ATOM     10  H   UNL     1      -0.963  -1.917  -0.034  0.00  0.00    +0.163 HD
ENDBRANCH   5   8
BRANCH   6  11
ATOM     11  N   UNL     1      -1.025   3.556  -0.046  0.00  0.00    -0.187 NA
ATOM     12  C   UNL     1      -2.086   4.304  -0.046  0.00  0.00    +0.141 C 
BRANCH  12  13
ATOM     13  C   UNL     1      -1.952   5.774  -0.048  0.00  0.00    +0.038 A 
ATOM     14  C   UNL     1      -0.744   6.504  -0.050  0.00  0.00    +0.069 A 
ATOM     15  N   UNL     1      -1.038   7.777  -0.052  0.00  0.00    -0.175 NA
ATOM     16  N   UNL     1      -2.431   7.918  -0.051  0.00  0.00    -0.265 N 
ATOM     17  C   UNL     1      -2.983   6.688  -0.053  0.00  0.00    +0.045 A 
ATOM     18  C   UNL     1      -4.456   6.371  -0.058  0.00  0.00    +0.066 C 
ATOM     19  C   UNL     1       0.644   5.918  -0.051  0.00  0.00    +0.068 C 
BRANCH  16  20
ATOM     20  C   UNL     1      -3.163   9.187  -0.052  0.00  0.00    +0.101 C 
ATOM     21  C   UNL     1      -2.792   9.992   1.195  0.00  0.00    +0.032 C 
ATOM     22  C   UNL     1      -2.796   9.987  -1.304  0.00  0.00    +0.032 C 
ENDBRANCH  16  20
ENDBRANCH  12  13
ENDBRANCH   6  11
BRANCH   1  23
ATOM     23  S   UNL     1       1.873  -2.078  -0.051  0.00  0.00    -0.075 S 
BRANCH  23  24
ATOM     24  C   UNL     1       3.681  -1.926  -0.061  0.00  0.00    +0.173 C 
BRANCH  24  26
ATOM     25  N   UNL     1       5.641  -3.435  -0.070  0.00  0.00    -0.284 N 
ATOM     26  C   UNL     1       4.300  -3.300  -0.063  0.00  0.00    +0.228 C 
ATOM     27  O   UNL     1       3.592  -4.285  -0.057  0.00  0.00    -0.275 OA
ATOM     28  H   UNL     1       6.283  -2.545  -0.150  0.00  0.00    +0.155 HD
BRANCH  25  33
ATOM     29  C   UNL     1       7.977  -8.592   0.307  0.00  0.00    +0.044 C 
ATOM     30  C   UNL     1       7.357  -7.222   0.207  0.00  0.00    -0.049 A 
ATOM     31  C   UNL     1       6.166  -7.052  -0.474  0.00  0.00    +0.005 A 
ATOM     32  C   UNL     1       5.595  -5.798  -0.568  0.00  0.00    +0.024 A 
ATOM     33  C   UNL     1       6.218  -4.707   0.023  0.00  0.00    +0.047 A 
ATOM     34  C   UNL     1       7.417  -4.880   0.703  0.00  0.00    +0.039 A 
ATOM     35  C   UNL     1       7.981  -6.138   0.797  0.00  0.00    +0.020 A 
ATOM     36 BR   UNL     1       8.274  -3.396   1.503  0.00  0.00    -0.048 Br
ENDBRANCH  25  33
ENDBRANCH  24  26
ENDBRANCH  23  24
ENDBRANCH   1  23
TORSDOF 8
