REMARK  Name = ZINC06442407
REMARK  7 active torsions:
REMARK  status: ('A' for Active; 'I' for Inactive)
REMARK    1  A    between atoms: C_1  and  C_2
REMARK    2  A    between atoms: C_7  and  C_15
REMARK    3  A    between atoms: C_13  and  C_14
REMARK    4  A    between atoms: C_15  and  C_17
REMARK    5  A    between atoms: C_15  and  N_63
REMARK    6  A    between atoms: N_21  and  C_22
REMARK    7  A    between atoms: C_22  and  C_23
REMARK                            x       y       z     vdW  Elec       q    Type
REMARK                         _______ _______ _______ _____ _____    ______ ____
ROOT
ATOM      1  C   UNL     1      -0.073   1.581   0.104  0.00  0.00    +0.039 C 
ENDROOT
BRANCH   1   8
ATOM      2  C   UNL     1       7.273   4.556  -0.788  0.00  0.00    +0.044 C 
ATOM      3  C   UNL     1       5.991   3.786  -0.607  0.00  0.00    -0.046 A 
ATOM      4  C   UNL     1       6.032   2.405  -0.465  0.00  0.00    +0.004 A 
ATOM      5  C   UNL     1       4.882   1.688  -0.300  0.00  0.00    +0.010 A 
ATOM      6  C   UNL     1       3.650   2.351  -0.273  0.00  0.00    -0.001 A 
ATOM      7  C   UNL     1       2.398   1.614  -0.091  0.00  0.00    +0.017 A 
ATOM      8  C   UNL     1       1.234   2.309  -0.077  0.00  0.00    +0.011 A 
ATOM      9  C   UNL     1       1.242   3.713  -0.225  0.00  0.00    +0.251 A 
ATOM     10  O   UNL     1       0.184   4.319  -0.205  0.00  0.00    -0.268 OA
ATOM     11  N   UNL     1       2.387   4.398  -0.388  0.00  0.00    -0.322 N 
ATOM     12  H   UNL     1       2.357   5.363  -0.486  0.00  0.00    +0.169 HD
ATOM     13  C   UNL     1       3.603   3.750  -0.416  0.00  0.00    +0.052 A 
ATOM     14  C   UNL     1       4.788   4.459  -0.584  0.00  0.00    -0.024 A 
ATOM     15  C   UNL     1       4.758   5.958  -0.740  0.00  0.00    +0.046 C 
ENDBRANCH   1   8
BRANCH   1  22
ATOM     16  C   UNL     1      -2.352   1.444  -0.731  0.00  0.00    -0.077 C 
ATOM     17  C   UNL     1      -3.246   1.511  -1.939  0.00  0.00    -0.019 C 
ATOM     18  C   UNL     1      -3.221   0.139  -2.644  0.00  0.00    -0.002 C 
ATOM     19  C   UNL     1      -2.017  -0.047  -3.446  0.00  0.00    -0.002 C 
ATOM     20  C   UNL     1      -0.733   0.009  -2.591  0.00  0.00    -0.019 C 
ATOM     21  C   UNL     1      -0.416   1.450  -2.299  0.00  0.00    -0.077 C 
ATOM     22  N   UNL     1      -0.968   1.965  -1.000  0.00  0.00    +0.389 N 
ATOM     23  H   UNL     1      -1.012   2.989  -1.050  0.00  0.00    -0.080 HD
ENDBRANCH   1  22
BRANCH   1  24
ATOM     24  C   UNL     1      -0.707   2.001   1.405  0.00  0.00    +0.143 A 
ATOM     25  N   UNL     1      -1.164   3.192   1.705  0.00  0.00    -0.115 NA
ATOM     26  N   UNL     1      -1.629   3.150   2.906  0.00  0.00    -0.023 NA
ATOM     27  N   UNL     1      -1.472   1.964   3.383  0.00  0.00    -0.044 NA
ATOM     28  N   UNL     1      -0.907   1.227   2.488  0.00  0.00    -0.226 N 
BRANCH  28  29
ATOM     29  C   UNL     1      -0.550  -0.188   2.624  0.00  0.00    +0.182 C 
BRANCH  29  30
ATOM     30  C   UNL     1       0.798  -0.304   3.286  0.00  0.00    -0.026 A 
ATOM     31  C   UNL     1       1.934  -0.468   2.516  0.00  0.00    +0.005 A 
ATOM     32  C   UNL     1       3.172  -0.570   3.123  0.00  0.00    +0.000 A 
ATOM     33  C   UNL     1       3.273  -0.518   4.501  0.00  0.00    +0.000 A 
ATOM     34  C   UNL     1       2.136  -0.359   5.271  0.00  0.00    +0.000 A 
ATOM     35  C   UNL     1       0.899  -0.252   4.664  0.00  0.00    +0.005 A 
ENDBRANCH  29  30
ENDBRANCH  28  29
ENDBRANCH   1  24
TORSDOF 5
