REMARK  Name = ZINC03145234
REMARK  11 active torsions:
REMARK  status: ('A' for Active; 'I' for Inactive)
REMARK    1  A    between atoms: C_1  and  C_2
REMARK    2  A    between atoms: C_2  and  C_3
REMARK    3  A    between atoms: C_2  and  C_4
REMARK    4  A    between atoms: C_2  and  C_5
REMARK    5  A    between atoms: C_5  and  C_7
REMARK    6  A    between atoms: C_5  and  N_17
REMARK    7  A    between atoms: C_8  and  C_9
REMARK    8  A    between atoms: C_18  and  C_22
REMARK    9  A    between atoms: C_22  and  N_47
REMARK   10  A    between atoms: C_23  and  N_47
REMARK   11  A    between atoms: C_24  and  N_47
REMARK                            x       y       z     vdW  Elec       q    Type
REMARK                         _______ _______ _______ _____ _____    ______ ____
ROOT
ATOM      1  C   UNL     1      -3.011   3.617   0.356  0.00  0.00    +0.139 C 
ENDROOT
BRANCH   1   2
ATOM      2  N   UNL     1      -3.195   2.321  -0.302  0.00  0.00    -0.224 N 
ATOM      3  C   UNL     1      -2.249   1.608  -0.941  0.00  0.00    +0.136 A 
ATOM      4  N   UNL     1      -2.834   0.521  -1.385  0.00  0.00    -0.115 NA
ATOM      5  N   UNL     1      -4.072   0.562  -1.030  0.00  0.00    -0.023 NA
ATOM      6  N   UNL     1      -4.294   1.650  -0.378  0.00  0.00    -0.043 NA
BRANCH   3   7
ATOM      7  C   UNL     1      -0.802   1.987  -1.117  0.00  0.00    -0.000 C 
BRANCH   7  10
ATOM      8  C   UNL     1       0.002  -0.004   0.002  0.00  0.00    -0.096 C 
ATOM      9  C   UNL     1       1.346   2.010   0.000  0.00  0.00    -0.096 C 
ATOM     10  N   UNL     1      -0.030   1.473   0.034  0.00  0.00    +0.381 N 
ATOM     11  H   UNL     1      -0.486   1.778   0.903  0.00  0.00    -0.082 HD
ENDBRANCH   7  10
ENDBRANCH   3   7
ENDBRANCH   1   2
BRANCH   1  13
ATOM     12  C   UNL     1      -5.383   4.213  -0.153  0.00  0.00    +0.013 C 
ATOM     13  C   UNL     1      -3.925   4.656  -0.296  0.00  0.00    -0.012 C 
ATOM     14  C   UNL     1      -3.733   6.009   0.391  0.00  0.00    +0.013 C 
ATOM     15  C   UNL     1      -3.575   4.783  -1.780  0.00  0.00    +0.013 C 
ENDBRANCH   1  13
BRANCH   1  16
ATOM     16  C   UNL     1      -3.356   3.492   1.818  0.00  0.00    +0.001 C 
ATOM     17  C   UNL     1      -2.441   3.755   2.740  0.00  0.00    +0.007 C 
BRANCH  17  18
ATOM     18  C   UNL     1      -2.780   3.632   4.174  0.00  0.00    -0.007 A 
ATOM     19  C   UNL     1      -4.064   3.244   4.559  0.00  0.00    +0.011 A 
ATOM     20  C   UNL     1      -4.373   3.126   5.898  0.00  0.00    +0.020 A 
ATOM     21  C   UNL     1      -3.415   3.401   6.860  0.00  0.00    +0.042 A 
ATOM     22  C   UNL     1      -2.141   3.791   6.485  0.00  0.00    +0.040 A 
ATOM     23  C   UNL     1      -1.818   3.908   5.148  0.00  0.00    +0.049 A 
ATOM     24 CL   UNL     1      -0.220   4.398   4.678  0.00  0.00    -0.083 Cl
ATOM     25 CL   UNL     1      -3.814   3.255   8.544  0.00  0.00    -0.083 Cl
ENDBRANCH  17  18
ENDBRANCH   1  16
TORSDOF 6
