REMARK  Name = ZINC39265781
REMARK  8 active torsions:
REMARK  status: ('A' for Active; 'I' for Inactive)
REMARK    1  A    between atoms: C_4  and  C_7
REMARK    2  A    between atoms: C_7  and  O_8
REMARK    3  A    between atoms: O_8  and  C_9
REMARK    4  A    between atoms: C_16  and  C_33
REMARK    5  A    between atoms: N_18  and  C_21
REMARK    6  A    between atoms: C_21  and  C_22
REMARK    7  A    between atoms: N_24  and  N_25
REMARK    8  A    between atoms: N_25  and  C_26
REMARK                            x       y       z     vdW  Elec       q    Type
REMARK                         _______ _______ _______ _____ _____    ______ ____
ROOT
ATOM      1  C   UNL     1       5.219  -1.576   1.648  0.00  0.00    +0.404 C 
ATOM      2  O   UNL     1       5.796  -1.941   0.643  0.00  0.00    -0.226 OA
ATOM      3  N   UNL     1       5.757  -1.818   2.859  0.00  0.00    -0.251 N 
ATOM      4  C   UNL     1       5.165  -1.439   4.157  0.00  0.00    +0.112 C 
ATOM      5  C   UNL     1       5.780  -2.428   5.178  0.00  0.00    +0.022 C 
ATOM      6  C   UNL     1       7.227  -2.580   4.635  0.00  0.00    +0.039 C 
ATOM      7  C   UNL     1       7.026  -2.509   3.110  0.00  0.00    +0.139 C 
ATOM      8  C   UNL     1       8.226  -1.960   2.340  0.00  0.00    +0.139 C 
ATOM      9  N   UNL     1       8.245  -3.298   1.735  0.00  0.00    -0.281 N 
ATOM     10  C   UNL     1       7.189  -3.824   2.395  0.00  0.00    +0.243 C 
ATOM     11  O   UNL     1       6.618  -4.894   2.406  0.00  0.00    -0.273 OA
ENDROOT
BRANCH   8  12
ATOM     12  C   UNL     1       9.423  -1.651   3.201  0.00  0.00    -0.024 A 
ATOM     13  C   UNL     1      10.212  -2.679   3.682  0.00  0.00    +0.005 A 
ATOM     14  C   UNL     1      11.310  -2.396   4.473  0.00  0.00    +0.000 A 
ATOM     15  C   UNL     1      11.620  -1.085   4.781  0.00  0.00    +0.000 A 
ATOM     16  C   UNL     1      10.832  -0.057   4.299  0.00  0.00    +0.000 A 
ATOM     17  C   UNL     1       9.736  -0.340   3.506  0.00  0.00    +0.005 A 
ENDBRANCH   8  12
BRANCH   1  18
ATOM     18  O   UNL     1       4.042  -0.929   1.551  0.00  0.00    -0.445 OA
BRANCH  18  19
ATOM     19  C   UNL     1       3.531  -0.706   0.235  0.00  0.00    +0.269 C 
BRANCH  19  23
ATOM     20  C   UNL     1      -0.195   1.368   0.486  0.00  0.00    +0.000 A 
ATOM     21  C   UNL     1       0.987   2.079   0.399  0.00  0.00    +0.000 A 
ATOM     22  C   UNL     1       2.193   1.408   0.318  0.00  0.00    +0.007 A 
ATOM     23  C   UNL     1       2.217   0.026   0.325  0.00  0.00    -0.010 A 
ATOM     24  C   UNL     1       1.034  -0.685   0.412  0.00  0.00    +0.007 A 
ATOM     25  C   UNL     1      -0.172  -0.015   0.492  0.00  0.00    +0.000 A 
ENDBRANCH  19  23
ENDBRANCH  18  19
ENDBRANCH   1  18
BRANCH   9  26
ATOM     26  C   UNL     1       9.133  -3.883   0.728  0.00  0.00    +0.205 C 
BRANCH  26  27
ATOM     27  C   UNL     1       8.643  -3.515  -0.649  0.00  0.00    +0.246 C 
ATOM     28  O   UNL     1       7.710  -2.751  -0.776  0.00  0.00    -0.273 OA
ATOM     29  N   UNL     1       9.242  -4.034  -1.739  0.00  0.00    -0.235 N 
ATOM     30  H   UNL     1       9.989  -4.645  -1.637  0.00  0.00    +0.173 HD
BRANCH  29  31
ATOM     31  N   UNL     1       8.787  -3.692  -3.018  0.00  0.00    -0.264 N 
ATOM     32  H   UNL     1       8.040  -3.081  -3.120  0.00  0.00    +0.170 HD
BRANCH  31  33
ATOM     33  C   UNL     1       9.408  -4.230  -4.148  0.00  0.00    +0.046 A 
ATOM     34  C   UNL     1      10.473  -5.110  -4.004  0.00  0.00    +0.024 A 
ATOM     35  C   UNL     1      11.086  -5.640  -5.122  0.00  0.00    +0.003 A 
ATOM     36  C   UNL     1      10.639  -5.298  -6.385  0.00  0.00    +0.020 A 
ATOM     37  C   UNL     1       9.578  -4.422  -6.533  0.00  0.00    +0.043 A 
ATOM     38  C   UNL     1       8.957  -3.892  -5.417  0.00  0.00    +0.044 A 
ATOM     39 CL   UNL     1       9.021  -3.994  -8.121  0.00  0.00    -0.083 Cl
ENDBRANCH  31  33
ENDBRANCH  29  31
ENDBRANCH  26  27
ENDBRANCH   9  26
TORSDOF 8
