REMARK  Name = ZINC20841229
REMARK  17 active torsions:
REMARK  status: ('A' for Active; 'I' for Inactive)
REMARK    1  A    between atoms: C_1  and  C_2
REMARK    2  A    between atoms: C_2  and  C_3
REMARK    3  A    between atoms: C_4  and  C_31
REMARK    4  A    between atoms: C_5  and  N_30
REMARK    5  A    between atoms: C_7  and  S_11
REMARK    6  A    between atoms: C_8  and  C_9
REMARK    7  A    between atoms: S_11  and  C_12
REMARK    8  A    between atoms: C_12  and  C_13
REMARK    9  A    between atoms: C_13  and  C_14
REMARK   10  A    between atoms: C_14  and  C_15
REMARK   11  A    between atoms: C_15  and  S_16
REMARK   12  A    between atoms: S_16  and  C_17
REMARK   13  A    between atoms: C_18  and  C_28
REMARK   14  A    between atoms: C_19  and  C_26
REMARK   15  A    between atoms: C_20  and  C_24
REMARK   16  A    between atoms: C_21  and  N_23
REMARK   17  A    between atoms: C_26  and  C_27
REMARK                            x       y       z     vdW  Elec       q    Type
REMARK                         _______ _______ _______ _____ _____    ______ ____
ROOT
ATOM      1  C   UNL     1      -8.479   1.654  -0.236  0.00  0.00    +0.012 C 
ENDROOT
BRANCH   1   2
ATOM      2  C   UNL     1      -7.188   1.055   0.327  0.00  0.00    +0.076 C 
BRANCH   2   3
ATOM      3  S   UNL     1      -5.806   2.175  -0.010  0.00  0.00    -0.105 S 
BRANCH   3   8
ATOM      4  C   UNL     1      -2.143   1.058   1.278  0.00  0.00    -0.007 A 
ATOM      5  C   UNL     1      -2.449  -0.168   1.874  0.00  0.00    +0.096 A 
ATOM      6  C   UNL     1      -3.783  -0.621   1.863  0.00  0.00    +0.135 A 
ATOM      7  N   UNL     1      -4.739   0.099   1.299  0.00  0.00    -0.224 NA
ATOM      8  C   UNL     1      -4.488   1.265   0.724  0.00  0.00    +0.117 A 
ATOM      9  C   UNL     1      -3.180   1.790   0.697  0.00  0.00    +0.088 A 
BRANCH   6  10
ATOM     10  N   UNL     1      -4.097  -1.831   2.449  0.00  0.00    -0.342 N 
ATOM     11  H   UNL     1      -5.136  -2.191   2.445  0.00  0.00    +0.144 HD
ATOM     12  H   UNL     1      -3.308  -2.435   2.920  0.00  0.00    +0.144 HD
ENDBRANCH   6  10
BRANCH   4  14
ATOM     13  C   UNL     1      -0.013   1.086   0.008  0.00  0.00    +0.009 C 
ATOM     14  C   UNL     1      -0.729   1.579   1.267  0.00  0.00    +0.034 C 
ENDBRANCH   4  14
BRANCH   9  15
ATOM     15  C   UNL     1      -2.918   3.054   0.078  0.00  0.00    +0.102 C 
ATOM     16  N   UNL     1      -2.710   4.058  -0.413  0.00  0.00    -0.191 NA
ENDBRANCH   9  15
BRANCH   5  17
ATOM     17  C   UNL     1      -1.421  -0.954   2.488  0.00  0.00    +0.103 C 
ATOM     18  N   UNL     1      -0.606  -1.577   2.975  0.00  0.00    -0.191 NA
ENDBRANCH   5  17
ENDBRANCH   3   8
ENDBRANCH   2   3
ENDBRANCH   1   2
BRANCH   1  19
ATOM     19  C   UNL     1      -9.646   0.707   0.050  0.00  0.00    +0.012 C 
BRANCH  19  20
ATOM     20  C   UNL     1     -10.937   1.305  -0.513  0.00  0.00    +0.076 C 
BRANCH  20  21
ATOM     21  S   UNL     1     -12.318   0.185  -0.176  0.00  0.00    -0.105 S 
BRANCH  21  22
ATOM     22  C   UNL     1     -13.637   1.095  -0.910  0.00  0.00    +0.117 A 
ATOM     23  C   UNL     1     -14.945   0.571  -0.883  0.00  0.00    +0.088 A 
ATOM     24  C   UNL     1     -15.982   1.303  -1.464  0.00  0.00    -0.007 A 
ATOM     25  C   UNL     1     -15.675   2.529  -2.060  0.00  0.00    +0.096 A 
ATOM     26  C   UNL     1     -14.342   2.982  -2.050  0.00  0.00    +0.135 A 
ATOM     27  N   UNL     1     -13.386   2.262  -1.485  0.00  0.00    -0.224 NA
BRANCH  26  28
ATOM     28  N   UNL     1     -14.028   4.191  -2.636  0.00  0.00    -0.342 N 
ATOM     29  H   UNL     1     -12.988   4.552  -2.631  0.00  0.00    +0.144 HD
ATOM     30  H   UNL     1     -14.817   4.795  -3.107  0.00  0.00    +0.144 HD
ENDBRANCH  26  28
BRANCH  25  31
ATOM     31  C   UNL     1     -16.704   3.314  -2.674  0.00  0.00    +0.103 C 
ATOM     32  N   UNL     1     -17.519   3.938  -3.160  0.00  0.00    -0.191 NA
ENDBRANCH  25  31
BRANCH  24  33
ATOM     33  C   UNL     1     -17.396   0.781  -1.453  0.00  0.00    +0.034 C 
ATOM     34  C   UNL     1     -17.637  -0.065  -2.705  0.00  0.00    +0.009 C 
ENDBRANCH  24  33
BRANCH  23  35
ATOM     35  C   UNL     1     -15.207  -0.694  -0.265  0.00  0.00    +0.102 C 
ATOM     36  N   UNL     1     -15.415  -1.697   0.226  0.00  0.00    -0.191 NA
ENDBRANCH  23  35
ENDBRANCH  21  22
ENDBRANCH  20  21
ENDBRANCH  19  20
ENDBRANCH   1  19
TORSDOF 15
