REMARK  Name = ZINC04793333
REMARK  7 active torsions:
REMARK  status: ('A' for Active; 'I' for Inactive)
REMARK    1  A    between atoms: C_1  and  C_2
REMARK    2  A    between atoms: C_5  and  C_8
REMARK    3  A    between atoms: C_10  and  C_30
REMARK    4  A    between atoms: C_18  and  S_20
REMARK    5  A    between atoms: S_20  and  C_21
REMARK    6  A    between atoms: C_21  and  C_22
REMARK    7  A    between atoms: C_33  and  C_36
REMARK                            x       y       z     vdW  Elec       q    Type
REMARK                         _______ _______ _______ _____ _____    ______ ____
ROOT
ATOM      1  C   UNL     1       0.002  -0.004   0.002  0.00  0.00    +0.000 A 
ATOM      2  C   UNL     1      -0.017   1.389   0.010  0.00  0.00    +0.037 A 
ATOM      3  C   UNL     1       1.190   2.089   0.002  0.00  0.00    +0.074 A 
ATOM      4  N   UNL     1       2.357   1.462  -0.013  0.00  0.00    -0.227 NA
ATOM      5  C   UNL     1       2.437   0.135  -0.021  0.00  0.00    +0.169 A 
ATOM      6  C   UNL     1       1.255  -0.643  -0.013  0.00  0.00    +0.091 A 
ATOM      7  C   UNL     1       1.379  -2.103  -0.023  0.00  0.00    +0.262 A 
ATOM      8  O   UNL     1       0.396  -2.821  -0.017  0.00  0.00    -0.267 OA
ATOM      9  N   UNL     1       2.628  -2.624  -0.038  0.00  0.00    -0.301 N 
ATOM     10  H   UNL     1       2.750  -3.586  -0.045  0.00  0.00    +0.171 HD
ATOM     11  C   UNL     1       3.718  -1.802  -0.044  0.00  0.00    +0.171 A 
ATOM     12  N   UNL     1       3.629  -0.494  -0.036  0.00  0.00    -0.204 NA
ENDROOT
BRANCH   1  17
ATOM     13  C   UNL     1      -4.887  -3.044   0.030  0.00  0.00    +0.044 C 
ATOM     14  C   UNL     1      -3.607  -2.249   0.023  0.00  0.00    -0.050 A 
ATOM     15  C   UNL     1      -3.421  -1.235   0.946  0.00  0.00    +0.004 A 
ATOM     16  C   UNL     1      -2.252  -0.503   0.944  0.00  0.00    +0.009 A 
ATOM     17  C   UNL     1      -1.256  -0.786   0.009  0.00  0.00    -0.017 A 
ATOM     18  C   UNL     1      -1.452  -1.806  -0.922  0.00  0.00    +0.009 A 
ATOM     19  C   UNL     1      -2.624  -2.535  -0.906  0.00  0.00    +0.004 A 
ENDBRANCH   1  17
BRANCH   3  20
ATOM     20  C   UNL     1       1.166   3.572   0.010  0.00  0.00    +0.000 A 
ATOM     21  C   UNL     1      -0.051   4.252   0.019  0.00  0.00    +0.010 A 
ATOM     22  C   UNL     1      -0.067   5.632   0.031  0.00  0.00    +0.004 A 
ATOM     23  C   UNL     1       1.121   6.340   0.024  0.00  0.00    -0.050 A 
ATOM     24  C   UNL     1       2.331   5.670   0.009  0.00  0.00    +0.004 A 
ATOM     25  C   UNL     1       2.360   4.291   0.002  0.00  0.00    +0.010 A 
ATOM     26  C   UNL     1       1.097   7.847   0.031  0.00  0.00    +0.044 C 
ENDBRANCH   3  20
BRANCH  11  27
ATOM     27  S   UNL     1       5.321  -2.533  -0.064  0.00  0.00    -0.083 S 
BRANCH  27  28
ATOM     28  C   UNL     1       6.347  -1.042  -0.065  0.00  0.00    +0.114 C 
BRANCH  28  29
ATOM     29  C   UNL     1       7.802  -1.433  -0.082  0.00  0.00    -0.019 A 
ATOM     30  C   UNL     1       8.457  -1.606  -1.287  0.00  0.00    +0.009 A 
ATOM     31  C   UNL     1       9.792  -1.964  -1.303  0.00  0.00    +0.039 A 
ATOM     32  C   UNL     1      10.474  -2.150  -0.112  0.00  0.00    +0.125 A 
ATOM     33  C   UNL     1       9.817  -1.978   1.094  0.00  0.00    +0.058 A 
ATOM     34  C   UNL     1       8.483  -1.614   1.109  0.00  0.00    +0.048 A 
ATOM     35 CL   UNL     1       7.661  -1.390   2.622  0.00  0.00    -0.083 Cl
ATOM     36  F   UNL     1      11.778  -2.500  -0.128  0.00  0.00    -0.205 F 
ENDBRANCH  28  29
ENDBRANCH  27  28
ENDBRANCH  11  27
TORSDOF 5
