REMARK  Name = ZINC01723345
REMARK  4 active torsions:
REMARK  status: ('A' for Active; 'I' for Inactive)
REMARK    1  A    between atoms: C_10  and  C_11
REMARK    2  A    between atoms: C_11  and  C_13
REMARK    3  A    between atoms: C_11  and  N_53
REMARK    4  A    between atoms: C_22  and  O_23
REMARK                            x       y       z     vdW  Elec       q    Type
REMARK                         _______ _______ _______ _____ _____    ______ ____
ROOT
ATOM      1  C   UNL     1      -1.423   5.995   0.047  0.00  0.00    -0.002 C 
ENDROOT
BRANCH   1  11
ATOM      2  C   UNL     1      -5.633   8.154  -1.907  0.00  0.00    +0.001 A 
ATOM      3  C   UNL     1      -5.324   7.518  -0.706  0.00  0.00    +0.001 A 
ATOM      4  C   UNL     1      -4.075   7.033  -0.470  0.00  0.00    +0.009 A 
ATOM      5  C   UNL     1      -3.078   7.174  -1.451  0.00  0.00    -0.016 A 
ATOM      6  C   UNL     1      -3.390   7.825  -2.671  0.00  0.00    -0.018 A 
ATOM      7  C   UNL     1      -4.691   8.318  -2.875  0.00  0.00    +0.008 A 
ATOM      8  C   UNL     1      -2.396   7.961  -3.654  0.00  0.00    +0.008 A 
ATOM      9  C   UNL     1      -1.147   7.471  -3.421  0.00  0.00    +0.001 A 
ATOM     10  C   UNL     1      -0.839   6.836  -2.220  0.00  0.00    +0.003 A 
ATOM     11  C   UNL     1      -1.777   6.686  -1.245  0.00  0.00    -0.049 A 
ENDBRANCH   1  11
BRANCH   1  12
ATOM     12  C   UNL     1      -0.221   5.113  -0.168  0.00  0.00    -0.008 A 
ATOM     13  C   UNL     1      -0.381   3.726  -0.325  0.00  0.00    -0.013 A 
ATOM     14  C   UNL     1      -1.654   3.131  -0.286  0.00  0.00    +0.009 A 
ATOM     15  C   UNL     1      -1.773   1.785  -0.449  0.00  0.00    +0.001 A 
ATOM     16  C   UNL     1      -0.649   0.983  -0.641  0.00  0.00    +0.001 A 
ATOM     17  C   UNL     1       0.599   1.525  -0.683  0.00  0.00    +0.008 A 
ATOM     18  C   UNL     1       0.761   2.912  -0.526  0.00  0.00    -0.017 A 
ATOM     19  C   UNL     1       2.035   3.506  -0.565  0.00  0.00    +0.012 A 
ATOM     20  C   UNL     1       2.157   4.851  -0.409  0.00  0.00    +0.046 A 
ATOM     21  C   UNL     1       1.031   5.657  -0.211  0.00  0.00    +0.119 A 
BRANCH  21  22
ATOM     22  O   UNL     1       1.185   6.998  -0.059  0.00  0.00    -0.507 OA
ATOM     23  H   UNL     1       1.153   7.494  -0.888  0.00  0.00    +0.292 HD
ENDBRANCH  21  22
ENDBRANCH   1  12
BRANCH   1  29
ATOM     24  C   UNL     1      -0.692   6.364   2.325  0.00  0.00    -0.078 C 
ATOM     25  C   UNL     1      -0.241   7.437   3.319  0.00  0.00    -0.019 C 
ATOM     26  C   UNL     1      -1.401   8.401   3.582  0.00  0.00    -0.004 C 
ATOM     27  C   UNL     1      -1.855   9.015   2.254  0.00  0.00    -0.019 C 
ATOM     28  C   UNL     1      -2.259   7.896   1.292  0.00  0.00    -0.078 C 
ATOM     29  N   UNL     1      -1.092   7.018   1.061  0.00  0.00    +0.387 N 
ATOM     30  H   UNL     1      -0.309   7.586   0.718  0.00  0.00    -0.080 HD
ENDBRANCH   1  29
TORSDOF 4
