REMARK  Name = ZINC63375670
REMARK  10 active torsions:
REMARK  status: ('A' for Active; 'I' for Inactive)
REMARK    1  A    between atoms: C_1  and  C_2
REMARK    2  A    between atoms: C_2  and  C_3
REMARK    3  A    between atoms: C_3  and  C_4
REMARK    4  A    between atoms: C_13  and  O_15
REMARK    5  A    between atoms: O_15  and  C_16
REMARK    6  A    between atoms: C_16  and  C_18
REMARK    7  A    between atoms: C_16  and  C_19
REMARK    8  A    between atoms: N_21  and  C_22
REMARK    9  A    between atoms: C_22  and  C_23
REMARK   10  A    between atoms: C_23  and  C_24
REMARK                            x       y       z     vdW  Elec       q    Type
REMARK                         _______ _______ _______ _____ _____    ______ ____
ROOT
ATOM      1  C   UNL     1       5.760  -4.128   2.016  0.00  0.00    +0.255 C 
ATOM      2  C   UNL     1       6.841  -3.842   0.972  0.00  0.00    +0.062 C 
ENDROOT
BRANCH   1   3
ATOM      3  C   UNL     1       6.358  -4.915   3.154  0.00  0.00    +0.254 C 
ATOM      4  O   UNL     1       5.986  -6.050   3.367  0.00  0.00    -0.272 OA
ATOM      5  N   UNL     1       7.304  -4.358   3.935  0.00  0.00    -0.312 N 
ATOM      6  H   UNL     1       7.602  -3.451   3.764  0.00  0.00    +0.149 HD
BRANCH   5   7
ATOM      7  C   UNL     1       7.885  -5.123   5.041  0.00  0.00    +0.108 C 
BRANCH   7   8
ATOM      8  C   UNL     1       8.927  -4.266   5.762  0.00  0.00    +0.052 C 
BRANCH   8   9
ATOM      9  C   UNL     1       9.525  -5.053   6.900  0.00  0.00    -0.040 C 
ATOM     10  C   UNL     1      10.669  -5.774   6.878  0.00  0.00    -0.001 A 
ATOM     11  C   UNL     1      11.661  -6.033   5.827  0.00  0.00    +0.010 A 
ATOM     12  C   UNL     1      12.728  -6.814   6.111  0.00  0.00    +0.001 A 
ATOM     13  C   UNL     1      12.909  -7.383   7.379  0.00  0.00    +0.002 A 
ATOM     14  C   UNL     1      12.041  -7.191   8.395  0.00  0.00    +0.026 A 
ATOM     15  C   UNL     1      10.883  -6.386   8.209  0.00  0.00    +0.043 A 
ATOM     16  N   UNL     1       9.910  -6.055   9.022  0.00  0.00    -0.380 N 
ATOM     17  C   UNL     1       8.970  -5.191   8.300  0.00  0.00    +0.144 C 
ATOM     18  H   UNL     1       9.827  -6.333   9.948  0.00  0.00    +0.160 HD
ENDBRANCH   8   9
ENDBRANCH   7   8
ENDBRANCH   5   7
ENDBRANCH   1   3
BRANCH   1  19
ATOM     19  O   UNL     1       4.707  -4.884   1.416  0.00  0.00    -0.480 OA
BRANCH  19  29
ATOM     20  C   UNL     1       0.727  -2.018  -1.263  0.00  0.00    -0.030 A 
ATOM     21  C   UNL     1       0.893  -0.675  -1.385  0.00  0.00    +0.096 A 
ATOM     22  C   UNL     1       2.042  -0.058  -0.849  0.00  0.00    +0.337 A 
ATOM     23  O   UNL     1       2.177   1.147  -0.965  0.00  0.00    -0.245 OA
ATOM     24  O   UNL     1       2.989  -0.764  -0.213  0.00  0.00    -0.422 OA
ATOM     25  C   UNL     1       2.886  -2.102  -0.057  0.00  0.00    +0.143 A 
ATOM     26  C   UNL     1       1.762  -2.781  -0.563  0.00  0.00    +0.021 A 
ATOM     27  C   UNL     1       1.649  -4.167  -0.399  0.00  0.00    +0.015 A 
ATOM     28  C   UNL     1       2.629  -4.854   0.257  0.00  0.00    +0.046 A 
ATOM     29  C   UNL     1       3.741  -4.186   0.765  0.00  0.00    +0.125 A 
ATOM     30  C   UNL     1       3.874  -2.817   0.603  0.00  0.00    +0.092 A 
BRANCH  20  31
ATOM     31  C   UNL     1      -0.491  -2.702  -1.826  0.00  0.00    +0.036 C 
BRANCH  31  33
ATOM     32  C   UNL     1      -1.409  -3.943  -3.791  0.00  0.00    +0.004 C 
ATOM     33  C   UNL     1      -0.171  -3.249  -3.219  0.00  0.00    +0.001 C 
ENDBRANCH  31  33
ENDBRANCH  20  31
ENDBRANCH  19  29
ENDBRANCH   1  19
TORSDOF 8
