REMARK  Name = ZINC09390447
REMARK  6 active torsions:
REMARK  status: ('A' for Active; 'I' for Inactive)
REMARK    1  A    between atoms: C_6  and  C_7
REMARK    2  A    between atoms: C_7  and  O_9
REMARK    3  A    between atoms: O_9  and  C_10
REMARK    4  A    between atoms: C_10  and  C_11
REMARK    5  A    between atoms: N_13  and  C_14
REMARK    6  A    between atoms: N_13  and  C_22
REMARK                            x       y       z     vdW  Elec       q    Type
REMARK                         _______ _______ _______ _____ _____    ______ ____
ROOT
ATOM      1  C   UNL     1      -4.821  -0.053  -0.011  0.00  0.00    +0.254 C 
ATOM      2  O   UNL     1      -3.871  -0.806   0.008  0.00  0.00    -0.272 OA
ATOM      3  N   UNL     1      -6.068  -0.538   0.154  0.00  0.00    -0.291 N 
ENDROOT
BRANCH   3   4
ATOM      4  C   UNL     1      -6.268  -1.954   0.473  0.00  0.00    +0.099 C 
ATOM      5  C   UNL     1      -5.498  -2.311   1.755  0.00  0.00    +0.047 C 
ATOM      6  C   UNL     1      -5.436  -3.848   1.923  0.00  0.00    +0.168 C 
ATOM      7  S   UNL     1      -5.517  -4.447   0.186  0.00  0.00    -0.029 S 
ATOM      8  O   UNL     1      -4.262  -5.012  -0.168  0.00  0.00    -0.174 OA
ATOM      9  O   UNL     1      -6.701  -5.214   0.016  0.00  0.00    -0.174 OA
ATOM     10  C   UNL     1      -5.716  -2.835  -0.684  0.00  0.00    +0.188 C 
ENDBRANCH   3   4
BRANCH   3  11
ATOM     11  C   UNL     1      -7.224   0.351   0.015  0.00  0.00    +0.077 C 
ATOM     12  C   UNL     1      -7.056   1.215  -1.237  0.00  0.00    +0.022 C 
ATOM     13  C   UNL     1      -8.263   2.143  -1.382  0.00  0.00    +0.002 C 
ATOM     14  C   UNL     1      -8.363   3.046  -0.151  0.00  0.00    +0.000 C 
ATOM     15  C   UNL     1      -8.531   2.183   1.101  0.00  0.00    +0.002 C 
ATOM     16  C   UNL     1      -7.324   1.254   1.246  0.00  0.00    +0.022 C 
ENDBRANCH   3  11
BRANCH   1  17
ATOM     17  C   UNL     1      -4.608   1.424  -0.221  0.00  0.00    +0.328 C 
BRANCH  17  18
ATOM     18  O   UNL     1      -3.266   1.766   0.130  0.00  0.00    -0.452 OA
BRANCH  18  19
ATOM     19  C   UNL     1      -2.910   3.059  -0.001  0.00  0.00    +0.340 C 
ATOM     20  O   UNL     1      -3.718   3.874  -0.402  0.00  0.00    -0.245 OA
BRANCH  19  26
ATOM     21  C   UNL     1      -0.611   2.550   0.804  0.00  0.00    +0.019 A 
ATOM     22  C   UNL     1       0.667   2.952   1.125  0.00  0.00    +0.050 A 
ATOM     23  C   UNL     1       1.037   4.285   0.991  0.00  0.00    +0.162 A 
ATOM     24  C   UNL     1       0.115   5.222   0.530  0.00  0.00    +0.163 A 
ATOM     25  C   UNL     1      -1.169   4.826   0.208  0.00  0.00    +0.064 A 
ATOM     26  C   UNL     1      -1.541   3.485   0.343  0.00  0.00    +0.063 A 
ATOM     27  O   UNL     1       0.464   6.530   0.386  0.00  0.00    -0.485 OA
ATOM     28  C   UNL     1       1.647   6.959   1.069  0.00  0.00    +0.270 C 
ATOM     29  C   UNL     1       2.751   5.923   0.816  0.00  0.00    +0.270 C 
ATOM     30  O   UNL     1       2.303   4.659   1.318  0.00  0.00    -0.485 OA
ENDBRANCH  19  26
ENDBRANCH  18  19
ENDBRANCH  17  18
ENDBRANCH   1  17
TORSDOF 6
