REMARK  Name = ZINC11148057
REMARK  8 active torsions:
REMARK  status: ('A' for Active; 'I' for Inactive)
REMARK    1  A    between atoms: C_1  and  C_2
REMARK    2  A    between atoms: C_9  and  C_11
REMARK    3  A    between atoms: C_11  and  S_12
REMARK    4  A    between atoms: S_12  and  C_13
REMARK    5  A    between atoms: C_16  and  S_18
REMARK    6  A    between atoms: S_18  and  C_19
REMARK    7  A    between atoms: C_19  and  C_20
REMARK    8  A    between atoms: C_26  and  C_29
REMARK                            x       y       z     vdW  Elec       q    Type
REMARK                         _______ _______ _______ _____ _____    ______ ____
ROOT
ATOM      1  C   UNL     1      -1.091  -1.576  -8.282  0.00  0.00    +0.160 A 
ATOM      2  N   UNL     1      -0.379  -0.961  -7.357  0.00  0.00    -0.134 NA
ATOM      3  N   UNL     1      -0.965  -0.609  -6.163  0.00  0.00    -0.134 NA
ATOM      4  C   UNL     1      -2.234  -0.898  -5.945  0.00  0.00    +0.160 A 
ATOM      5  S   UNL     1      -2.681  -1.698  -7.478  0.00  0.00    -0.033 S 
ENDROOT
BRANCH   1   6
ATOM      6  S   UNL     1      -0.603  -2.128  -9.882  0.00  0.00    -0.088 S 
BRANCH   6   7
ATOM      7  C   UNL     1       1.145  -1.657  -9.995  0.00  0.00    +0.172 C 
BRANCH   7  15
ATOM      8  C   UNL     1       5.540  -3.267 -14.031  0.00  0.00    +0.039 C 
ATOM      9  C   UNL     1       4.838  -3.005 -12.697  0.00  0.00    +0.132 C 
ATOM     10  C   UNL     1       3.539  -2.230 -12.945  0.00  0.00    +0.139 C 
ATOM     11  N   UNL     1       2.981  -1.829 -11.644  0.00  0.00    -0.296 N 
ATOM     12  C   UNL     1       3.870  -1.144 -10.692  0.00  0.00    +0.136 C 
ATOM     13  C   UNL     1       5.154  -1.976 -10.551  0.00  0.00    +0.179 C 
ATOM     14  O   UNL     1       5.693  -2.232 -11.851  0.00  0.00    -0.374 OA
ATOM     15  C   UNL     1       1.693  -2.077 -11.335  0.00  0.00    +0.226 C 
ATOM     16  O   UNL     1       0.975  -2.639 -12.134  0.00  0.00    -0.275 OA
ENDBRANCH   7  15
ENDBRANCH   6   7
ENDBRANCH   1   6
BRANCH   4  17
ATOM     17  S   UNL     1      -3.225  -0.573  -4.525  0.00  0.00    -0.088 S 
BRANCH  17  18
ATOM     18  C   UNL     1      -2.092   0.262  -3.381  0.00  0.00    +0.172 C 
BRANCH  18  19
ATOM     19  C   UNL     1      -2.822   0.600  -2.107  0.00  0.00    +0.226 C 
ATOM     20  O   UNL     1      -3.993   0.307  -1.983  0.00  0.00    -0.275 OA
ATOM     21  N   UNL     1      -2.176   1.229  -1.105  0.00  0.00    -0.296 N 
ATOM     22  C   UNL     1      -0.756   1.595  -1.232  0.00  0.00    +0.136 C 
ATOM     23  C   UNL     1      -0.013   1.086   0.008  0.00  0.00    +0.179 C 
ATOM     24  O   UNL     1      -0.684   1.548   1.183  0.00  0.00    -0.374 OA
ATOM     25  C   UNL     1      -2.022   1.061   1.321  0.00  0.00    +0.132 C 
ATOM     26  C   UNL     1      -2.868   1.569   0.148  0.00  0.00    +0.139 C 
ATOM     27  C   UNL     1      -2.616   1.567   2.637  0.00  0.00    +0.039 C 
ENDBRANCH  18  19
ENDBRANCH  17  18
ENDBRANCH   4  17
TORSDOF 6
