REMARK  Name = ZINC41003979
REMARK  11 active torsions:
REMARK  status: ('A' for Active; 'I' for Inactive)
REMARK    1  A    between atoms: C_1  and  C_2
REMARK    2  A    between atoms: C_2  and  C_3
REMARK    3  A    between atoms: C_3  and  O_4
REMARK    4  A    between atoms: O_4  and  C_5
REMARK    5  A    between atoms: C_8  and  C_11
REMARK    6  A    between atoms: C_13  and  C_25
REMARK    7  A    between atoms: C_14  and  C_24
REMARK    8  A    between atoms: C_19  and  S_21
REMARK    9  A    between atoms: S_21  and  C_22
REMARK   10  A    between atoms: C_22  and  C_23
REMARK   11  A    between atoms: N_27  and  C_28
REMARK                            x       y       z     vdW  Elec       q    Type
REMARK                         _______ _______ _______ _____ _____    ______ ____
ROOT
ATOM      1  C   UNL     1       3.288  -4.412  -5.643  0.00  0.00    +0.177 C 
ATOM      2  C   UNL     1       4.396  -5.306  -5.152  0.00  0.00    +0.060 C 
ATOM      3  C   UNL     1       4.305  -6.644  -5.140  0.00  0.00    +0.018 C 
ATOM      4  N   UNL     1       3.188  -7.306  -5.588  0.00  0.00    -0.287 N 
ATOM      5  C   UNL     1       2.253  -6.570  -6.302  0.00  0.00    +0.219 A 
ATOM      6  N   UNL     1       2.288  -5.215  -6.342  0.00  0.00    -0.220 N 
ATOM      7  N   UNL     1       1.223  -4.810  -7.145  0.00  0.00    -0.141 NA
ATOM      8  C   UNL     1       0.608  -5.905  -7.537  0.00  0.00    +0.210 A 
ATOM      9  N   UNL     1       1.238  -6.970  -7.019  0.00  0.00    -0.187 NA
ATOM     10  C   UNL     1       5.467  -7.448  -4.616  0.00  0.00    +0.061 C 
ATOM     11  H   UNL     1       3.058  -8.251  -5.413  0.00  0.00    +0.155 HD
ENDROOT
BRANCH   1  15
ATOM     12  C   UNL     1       1.464  -2.447  -2.315  0.00  0.00    +0.121 A 
ATOM     13  C   UNL     1       2.058  -1.700  -3.322  0.00  0.00    +0.046 A 
ATOM     14  C   UNL     1       2.647  -2.338  -4.397  0.00  0.00    +0.009 A 
ATOM     15  C   UNL     1       2.645  -3.719  -4.469  0.00  0.00    -0.018 A 
ATOM     16  C   UNL     1       2.054  -4.465  -3.466  0.00  0.00    +0.009 A 
ATOM     17  C   UNL     1       1.468  -3.832  -2.387  0.00  0.00    +0.046 A 
BRANCH  12  18
ATOM     18  O   UNL     1       0.884  -1.822  -1.257  0.00  0.00    -0.492 OA
BRANCH  18  19
ATOM     19  C   UNL     1       0.918  -0.393  -1.249  0.00  0.00    +0.229 C 
BRANCH  19  21
ATOM     20  C   UNL     1       0.257   1.656   0.019  0.00  0.00    +0.007 C 
ATOM     21  C   UNL     1       0.222   0.127   0.011  0.00  0.00    +0.038 C 
ENDBRANCH  19  21
ENDBRANCH  18  19
ENDBRANCH  12  18
ENDBRANCH   1  15
BRANCH   2  22
ATOM     22  C   UNL     1       5.588  -4.707  -4.683  0.00  0.00    +0.248 C 
ATOM     23  O   UNL     1       6.427  -4.318  -5.476  0.00  0.00    -0.270 OA
ATOM     24  N   UNL     1       5.796  -4.566  -3.359  0.00  0.00    -0.282 N 
ATOM     25  H   UNL     1       5.169  -4.950  -2.726  0.00  0.00    +0.155 HD
BRANCH  24  26
ATOM     26  C   UNL     1       6.915  -3.867  -2.897  0.00  0.00    +0.034 A 
ATOM     27  C   UNL     1       7.498  -2.885  -3.688  0.00  0.00    +0.023 A 
ATOM     28  C   UNL     1       8.603  -2.196  -3.229  0.00  0.00    +0.002 A 
ATOM     29  C   UNL     1       9.130  -2.483  -1.983  0.00  0.00    +0.000 A 
ATOM     30  C   UNL     1       8.553  -3.459  -1.193  0.00  0.00    +0.002 A 
ATOM     31  C   UNL     1       7.443  -4.147  -1.643  0.00  0.00    +0.023 A 
ENDBRANCH  24  26
ENDBRANCH   2  22
BRANCH   8  32
ATOM     32  S   UNL     1      -0.815  -5.963  -8.575  0.00  0.00    -0.085 S 
BRANCH  32  33
ATOM     33  C   UNL     1      -1.166  -7.735  -8.739  0.00  0.00    +0.074 C 
ATOM     34  C   UNL     1      -2.396  -7.931  -9.628  0.00  0.00    +0.016 C 
ENDBRANCH  32  33
ENDBRANCH   8  32
TORSDOF 8
