REMARK  Name = ZINC25140106
REMARK  4 active torsions:
REMARK  status: ('A' for Active; 'I' for Inactive)
REMARK    1  A    between atoms: C_1  and  C_2
REMARK    2  A    between atoms: N_5  and  C_11
REMARK    3  A    between atoms: C_7  and  C_10
REMARK    4  A    between atoms: C_11  and  N_12
REMARK                            x       y       z     vdW  Elec       q    Type
REMARK                         _______ _______ _______ _____ _____    ______ ____
ROOT
ATOM      1  N   UNL     1      -1.349  -0.512   0.252  0.00  0.00    -0.289 N 
ATOM      2  C   UNL     1      -1.902  -0.807   1.498  0.00  0.00    +0.089 A 
ATOM      3  C   UNL     1      -1.419  -0.730   2.795  0.00  0.00    +0.029 A 
ATOM      4  C   UNL     1      -2.227  -1.102   3.852  0.00  0.00    +0.002 A 
ATOM      5  C   UNL     1      -3.515  -1.552   3.618  0.00  0.00    +0.004 A 
ATOM      6  C   UNL     1      -4.005  -1.624   2.329  0.00  0.00    +0.048 A 
ATOM      7  C   UNL     1      -3.200  -1.257   1.262  0.00  0.00    +0.154 A 
ATOM      8  O   UNL     1      -3.397  -1.234  -0.079  0.00  0.00    -0.431 OA
ATOM      9  C   UNL     1      -2.283  -0.786  -0.681  0.00  0.00    +0.250 A 
ATOM     10  S   UNL     1      -2.080  -0.594  -2.370  0.00  0.00    +0.009 S 
ENDROOT
BRANCH   1  11
ATOM     11  C   UNL     1       0.002  -0.004   0.002  0.00  0.00    +0.213 C 
BRANCH  11  15
ATOM     12  C   UNL     1       2.695   4.115  -0.021  0.00  0.00    +0.039 C 
ATOM     13  C   UNL     1       1.281   3.538   0.069  0.00  0.00    +0.130 C 
ATOM     14  C   UNL     1       1.347   2.010   0.000  0.00  0.00    +0.117 C 
ATOM     15  N   UNL     1      -0.018   1.465   0.010  0.00  0.00    -0.280 NA
ATOM     16  C   UNL     1      -0.796   1.987  -1.123  0.00  0.00    +0.117 C 
ATOM     17  C   UNL     1      -0.841   3.516  -1.042  0.00  0.00    +0.130 C 
ATOM     18  O   UNL     1       0.495   4.026  -1.021  0.00  0.00    -0.371 OA
ATOM     19  C   UNL     1      -1.570   3.940   0.235  0.00  0.00    +0.039 C 
ENDBRANCH  11  15
ENDBRANCH   1  11
TORSDOF 2
