REMARK  Name = ZINC17885403
REMARK  12 active torsions:
REMARK  status: ('A' for Active; 'I' for Inactive)
REMARK    1  A    between atoms: C_1  and  C_2
REMARK    2  A    between atoms: C_5  and  N_9
REMARK    3  A    between atoms: C_7  and  C_8
REMARK    4  A    between atoms: C_11  and  C_15
REMARK    5  A    between atoms: C_12  and  C_14
REMARK    6  A    between atoms: C_15  and  C_17
REMARK    7  A    between atoms: C_15  and  C_24
REMARK    8  A    between atoms: C_21  and  O_23
REMARK    9  A    between atoms: C_26  and  C_39
REMARK   10  A    between atoms: N_28  and  C_31
REMARK   11  A    between atoms: C_34  and  C_38
REMARK   12  A    between atoms: C_35  and  C_37
REMARK                            x       y       z     vdW  Elec       q    Type
REMARK                         _______ _______ _______ _____ _____    ______ ____
ROOT
ATOM      1  C   UNL     1       0.093  -7.524  -1.554  0.00  0.00    +0.074 C 
ENDROOT
BRANCH   1   4
ATOM      2  N   UNL     1       0.453  -4.564   0.619  0.00  0.00    -0.219 N 
ATOM      3  C   UNL     1       0.241  -5.108  -0.598  0.00  0.00    +0.276 A 
ATOM      4  C   UNL     1       0.281  -6.514  -0.451  0.00  0.00    +0.047 A 
ATOM      5  C   UNL     1       0.516  -6.793   0.847  0.00  0.00    +0.039 A 
ATOM      6  N   UNL     1       0.631  -5.615   1.528  0.00  0.00    -0.294 N 
ATOM      7  C   UNL     1       0.636  -8.172   1.444  0.00  0.00    +0.065 C 
ATOM      8  O   UNL     1       0.049  -4.498  -1.634  0.00  0.00    -0.266 OA
ATOM      9  H   UNL     1       0.805  -5.522   2.478  0.00  0.00    +0.187 HD
BRANCH   2  14
ATOM     10  C   UNL     1       0.614   0.975   1.828  0.00  0.00    +0.044 C 
ATOM     11  C   UNL     1       0.572  -0.496   1.506  0.00  0.00    -0.047 A 
ATOM     12  C   UNL     1       0.344  -0.913   0.207  0.00  0.00    +0.006 A 
ATOM     13  C   UNL     1       0.304  -2.261  -0.090  0.00  0.00    +0.028 A 
ATOM     14  C   UNL     1       0.493  -3.199   0.917  0.00  0.00    +0.067 A 
ATOM     15  C   UNL     1       0.722  -2.777   2.220  0.00  0.00    +0.031 A 
ATOM     16  C   UNL     1       0.765  -1.428   2.510  0.00  0.00    -0.046 A 
ATOM     17  C   UNL     1       1.019  -0.969   3.923  0.00  0.00    +0.044 C 
ENDBRANCH   2  14
ENDBRANCH   1   4
BRANCH   1  18
ATOM     18  C   UNL     1      -1.210  -7.230  -2.298  0.00  0.00    +0.135 C 
ATOM     19  C   UNL     1      -1.451  -8.263  -3.380  0.00  0.00    +0.047 C 
ATOM     20  N   UNL     1      -2.543  -8.858  -3.095  0.00  0.00    -0.181 NA
ATOM     21  N   UNL     1      -3.136  -8.386  -1.929  0.00  0.00    -0.160 N 
ATOM     22  C   UNL     1      -2.402  -7.394  -1.374  0.00  0.00    +0.249 C 
ATOM     23  O   UNL     1      -2.641  -6.772  -0.360  0.00  0.00    -0.273 OA
ATOM     24  C   UNL     1      -0.567  -8.535  -4.569  0.00  0.00    +0.063 C 
BRANCH  21  25
ATOM     25  C   UNL     1      -4.338  -8.871  -1.399  0.00  0.00    +0.060 A 
ATOM     26  C   UNL     1      -4.853  -8.327  -0.229  0.00  0.00    +0.026 A 
ATOM     27  C   UNL     1      -6.038  -8.808   0.291  0.00  0.00    +0.005 A 
ATOM     28  C   UNL     1      -6.712  -9.830  -0.352  0.00  0.00    -0.047 A 
ATOM     29  C   UNL     1      -6.202 -10.374  -1.516  0.00  0.00    -0.046 A 
ATOM     30  C   UNL     1      -5.020  -9.893  -2.045  0.00  0.00    +0.029 A 
ATOM     31  C   UNL     1      -6.940 -11.488  -2.213  0.00  0.00    +0.044 C 
ATOM     32  C   UNL     1      -8.005 -10.353   0.219  0.00  0.00    +0.044 C 
ENDBRANCH  21  25
ENDBRANCH   1  18
BRANCH   1  33
ATOM     33  C   UNL     1       1.251  -7.439  -2.515  0.00  0.00    -0.035 A 
ATOM     34  C   UNL     1       1.394  -6.330  -3.329  0.00  0.00    +0.004 A 
ATOM     35  C   UNL     1       2.454  -6.250  -4.211  0.00  0.00    +0.004 A 
ATOM     36  C   UNL     1       3.375  -7.277  -4.283  0.00  0.00    +0.045 A 
ATOM     37  C   UNL     1       3.234  -8.391  -3.468  0.00  0.00    +0.117 A 
ATOM     38  C   UNL     1       2.172  -8.467  -2.578  0.00  0.00    +0.049 A 
BRANCH  37  39
ATOM     39  O   UNL     1       4.138  -9.403  -3.536  0.00  0.00    -0.507 OA
ATOM     40  H   UNL     1       4.888  -9.303  -2.934  0.00  0.00    +0.292 HD
ENDBRANCH  37  39
ENDBRANCH   1  33
TORSDOF 6
