REMARK  Name = ZINC67411405
REMARK  9 active torsions:
REMARK  status: ('A' for Active; 'I' for Inactive)
REMARK    1  A    between atoms: C_1  and  C_2
REMARK    2  A    between atoms: C_2  and  C_4
REMARK    3  A    between atoms: C_2  and  N_12
REMARK    4  A    between atoms: N_6  and  C_7
REMARK    5  A    between atoms: C_7  and  C_8
REMARK    6  A    between atoms: C_8  and  O_10
REMARK    7  A    between atoms: O_10  and  C_11
REMARK    8  A    between atoms: N_15  and  C_18
REMARK    9  A    between atoms: C_18  and  C_19
REMARK                            x       y       z     vdW  Elec       q    Type
REMARK                         _______ _______ _______ _____ _____    ______ ____
ROOT
ATOM      1  N   UNL     1       0.713  -0.491   1.192  0.00  0.00    -0.289 NA
ATOM      2  C   UNL     1       2.048   0.115   1.293  0.00  0.00    +0.100 C 
ATOM      3  C   UNL     1       2.783  -0.476   2.498  0.00  0.00    +0.100 C 
ATOM      4  N   UNL     1       2.001  -0.226   3.717  0.00  0.00    -0.294 NA
ATOM      5  C   UNL     1       0.666  -0.832   3.616  0.00  0.00    +0.100 C 
ATOM      6  C   UNL     1      -0.069  -0.241   2.411  0.00  0.00    +0.100 C 
ENDROOT
BRANCH   1   8
ATOM      7  C   UNL     1      -0.019   1.526   0.010  0.00  0.00    +0.034 C 
ATOM      8  C   UNL     1       0.002  -0.004   0.002  0.00  0.00    +0.140 C 
BRANCH   8   9
ATOM      9  C   UNL     1       0.707  -0.490  -1.238  0.00  0.00    +0.230 C 
ATOM     10  O   UNL     1       1.704  -1.174  -1.140  0.00  0.00    -0.274 OA
ATOM     11  N   UNL     1       0.231  -0.164  -2.456  0.00  0.00    -0.304 N 
ATOM     12  H   UNL     1      -0.566   0.383  -2.534  0.00  0.00    +0.149 HD
BRANCH  11  13
ATOM     13  C   UNL     1       0.917  -0.637  -3.661  0.00  0.00    +0.225 C 
BRANCH  13  14
ATOM     14  C   UNL     1       0.188  -0.137  -4.882  0.00  0.00    +0.324 C 
ATOM     15  O   UNL     1      -0.803   0.543  -4.758  0.00  0.00    -0.249 OA
BRANCH  14  16
ATOM     16  O   UNL     1       0.639  -0.449  -6.107  0.00  0.00    -0.467 OA
ATOM     17  C   UNL     1      -0.101   0.058  -7.219  0.00  0.00    +0.280 C 
ENDBRANCH  14  16
ENDBRANCH  13  14
ENDBRANCH  11  13
ENDBRANCH   8   9
ENDBRANCH   1   8
BRANCH   4  18
ATOM     18  C   UNL     1       2.712  -0.713   4.907  0.00  0.00    +0.139 C 
BRANCH  18  19
ATOM     19  C   UNL     1       2.006  -0.227   6.147  0.00  0.00    +0.048 A 
ATOM     20  C   UNL     1       2.318   0.887   6.845  0.00  0.00    +0.115 A 
ATOM     21  N   UNL     1       1.441   0.966   7.893  0.00  0.00    -0.306 N 
ATOM     22  C   UNL     1       1.291   1.869   8.906  0.00  0.00    +0.112 A 
ATOM     23  C   UNL     1       0.322   1.708   9.832  0.00  0.00    +0.058 A 
ATOM     24  C   UNL     1      -0.547   0.605   9.764  0.00  0.00    +0.025 A 
ATOM     25  C   UNL     1      -0.408  -0.301   8.759  0.00  0.00    +0.046 A 
ATOM     26  C   UNL     1       0.608  -0.119   7.801  0.00  0.00    +0.116 A 
ATOM     27  N   UNL     1       0.966  -0.822   6.735  0.00  0.00    -0.342 N 
ATOM     28 CL   UNL     1       0.149   2.867  11.113  0.00  0.00    -0.082 Cl
ATOM     29  H   UNL     1       0.541  -1.640   6.432  0.00  0.00    +0.167 HD
ENDBRANCH  18  19
ENDBRANCH   4  18
TORSDOF 7
