REMARK  Name = ZINC34925107
REMARK  4 active torsions:
REMARK  status: ('A' for Active; 'I' for Inactive)
REMARK    1  A    between atoms: C_1  and  C_2
REMARK    2  A    between atoms: C_4  and  C_23
REMARK    3  A    between atoms: N_13  and  N_14
REMARK    4  A    between atoms: N_15  and  C_16
REMARK                            x       y       z     vdW  Elec       q    Type
REMARK                         _______ _______ _______ _____ _____    ______ ____
ROOT
ATOM      1  C   UNL     1       1.061   1.405   0.001  0.00  0.00    +0.067 C 
ATOM      2  C   UNL     1       0.769  -0.073  -0.005  0.00  0.00    +0.061 A 
ATOM      3  C   UNL     1       0.591  -0.869  -1.143  0.00  0.00    +0.048 A 
ATOM      4  C   UNL     1       0.349  -2.135  -0.734  0.00  0.00    +0.045 A 
ATOM      5  N   UNL     1       0.373  -2.139   0.625  0.00  0.00    -0.202 N 
ATOM      6  N   UNL     1       0.644  -0.832   1.052  0.00  0.00    -0.169 NA
ATOM      7  C   UNL     1       0.171  -3.245   1.447  0.00  0.00    +0.257 A 
ATOM      8  N   UNL     1       0.216  -3.109   2.766  0.00  0.00    -0.177 NA
ATOM      9  C   UNL     1       0.022  -4.165   3.551  0.00  0.00    +0.226 A 
ATOM     10  N   UNL     1      -0.218  -5.357   3.014  0.00  0.00    -0.180 NA
ATOM     11  C   UNL     1      -0.263  -5.492   1.693  0.00  0.00    +0.235 A 
ATOM     12  N   UNL     1      -0.074  -4.434   0.909  0.00  0.00    -0.176 NA
ATOM     13  N   UNL     1      -0.512  -6.729   1.133  0.00  0.00    -0.252 N 
ATOM     14  N   UNL     1       0.070  -4.023   4.924  0.00  0.00    -0.283 N 
ATOM     15  C   UNL     1       0.098  -3.325  -1.623  0.00  0.00    +0.066 C 
ATOM     16  H   UNL     1      -0.545  -6.828   0.169  0.00  0.00    +0.169 HD
ATOM     17  H   UNL     1       0.164  -3.141   5.318  0.00  0.00    +0.155 HD
ENDROOT
BRANCH  14  18
ATOM     18  C   UNL     1      -0.017  -5.151   5.747  0.00  0.00    +0.034 A 
ATOM     19  C   UNL     1       0.599  -6.337   5.369  0.00  0.00    +0.024 A 
ATOM     20  C   UNL     1       0.512  -7.449   6.184  0.00  0.00    +0.017 A 
ATOM     21  C   UNL     1      -0.187  -7.381   7.376  0.00  0.00    +0.018 A 
ATOM     22  C   UNL     1      -0.801  -6.201   7.755  0.00  0.00    +0.017 A 
ATOM     23  C   UNL     1      -0.713  -5.084   6.947  0.00  0.00    +0.024 A 
ATOM     24 BR   UNL     1      -0.305  -8.906   8.488  0.00  0.00    -0.050 Br
ENDBRANCH  14  18
BRANCH  13  25
ATOM     25  N   UNL     1      -0.711  -7.815   1.938  0.00  0.00    -0.254 NA
ATOM     26  H   UNL     1      -1.466  -7.650   2.587  0.00  0.00    +0.140 HD
ATOM     27  H   UNL     1      -0.881  -8.645   1.390  0.00  0.00    +0.140 HD
ENDBRANCH  13  25
TORSDOF 2
