REMARK  Name = ZINC43218537
REMARK  4 active torsions:
REMARK  status: ('A' for Active; 'I' for Inactive)
REMARK    1  A    between atoms: C_1  and  C_2
REMARK    2  A    between atoms: C_2  and  C_30
REMARK    3  A    between atoms: C_7  and  C_10
REMARK    4  A    between atoms: N_21  and  C_24
REMARK                            x       y       z     vdW  Elec       q    Type
REMARK                         _______ _______ _______ _____ _____    ______ ____
ROOT
ATOM      1  C   UNL     1       0.027   1.585   0.029  0.00  0.00    +0.002 C 
ATOM      2  C   UNL     1      -0.018   0.057   0.090  0.00  0.00    +0.045 C 
ATOM      3  C   UNL     1       0.688  -0.551  -1.140  0.00  0.00    +0.086 C 
ATOM      4  C   UNL     1       2.140  -0.832  -0.668  0.00  0.00    +0.077 C 
ATOM      5  C   UNL     1       2.179  -0.352   0.798  0.00  0.00    -0.025 C 
ATOM      6  N   UNL     1       0.761  -0.437   1.254  0.00  0.00    +0.395 N 
ATOM      7  C   UNL     1       2.237  -2.340  -0.716  0.00  0.00    +0.225 C 
ATOM      8  O   UNL     1       3.218  -2.989  -0.421  0.00  0.00    -0.275 OA
ATOM      9  N   UNL     1       1.071  -2.847  -1.134  0.00  0.00    -0.239 N 
ATOM     10  C   UNL     1       0.119  -1.926  -1.410  0.00  0.00    +0.225 C 
ATOM     11  O   UNL     1      -1.004  -2.155  -1.806  0.00  0.00    -0.275 OA
ATOM     12  H   UNL     1       0.617   0.160   2.055  0.00  0.00    -0.083 HD
ATOM     13  H   UNL     1       0.507  -1.389   1.471  0.00  0.00    -0.083 HD
ENDROOT
BRANCH   5  14
ATOM     14  C   UNL     1       3.040  -1.270   1.627  0.00  0.00    -0.039 A 
ATOM     15  C   UNL     1       2.461  -2.299   2.345  0.00  0.00    +0.023 A 
ATOM     16  C   UNL     1       3.250  -3.141   3.108  0.00  0.00    +0.043 A 
ATOM     17  C   UNL     1       4.620  -2.955   3.151  0.00  0.00    +0.041 A 
ATOM     18  C   UNL     1       5.200  -1.925   2.432  0.00  0.00    +0.061 A 
ATOM     19  C   UNL     1       4.410  -1.086   1.665  0.00  0.00    +0.061 A 
ATOM     20 CL   UNL     1       5.138   0.202   0.757  0.00  0.00    -0.082 Cl
ATOM     21 CL   UNL     1       6.920  -1.690   2.486  0.00  0.00    -0.082 Cl
ATOM     22 CL   UNL     1       2.521  -4.433   4.010  0.00  0.00    -0.083 Cl
ENDBRANCH   5  14
BRANCH   9  23
ATOM     23  C   UNL     1       0.843  -4.286  -1.288  0.00  0.00    +0.084 C 
ATOM     24  C   UNL     1       1.041  -4.981   0.061  0.00  0.00    +0.023 C 
ATOM     25  C   UNL     1       0.803  -6.484  -0.100  0.00  0.00    +0.002 C 
ATOM     26  C   UNL     1       1.794  -7.052  -1.117  0.00  0.00    +0.000 C 
ATOM     27  C   UNL     1       1.596  -6.357  -2.466  0.00  0.00    +0.002 C 
ATOM     28  C   UNL     1       1.835  -4.854  -2.305  0.00  0.00    +0.023 C 
ENDBRANCH   9  23
BRANCH   2  29
ATOM     29  C   UNL     1      -1.444  -0.423   0.171  0.00  0.00    +0.346 C 
ATOM     30  O   UNL     1      -2.226  -0.163  -0.727  0.00  0.00    -0.248 OA
ATOM     31  O   UNL     1      -1.815  -1.071   1.135  0.00  0.00    -0.248 OA
ENDBRANCH   2  29
TORSDOF 3
