REMARK  Name = ZINC23143504
REMARK  8 active torsions:
REMARK  status: ('A' for Active; 'I' for Inactive)
REMARK    1  A    between atoms: C_1  and  C_2
REMARK    2  A    between atoms: C_4  and  C_25
REMARK    3  A    between atoms: C_6  and  O_8
REMARK    4  A    between atoms: O_8  and  C_9
REMARK    5  A    between atoms: C_9  and  C_10
REMARK    6  A    between atoms: C_10  and  N_11
REMARK    7  A    between atoms: N_11  and  S_12
REMARK    8  A    between atoms: S_12  and  C_15
REMARK                            x       y       z     vdW  Elec       q    Type
REMARK                         _______ _______ _______ _____ _____    ______ ____
ROOT
ATOM      1  N   UNL     1       4.338  -1.074  -1.640  0.00  0.00    -0.187 NA
ATOM      2  H   UNL     1       4.222  -2.073  -2.085  0.00  0.00    +0.148 HD
ENDROOT
BRANCH   1   3
ATOM      3  S   UNL     1       3.931  -0.843  -0.052  0.00  0.00    +0.059 S 
ATOM      4  O   UNL     1       4.904   0.039   0.492  0.00  0.00    -0.153 OA
ATOM      5  O   UNL     1       3.679  -2.130   0.494  0.00  0.00    -0.153 OA
BRANCH   3   6
ATOM      6  C   UNL     1       2.397   0.024  -0.027  0.00  0.00    +0.109 A 
ATOM      7  C   UNL     1       1.207  -0.680  -0.016  0.00  0.00    +0.032 A 
ATOM      8  C   UNL     1       0.002  -0.004   0.002  0.00  0.00    +0.051 A 
ATOM      9  C   UNL     1      -0.017   1.383   0.010  0.00  0.00    +0.162 A 
ATOM     10  C   UNL     1       1.179   2.090   0.002  0.00  0.00    +0.164 A 
ATOM     11  C   UNL     1       2.385   1.406  -0.018  0.00  0.00    +0.078 A 
ATOM     12  O   UNL     1       1.184   3.451   0.018  0.00  0.00    -0.485 OA
ATOM     13  C   UNL     1      -0.040   4.103  -0.340  0.00  0.00    +0.270 C 
ATOM     14  C   UNL     1      -1.189   3.413   0.408  0.00  0.00    +0.270 C 
ATOM     15  O   UNL     1      -1.212   2.035   0.019  0.00  0.00    -0.485 OA
ENDBRANCH   3   6
ENDBRANCH   1   3
BRANCH   1  16
ATOM     16  C   UNL     1       4.635   0.078  -2.495  0.00  0.00    +0.147 C 
BRANCH  16  17
ATOM     17  C   UNL     1       5.330  -0.400  -3.772  0.00  0.00    +0.246 C 
BRANCH  17  18
ATOM     18  O   UNL     1       4.430  -1.211  -4.529  0.00  0.00    -0.491 OA
BRANCH  18  24
ATOM     19  C   UNL     1       8.068  -1.664  -7.751  0.00  0.00    +0.044 C 
ATOM     20  C   UNL     1       6.660  -1.962  -7.304  0.00  0.00    -0.047 A 
ATOM     21  C   UNL     1       5.840  -2.755  -8.085  0.00  0.00    +0.007 A 
ATOM     22  C   UNL     1       4.548  -3.031  -7.677  0.00  0.00    -0.047 A 
ATOM     23  C   UNL     1       4.074  -2.515  -6.487  0.00  0.00    +0.049 A 
ATOM     24  C   UNL     1       4.894  -1.719  -5.701  0.00  0.00    +0.121 A 
ATOM     25  C   UNL     1       6.188  -1.439  -6.115  0.00  0.00    +0.049 A 
ATOM     26  C   UNL     1       3.658  -3.896  -8.531  0.00  0.00    +0.044 C 
ENDBRANCH  18  24
ENDBRANCH  17  18
ENDBRANCH  16  17
ENDBRANCH   1  16
TORSDOF 6
