REMARK  Name = ZINC02785205
REMARK  6 active torsions:
REMARK  status: ('A' for Active; 'I' for Inactive)
REMARK    1  A    between atoms: C_1  and  C_2
REMARK    2  A    between atoms: C_2  and  N_53
REMARK    3  A    between atoms: C_13  and  C_16
REMARK    4  A    between atoms: C_19  and  C_21
REMARK    5  A    between atoms: C_24  and  N_28
REMARK    6  A    between atoms: C_26  and  C_27
REMARK                            x       y       z     vdW  Elec       q    Type
REMARK                         _______ _______ _______ _____ _____    ______ ____
ROOT
ATOM      1  C   UNL     1      -2.179   4.303   6.619  0.00  0.00    -0.074 C 
ATOM      2  C   UNL     1      -2.845   4.384   5.243  0.00  0.00    +0.018 C 
ATOM      3  C   UNL     1      -1.844   4.987   4.264  0.00  0.00    -0.027 A 
ATOM      4  C   UNL     1      -0.768   5.664   4.728  0.00  0.00    -0.021 A 
ATOM      5  S   UNL     1       0.110   6.178   3.278  0.00  0.00    -0.080 S 
ATOM      6  C   UNL     1      -0.924   5.508   2.088  0.00  0.00    +0.080 A 
ATOM      7  C   UNL     1      -1.953   4.893   2.819  0.00  0.00    +0.068 A 
ATOM      8  C   UNL     1      -3.032   4.229   2.051  0.00  0.00    +0.248 C 
ATOM      9  O   UNL     1      -4.043   3.826   2.597  0.00  0.00    -0.270 OA
ATOM     10  N   UNL     1      -2.846   4.088   0.723  0.00  0.00    -0.287 N 
ATOM     11  C   UNL     1      -1.595   4.403   0.041  0.00  0.00    +0.227 C 
ATOM     12  N   UNL     1      -0.878   5.499   0.718  0.00  0.00    -0.314 N 
ATOM     13  C   UNL     1      -0.424   5.909   6.163  0.00  0.00    -0.035 C 
ATOM     14  H   UNL     1      -3.588   3.759   0.191  0.00  0.00    +0.151 HD
ATOM     15  H   UNL     1      -0.399   6.179   0.220  0.00  0.00    +0.149 HD
ATOM     16  N   UNL     1      -1.632   5.628   6.976  0.00  0.00    +0.383 N 
ATOM     17  H   UNL     1      -2.340   6.346   6.781  0.00  0.00    -0.081 HD
ENDROOT
BRANCH  11  18
ATOM     18  C   UNL     1      -0.720   3.176   0.026  0.00  0.00    +0.144 A 
ATOM     19  C   UNL     1      -1.155   1.901   0.017  0.00  0.00    +0.049 A 
ATOM     20  C   UNL     1      -0.013   1.076   0.008  0.00  0.00    +0.050 A 
ATOM     21  C   UNL     1       1.067   1.902   0.002  0.00  0.00    +0.136 A 
ATOM     22  O   UNL     1       0.623   3.173   0.013  0.00  0.00    -0.456 OA
BRANCH  21  23
ATOM     23  C   UNL     1       2.483   1.478  -0.014  0.00  0.00    +0.020 A 
ATOM     24  C   UNL     1       2.943   0.533   0.905  0.00  0.00    +0.014 A 
ATOM     25  C   UNL     1       4.264   0.137   0.880  0.00  0.00    +0.033 A 
ATOM     26  C   UNL     1       5.136   0.684  -0.045  0.00  0.00    +0.126 A 
ATOM     27  C   UNL     1       4.688   1.626  -0.954  0.00  0.00    +0.036 A 
ATOM     28  C   UNL     1       3.368   2.026  -0.944  0.00  0.00    -0.038 A 
ATOM     29  C   UNL     1       2.882   3.051  -1.936  0.00  0.00    +0.044 C 
BRANCH  26  30
ATOM     30  N   UNL     1       6.554   0.260  -0.061  0.00  0.00    +0.056 N 
ATOM     31  O   UNL     1       7.324   0.739  -0.874  0.00  0.00    -0.126 OA
ATOM     32  O   UNL     1       6.951  -0.569   0.739  0.00  0.00    -0.126 OA
ENDBRANCH  26  30
ENDBRANCH  21  23
ENDBRANCH  11  18
BRANCH  16  34
ATOM     33  C   UNL     1      -0.946   7.104   8.805  0.00  0.00    -0.017 C 
ATOM     34  C   UNL     1      -1.294   5.665   8.415  0.00  0.00    -0.082 C 
ENDBRANCH  16  34
TORSDOF 4
