REMARK  Name = ZINC40701985
REMARK  8 active torsions:
REMARK  status: ('A' for Active; 'I' for Inactive)
REMARK    1  A    between atoms: C_1  and  C_2
REMARK    2  A    between atoms: C_2  and  N_3
REMARK    3  A    between atoms: N_3  and  C_4
REMARK    4  A    between atoms: C_15  and  N_30
REMARK    5  A    between atoms: C_16  and  N_20
REMARK    6  A    between atoms: N_20  and  C_21
REMARK    7  A    between atoms: C_21  and  C_23
REMARK    8  A    between atoms: C_21  and  C_24
REMARK                            x       y       z     vdW  Elec       q    Type
REMARK                         _______ _______ _______ _____ _____    ______ ____
ROOT
ATOM      1  N   UNL     1       0.684  -0.492  -1.198  0.00  0.00    -0.283 N 
ATOM      2  C   UNL     1      -0.123  -0.692  -2.312  0.00  0.00    +0.151 A 
ATOM      3  C   UNL     1      -1.486  -0.390  -2.263  0.00  0.00    +0.106 A 
ATOM      4  C   UNL     1      -2.251  -0.609  -3.410  0.00  0.00    +0.145 A 
ATOM      5  N   UNL     1      -1.657  -1.094  -4.498  0.00  0.00    -0.219 NA
ATOM      6  C   UNL     1      -0.368  -1.365  -4.502  0.00  0.00    +0.225 A 
ATOM      7  N   UNL     1       0.391  -1.168  -3.443  0.00  0.00    -0.218 NA
ENDROOT
BRANCH   1   8
ATOM      8  C   UNL     1       0.951  -1.551  -0.332  0.00  0.00    +0.043 A 
ATOM      9  C   UNL     1       0.121  -1.797   0.742  0.00  0.00    +0.024 A 
ATOM     10  C   UNL     1       0.378  -2.851   1.613  0.00  0.00    +0.002 A 
ATOM     11  C   UNL     1       1.452  -3.668   1.431  0.00  0.00    +0.008 A 
ATOM     12  C   UNL     1       2.322  -3.452   0.348  0.00  0.00    -0.016 A 
ATOM     13  C   UNL     1       2.068  -2.385  -0.549  0.00  0.00    +0.003 A 
ATOM     14  C   UNL     1       2.936  -2.174  -1.632  0.00  0.00    +0.010 A 
ATOM     15  C   UNL     1       4.005  -2.998  -1.810  0.00  0.00    +0.001 A 
ATOM     16  C   UNL     1       4.252  -4.052  -0.932  0.00  0.00    +0.001 A 
ATOM     17  C   UNL     1       3.439  -4.279   0.136  0.00  0.00    +0.008 A 
ENDBRANCH   1   8
BRANCH   3  18
ATOM     18  N   UNL     1      -2.070   0.119  -1.092  0.00  0.00    -0.353 N 
ATOM     19  H   UNL     1      -1.514   0.340  -0.329  0.00  0.00    +0.143 HD
ATOM     20  H   UNL     1      -3.030   0.251  -1.047  0.00  0.00    +0.143 HD
ENDBRANCH   3  18
BRANCH   1  22
ATOM     21  C   UNL     1       2.662   0.907  -1.533  0.00  0.00    +0.025 C 
ATOM     22  C   UNL     1       1.256   0.831  -0.935  0.00  0.00    +0.109 C 
ENDBRANCH   1  22
BRANCH   4  23
ATOM     23  N   UNL     1      -3.611  -0.326  -3.415  0.00  0.00    -0.321 N 
ATOM     24  H   UNL     1      -4.037   0.026  -2.618  0.00  0.00    +0.148 HD
BRANCH  23  25
ATOM     25  C   UNL     1      -4.404  -0.560  -4.625  0.00  0.00    +0.099 C 
ATOM     26  C   UNL     1      -4.857  -2.021  -4.663  0.00  0.00    +0.033 C 
BRANCH  25  27
ATOM     27  C   UNL     1      -5.612   0.340  -4.616  0.00  0.00    -0.028 A 
ATOM     28  C   UNL     1      -6.299   0.564  -3.437  0.00  0.00    +0.005 A 
ATOM     29  C   UNL     1      -7.407   1.390  -3.429  0.00  0.00    +0.000 A 
ATOM     30  C   UNL     1      -7.829   1.992  -4.600  0.00  0.00    +0.000 A 
ATOM     31  C   UNL     1      -7.141   1.769  -5.779  0.00  0.00    +0.000 A 
ATOM     32  C   UNL     1      -6.030   0.947  -5.786  0.00  0.00    +0.005 A 
ENDBRANCH  25  27
ENDBRANCH  23  25
ENDBRANCH   4  23
TORSDOF 6
