REMARK  Name = ZINC61691164
REMARK  7 active torsions:
REMARK  status: ('A' for Active; 'I' for Inactive)
REMARK    1  A    between atoms: C_4  and  N_8
REMARK    2  A    between atoms: N_8  and  C_9
REMARK    3  A    between atoms: C_9  and  C_10
REMARK    4  A    between atoms: C_10  and  C_12
REMARK    5  A    between atoms: C_10  and  O_21
REMARK    6  A    between atoms: C_12  and  N_13
REMARK    7  A    between atoms: C_15  and  N_18
REMARK                            x       y       z     vdW  Elec       q    Type
REMARK                         _______ _______ _______ _____ _____    ______ ____
ROOT
ATOM      1  C   UNL     1       5.092  -2.604  -0.061  0.00  0.00    +0.153 C 
ENDROOT
BRANCH   1   2
ATOM      2  O   UNL     1       5.747  -2.112  -1.232  0.00  0.00    -0.388 OA
ATOM      3  H   UNL     1       5.340  -2.398  -2.061  0.00  0.00    +0.210 HD
ENDBRANCH   1   2
BRANCH   1   4
ATOM      4  C   UNL     1       3.642  -2.116  -0.044  0.00  0.00    +0.134 C 
BRANCH   4   5
ATOM      5  N   UNL     1       3.621  -0.651  -0.036  0.00  0.00    -0.340 N 
ATOM      6  H   UNL     1       4.454  -0.153  -0.042  0.00  0.00    +0.146 HD
BRANCH   5  10
ATOM      7  C   UNL     1      -0.017   1.379   0.010  0.00  0.00    +0.017 A 
ATOM      8  C   UNL     1       1.170   2.090   0.002  0.00  0.00    +0.023 A 
ATOM      9  C   UNL     1       2.378   1.420  -0.013  0.00  0.00    +0.062 A 
ATOM     10  C   UNL     1       2.400   0.030  -0.021  0.00  0.00    +0.047 A 
ATOM     11  C   UNL     1       1.208  -0.680  -0.013  0.00  0.00    +0.039 A 
ATOM     12  C   UNL     1       0.002  -0.004   0.002  0.00  0.00    +0.020 A 
ATOM     13 BR   UNL     1      -1.623  -0.971   0.013  0.00  0.00    -0.050 Br
ATOM     14 CL   UNL     1       3.867   2.313  -0.023  0.00  0.00    -0.082 Cl
ENDBRANCH   5  10
ENDBRANCH   4   5
ENDBRANCH   1   4
BRANCH   1  15
ATOM     15  C   UNL     1       5.115  -4.134  -0.070  0.00  0.00    +0.176 C 
BRANCH  15  16
ATOM     16  N   UNL     1       6.499  -4.602   0.035  0.00  0.00    -0.267 N 
ATOM     17  C   UNL     1       6.980  -5.459   0.960  0.00  0.00    +0.141 A 
ATOM     18  C   UNL     1       8.298  -5.636   0.713  0.00  0.00    +0.163 A 
ATOM     19  C   UNL     1       8.635  -4.860  -0.401  0.00  0.00    +0.167 A 
ATOM     20  N   UNL     1       7.556  -4.245  -0.812  0.00  0.00    -0.177 NA
BRANCH  18  21
ATOM     21  N   UNL     1       9.222  -6.497   1.486  0.00  0.00    +0.059 N 
ATOM     22  O   UNL     1       8.812  -7.123   2.435  0.00  0.00    -0.126 OA
ATOM     23  O   UNL     1      10.385  -6.574   1.167  0.00  0.00    -0.126 OA
ENDBRANCH  18  21
ENDBRANCH  15  16
ENDBRANCH   1  15
TORSDOF 7
