REMARK  Name = ZINC05473347
REMARK  6 active torsions:
REMARK  status: ('A' for Active; 'I' for Inactive)
REMARK    1  A    between atoms: C_1  and  C_2
REMARK    2  A    between atoms: C_2  and  O_3
REMARK    3  A    between atoms: O_3  and  C_4
REMARK    4  A    between atoms: C_4  and  C_6
REMARK    5  A    between atoms: C_21  and  C_25
REMARK    6  A    between atoms: C_25  and  C_26
REMARK                            x       y       z     vdW  Elec       q    Type
REMARK                         _______ _______ _______ _____ _____    ______ ____
ROOT
ATOM      1  C   UNL     1       4.538   5.306  -0.261  0.00  0.00    +0.048 C 
ATOM      2  C   UNL     1       4.178   3.820  -0.068  0.00  0.00    +0.033 C 
ATOM      3  C   UNL     1       2.687   3.679   0.109  0.00  0.00    -0.022 A 
ATOM      4  C   UNL     1       1.893   2.470   0.172  0.00  0.00    +0.003 A 
ATOM      5  C   UNL     1       2.223   1.114   0.079  0.00  0.00    +0.010 A 
ATOM      6  C   UNL     1       1.191   0.215   0.183  0.00  0.00    +0.001 A 
ATOM      7  C   UNL     1      -0.122   0.619   0.367  0.00  0.00    +0.002 A 
ATOM      8  C   UNL     1      -0.476   1.953   0.469  0.00  0.00    +0.026 A 
ATOM      9  C   UNL     1       0.551   2.889   0.367  0.00  0.00    +0.047 A 
ATOM     10  N   UNL     1       0.553   4.254   0.417  0.00  0.00    -0.359 N 
ATOM     11  H   UNL     1      -0.233   4.808   0.548  0.00  0.00    +0.166 HD
ATOM     12  C   UNL     1       1.825   4.720   0.256  0.00  0.00    +0.007 A 
ATOM     13  C   UNL     1       2.316   6.136   0.211  0.00  0.00    -0.019 C 
ATOM     14  C   UNL     1       4.101   7.461   0.960  0.00  0.00    -0.063 C 
ATOM     15  C   UNL     1       2.794   8.144   1.439  0.00  0.00    -0.016 C 
ATOM     16  C   UNL     1       1.675   7.066   1.253  0.00  0.00    -0.011 C 
ATOM     17  N   UNL     1       3.672   6.074   0.715  0.00  0.00    +0.396 N 
ATOM     18  H   UNL     1       3.681   5.571   1.610  0.00  0.00    -0.079 HD
ENDROOT
BRANCH   1  19
ATOM     19  C   UNL     1       4.240   5.723  -1.678  0.00  0.00    +0.294 C 
ATOM     20  O   UNL     1       3.113   5.644  -2.107  0.00  0.00    -0.253 OA
BRANCH  19  21
ATOM     21  O   UNL     1       5.226   6.182  -2.464  0.00  0.00    -0.466 OA
BRANCH  21  23
ATOM     22  C   UNL     1       6.107   7.036  -4.568  0.00  0.00    +0.048 C 
ATOM     23  C   UNL     1       4.848   6.670  -3.779  0.00  0.00    +0.228 C 
ENDBRANCH  21  23
ENDBRANCH  19  21
ENDBRANCH   1  19
BRANCH  14  24
ATOM     24  C   UNL     1       4.631   8.156  -0.296  0.00  0.00    +0.011 C 
BRANCH  24  25
ATOM     25  C   UNL     1       5.079   9.552   0.053  0.00  0.00    -0.036 C 
ATOM     26  C   UNL     1       6.322   9.912  -0.151  0.00  0.00    +0.004 C 
ENDBRANCH  24  25
ENDBRANCH  14  24
TORSDOF 5
