REMARK  Name = ZINC40472719
REMARK  4 active torsions:
REMARK  status: ('A' for Active; 'I' for Inactive)
REMARK    1  A    between atoms: C_3  and  C_17
REMARK    2  A    between atoms: C_4  and  O_16
REMARK    3  A    between atoms: C_6  and  N_7
REMARK    4  A    between atoms: C_8  and  C_10
REMARK                            x       y       z     vdW  Elec       q    Type
REMARK                         _______ _______ _______ _____ _____    ______ ____
ROOT
ATOM      1  C   UNL     1       0.057   1.248  -0.617  0.00  0.00    +0.024 A 
ATOM      2  C   UNL     1       1.225   1.954  -0.640  0.00  0.00    +0.020 A 
ATOM      3  C   UNL     1       2.378   1.422  -0.048  0.00  0.00    +0.105 A 
ATOM      4  C   UNL     1       2.326   0.160   0.568  0.00  0.00    +0.133 A 
ATOM      5  C   UNL     1       1.136  -0.545   0.584  0.00  0.00    +0.069 A 
ATOM      6  C   UNL     1       0.002  -0.003  -0.007  0.00  0.00    +0.037 A 
ENDROOT
BRANCH   6   7
ATOM      7  N   UNL     1      -1.197  -0.714   0.010  0.00  0.00    -0.287 N 
ATOM      8  C   UNL     1      -2.368  -0.058   0.127  0.00  0.00    +0.204 C 
ATOM      9  O   UNL     1      -2.386   1.155   0.134  0.00  0.00    -0.277 OA
ATOM     10  H   UNL     1      -1.188  -1.682  -0.062  0.00  0.00    +0.155 HD
BRANCH   8  11
ATOM     11  C   UNL     1      -3.656  -0.831   0.249  0.00  0.00    +0.027 C 
ATOM     12  C   UNL     1      -3.597  -1.728   1.520  0.00  0.00    +0.060 C 
ATOM     13  S   UNL     1      -5.413  -1.981   1.760  0.00  0.00    -0.181 S 
ATOM     14  C   UNL     1      -5.967  -0.366   1.068  0.00  0.00    -0.011 C 
ATOM     15  N   UNL     1      -4.776   0.109   0.330  0.00  0.00    +0.393 N 
ATOM     16  H   UNL     1      -4.447   0.954   0.773  0.00  0.00    -0.084 HD
ATOM     17  H   UNL     1      -5.062   0.340  -0.610  0.00  0.00    -0.084 HD
ENDBRANCH   8  11
ENDBRANCH   6   7
BRANCH   3  18
ATOM     18  C   UNL     1       3.635   2.180  -0.072  0.00  0.00    +0.390 C 
ATOM     19  O   UNL     1       3.677   3.279  -0.610  0.00  0.00    -0.240 OA
ATOM     20  O   UNL     1       4.641   1.714   0.445  0.00  0.00    -0.240 OA
ENDBRANCH   3  18
BRANCH   4  21
ATOM     21  O   UNL     1       3.437  -0.363   1.143  0.00  0.00    -0.506 OA
ATOM     22  H   UNL     1       3.543  -0.132   2.076  0.00  0.00    +0.292 HD
ENDBRANCH   4  21
TORSDOF 4
