REMARK  Name = ZINC64650976
REMARK  13 active torsions:
REMARK  status: ('A' for Active; 'I' for Inactive)
REMARK    1  A    between atoms: C_1  and  C_2
REMARK    2  A    between atoms: C_4  and  C_35
REMARK    3  A    between atoms: C_7  and  C_12
REMARK    4  A    between atoms: N_14  and  C_15
REMARK    5  A    between atoms: C_15  and  C_16
REMARK    6  A    between atoms: C_16  and  C_18
REMARK    7  A    between atoms: C_16  and  O_19
REMARK    8  A    between atoms: O_19  and  C_20
REMARK    9  A    between atoms: C_24  and  C_26
REMARK   10  A    between atoms: C_26  and  N_27
REMARK   11  A    between atoms: N_27  and  C_28
REMARK   12  A    between atoms: N_27  and  C_29
REMARK   13  A    between atoms: C_29  and  C_30
REMARK                            x       y       z     vdW  Elec       q    Type
REMARK                         _______ _______ _______ _____ _____    ______ ____
ROOT
ATOM      1  C   UNL     1       7.818  -5.314  -0.451  0.00  0.00    +0.187 C 
ATOM      2  C   UNL     1       8.911  -6.236  -0.995  0.00  0.00    +0.053 C 
ENDROOT
BRANCH   1   3
ATOM      3  C   UNL     1       7.070  -4.666  -1.617  0.00  0.00    +0.148 C 
BRANCH   3   6
ATOM      4  C   UNL     1       5.231  -3.102  -1.947  0.00  0.00    +0.244 C 
ATOM      5  O   UNL     1       5.385  -3.220  -3.148  0.00  0.00    -0.270 OA
ATOM      6  N   UNL     1       6.023  -3.784  -1.096  0.00  0.00    -0.308 N 
ATOM      7  H   UNL     1       5.900  -3.690  -0.138  0.00  0.00    +0.149 HD
BRANCH   4  13
ATOM      8  C   UNL     1       0.785   2.306  -1.467  0.00  0.00    +0.035 C 
ATOM      9  C   UNL     1       0.636   0.786  -1.369  0.00  0.00    +0.103 C 
ATOM     10  C   UNL     1       1.445   0.113  -2.454  0.00  0.00    -0.042 C 
ATOM     11  C   UNL     1       2.356  -0.665  -1.815  0.00  0.00    -0.000 A 
ATOM     12  C   UNL     1       3.376  -1.524  -2.303  0.00  0.00    +0.023 A 
ATOM     13  C   UNL     1       4.177  -2.214  -1.422  0.00  0.00    +0.037 A 
ATOM     14  C   UNL     1       4.004  -2.084   0.020  0.00  0.00    +0.015 A 
ATOM     15  C   UNL     1       3.052  -1.282   0.541  0.00  0.00    +0.026 A 
ATOM     16  C   UNL     1       2.171  -0.524  -0.354  0.00  0.00    +0.043 A 
ATOM     17  N   UNL     1       1.187   0.306  -0.097  0.00  0.00    -0.378 N 
ATOM     18  C   UNL     1       1.275   0.273  -3.943  0.00  0.00    +0.042 C 
ATOM     19  H   UNL     1       0.875   0.559   0.786  0.00  0.00    +0.160 HD
ENDBRANCH   4  13
ENDBRANCH   3   6
ENDBRANCH   1   3
BRANCH   1  20
ATOM     20  O   UNL     1       8.412  -4.297   0.358  0.00  0.00    -0.488 OA
BRANCH  20  21
ATOM     21  C   UNL     1       8.656  -4.606   1.659  0.00  0.00    +0.121 A 
ATOM     22  C   UNL     1       9.121  -3.631   2.530  0.00  0.00    +0.045 A 
ATOM     23  C   UNL     1       9.368  -3.949   3.851  0.00  0.00    +0.004 A 
ATOM     24  C   UNL     1       9.152  -5.236   4.306  0.00  0.00    +0.005 A 
ATOM     25  C   UNL     1       8.688  -6.209   3.441  0.00  0.00    -0.030 A 
ATOM     26  C   UNL     1       8.434  -5.896   2.119  0.00  0.00    +0.050 A 
BRANCH  25  27
ATOM     27  C   UNL     1       8.454  -7.612   3.940  0.00  0.00    +0.119 C 
BRANCH  27  28
ATOM     28  N   UNL     1       7.073  -7.734   4.426  0.00  0.00    -0.297 NA
ATOM     29  C   UNL     1       6.857  -6.899   5.615  0.00  0.00    +0.105 C 
BRANCH  28  30
ATOM     30  C   UNL     1       6.733  -9.136   4.699  0.00  0.00    +0.126 C 
BRANCH  30  31
ATOM     31  C   UNL     1       5.253  -9.254   4.957  0.00  0.00    +0.004 A 
ATOM     32  C   UNL     1       4.249  -9.486   4.076  0.00  0.00    +0.012 A 
ATOM     33  C   UNL     1       2.950  -9.555   4.543  0.00  0.00    +0.008 A 
ATOM     34  C   UNL     1       2.718  -9.389   5.867  0.00  0.00    +0.045 A 
ATOM     35  S   UNL     1       4.367  -9.131   6.502  0.00  0.00    -0.100 S 
ENDBRANCH  30  31
ENDBRANCH  28  30
ENDBRANCH  27  28
ENDBRANCH  25  27
ENDBRANCH  20  21
ENDBRANCH   1  20
TORSDOF 9
