REMARK  Name = ZINC46864220
REMARK  5 active torsions:
REMARK  status: ('A' for Active; 'I' for Inactive)
REMARK    1  A    between atoms: N_9  and  S_11
REMARK    2  A    between atoms: S_11  and  C_14
REMARK    3  A    between atoms: C_18  and  C_20
REMARK    4  A    between atoms: N_22  and  C_23
REMARK    5  A    between atoms: C_23  and  C_24
REMARK                            x       y       z     vdW  Elec       q    Type
REMARK                         _______ _______ _______ _____ _____    ______ ____
ROOT
ATOM      1  C   UNL     1       5.924  -3.529   0.278  0.00  0.00    +0.106 A 
ATOM      2  C   UNL     1       5.842  -4.783  -0.301  0.00  0.00    +0.030 A 
ATOM      3  C   UNL     1       6.892  -5.274  -1.056  0.00  0.00    +0.022 A 
ATOM      4  C   UNL     1       8.032  -4.513  -1.234  0.00  0.00    +0.053 A 
ATOM      5  C   UNL     1       8.120  -3.246  -0.652  0.00  0.00    +0.057 A 
ATOM      6  C   UNL     1       7.052  -2.756   0.103  0.00  0.00    +0.043 A 
ATOM      7 CL   UNL     1       9.350  -5.130  -2.180  0.00  0.00    -0.083 Cl
ENDROOT
BRANCH   5   8
ATOM      8  C   UNL     1       9.335  -2.426  -0.839  0.00  0.00    +0.246 C 
ATOM      9  O   UNL     1      10.261  -2.854  -1.500  0.00  0.00    -0.270 OA
ATOM     10  N   UNL     1       9.417  -1.205  -0.275  0.00  0.00    -0.308 N 
ATOM     11  H   UNL     1       8.678  -0.864   0.253  0.00  0.00    +0.149 HD
BRANCH  10  12
ATOM     12  C   UNL     1      10.622  -0.392  -0.460  0.00  0.00    +0.149 C 
BRANCH  12  13
ATOM     13  C   UNL     1      10.457   0.938   0.277  0.00  0.00    +0.195 C 
ATOM     14  C   UNL     1      11.689   1.847   0.050  0.00  0.00    +0.085 C 
ATOM     15  C   UNL     1      11.828   2.530   1.396  0.00  0.00    -0.002 A 
ATOM     16  C   UNL     1      12.532   3.642   1.801  0.00  0.00    +0.007 A 
ATOM     17  C   UNL     1      12.473   4.056   3.120  0.00  0.00    +0.000 A 
ATOM     18  C   UNL     1      11.705   3.349   4.027  0.00  0.00    +0.004 A 
ATOM     19  C   UNL     1      11.002   2.232   3.625  0.00  0.00    +0.046 A 
ATOM     20  C   UNL     1      11.059   1.807   2.300  0.00  0.00    +0.124 A 
ATOM     21  O   UNL     1      10.464   0.736   1.700  0.00  0.00    -0.487 OA
ENDBRANCH  12  13
ENDBRANCH  10  12
ENDBRANCH   5   8
BRANCH   1  22
ATOM     22  S   UNL     1       4.579  -2.915   1.237  0.00  0.00    +0.061 S 
ATOM     23  O   UNL     1       5.120  -1.940   2.118  0.00  0.00    -0.153 OA
ATOM     24  O   UNL     1       3.862  -4.049   1.704  0.00  0.00    -0.153 OA
BRANCH  22  33
ATOM     25  C   UNL     1      -0.017   1.375   0.010  0.00  0.00    +0.000 A 
ATOM     26  C   UNL     1       1.173   2.079   0.002  0.00  0.00    +0.000 A 
ATOM     27  C   UNL     1       2.372   1.396  -0.019  0.00  0.00    +0.005 A 
ATOM     28  C   UNL     1       2.392   0.008  -0.029  0.00  0.00    -0.028 A 
ATOM     29  C   UNL     1       1.208  -0.695  -0.011  0.00  0.00    -0.042 A 
ATOM     30  C   UNL     1       0.002  -0.004   0.002  0.00  0.00    +0.004 A 
ATOM     31  C   UNL     1       1.151  -2.200   0.010  0.00  0.00    +0.052 C 
ATOM     32  C   UNL     1       2.465  -2.801  -0.485  0.00  0.00    +0.114 C 
ATOM     33  N   UNL     1       3.568  -2.109   0.202  0.00  0.00    -0.172 NA
ATOM     34  C   UNL     1       3.735  -0.676  -0.066  0.00  0.00    +0.144 C 
ENDBRANCH  22  33
ENDBRANCH   1  22
TORSDOF 5
