REMARK  Name = ZINC12482583
REMARK  5 active torsions:
REMARK  status: ('A' for Active; 'I' for Inactive)
REMARK    1  A    between atoms: C_3  and  C_6
REMARK    2  A    between atoms: N_7  and  C_8
REMARK    3  A    between atoms: C_11  and  S_14
REMARK    4  A    between atoms: S_14  and  N_17
REMARK    5  A    between atoms: N_17  and  C_18
REMARK                            x       y       z     vdW  Elec       q    Type
REMARK                         _______ _______ _______ _____ _____    ______ ____
ROOT
ATOM      1  C   UNL     1       6.461  -1.768   0.556  0.00  0.00    +0.064 A 
ATOM      2  C   UNL     1       5.849  -2.970   0.919  0.00  0.00    +0.029 A 
ATOM      3  C   UNL     1       4.595  -3.276   0.434  0.00  0.00    +0.031 A 
ATOM      4  C   UNL     1       3.943  -2.396  -0.411  0.00  0.00    +0.109 A 
ATOM      5  C   UNL     1       4.545  -1.206  -0.780  0.00  0.00    +0.031 A 
ATOM      6  C   UNL     1       5.796  -0.884  -0.298  0.00  0.00    +0.029 A 
ENDROOT
BRANCH   4   7
ATOM      7  S   UNL     1       2.341  -2.795  -1.026  0.00  0.00    +0.072 S 
ATOM      8  O   UNL     1       2.181  -4.198  -0.863  0.00  0.00    -0.150 OA
ATOM      9  O   UNL     1       2.220  -2.156  -2.290  0.00  0.00    -0.150 OA
BRANCH   7  10
ATOM     10  N   UNL     1       1.238  -2.074  -0.024  0.00  0.00    -0.216 N 
ATOM     11  H   UNL     1       0.629  -1.405  -0.374  0.00  0.00    +0.174 HD
BRANCH  10  12
ATOM     12  C   UNL     1       1.183  -2.429   1.326  0.00  0.00    +0.048 A 
ATOM     13  C   UNL     1       1.111  -1.444   2.303  0.00  0.00    +0.025 A 
ATOM     14  C   UNL     1       1.058  -1.798   3.637  0.00  0.00    +0.016 A 
ATOM     15  C   UNL     1       1.077  -3.133   4.000  0.00  0.00    +0.013 A 
ATOM     16  C   UNL     1       1.149  -4.116   3.030  0.00  0.00    +0.016 A 
ATOM     17  C   UNL     1       1.202  -3.768   1.695  0.00  0.00    +0.025 A 
ATOM     18  I   UNL     1       0.997  -3.666   6.025  0.00  0.00    -0.044 I 
ENDBRANCH  10  12
ENDBRANCH   7  10
ENDBRANCH   4   7
BRANCH   1  20
ATOM     19  C   UNL     1       8.614  -0.979   0.225  0.00  0.00    +0.126 C 
ATOM     20  N   UNL     1       7.705  -1.458   1.033  0.00  0.00    -0.254 NA
BRANCH  19  23
ATOM     21  C   UNL     1      12.141   0.077   0.770  0.00  0.00    +0.008 A 
ATOM     22  C   UNL     1      11.001  -0.149   0.038  0.00  0.00    +0.017 A 
ATOM     23  C   UNL     1       9.904  -0.657   0.720  0.00  0.00    +0.030 A 
ATOM     24  S   UNL     1      10.541  -0.808   2.379  0.00  0.00    -0.096 S 
ATOM     25  C   UNL     1      12.145  -0.212   2.097  0.00  0.00    +0.046 A 
ENDBRANCH  19  23
ENDBRANCH   1  20
TORSDOF 5
