REMARK  Name = ZINC36548464
REMARK  9 active torsions:
REMARK  status: ('A' for Active; 'I' for Inactive)
REMARK    1  A    between atoms: C_1  and  C_2
REMARK    2  A    between atoms: C_2  and  C_3
REMARK    3  A    between atoms: C_2  and  C_4
REMARK    4  A    between atoms: C_2  and  N_5
REMARK    5  A    between atoms: C_6  and  C_8
REMARK    6  A    between atoms: C_8  and  C_10
REMARK    7  A    between atoms: C_8  and  N_15
REMARK    8  A    between atoms: N_15  and  C_16
REMARK    9  A    between atoms: C_23  and  C_25
REMARK                            x       y       z     vdW  Elec       q    Type
REMARK                         _______ _______ _______ _____ _____    ______ ____
ROOT
ATOM      1  N   UNL     1       4.010  -0.016  -2.738  0.00  0.00    -0.249 N 
ATOM      2  C   UNL     1       4.921  -0.280  -1.780  0.00  0.00    +0.241 C 
ATOM      3  O   UNL     1       4.649  -1.046  -0.880  0.00  0.00    -0.273 OA
ENDROOT
BRANCH   1   4
ATOM      4  C   UNL     1       4.324   0.869  -3.777  0.00  0.00    +0.056 A 
ATOM      5  C   UNL     1       4.202   2.239  -3.585  0.00  0.00    +0.025 A 
ATOM      6  C   UNL     1       4.513   3.109  -4.612  0.00  0.00    +0.002 A 
ATOM      7  C   UNL     1       4.944   2.617  -5.830  0.00  0.00    +0.002 A 
ATOM      8  C   UNL     1       5.066   1.254  -6.026  0.00  0.00    +0.022 A 
ATOM      9  C   UNL     1       4.763   0.378  -5.000  0.00  0.00    +0.062 A 
ATOM     10 CL   UNL     1       4.925  -1.333  -5.243  0.00  0.00    -0.082 Cl
ENDBRANCH   1   4
BRANCH   2  11
ATOM     11  C   UNL     1       6.277   0.376  -1.827  0.00  0.00    +0.160 C 
ATOM     12  C   UNL     1       7.202  -0.378  -2.808  0.00  0.00    +0.041 C 
ATOM     13  C   UNL     1       7.930  -1.361  -1.862  0.00  0.00    +0.098 C 
ATOM     14  C   UNL     1       7.862  -0.691  -0.508  0.00  0.00    +0.214 C 
ATOM     15  O   UNL     1       8.547  -0.986   0.449  0.00  0.00    -0.276 OA
ATOM     16  N   UNL     1       6.932   0.282  -0.518  0.00  0.00    -0.304 N 
ATOM     17  H   UNL     1       6.722   0.849   0.241  0.00  0.00    +0.149 HD
ENDBRANCH   2  11
BRANCH   1  18
ATOM     18  C   UNL     1       2.692  -0.653  -2.692  0.00  0.00    +0.233 C 
BRANCH  18  19
ATOM     19  C   UNL     1       2.854  -2.148  -2.791  0.00  0.00    +0.135 A 
ATOM     20  C   UNL     1       2.068  -2.979  -3.499  0.00  0.00    +0.047 A 
ATOM     21  C   UNL     1       2.578  -4.285  -3.311  0.00  0.00    +0.041 A 
ATOM     22  C   UNL     1       3.645  -4.173  -2.500  0.00  0.00    +0.195 A 
ATOM     23  O   UNL     1       3.811  -2.876  -2.193  0.00  0.00    -0.465 OA
ENDBRANCH  18  19
BRANCH  18  25
ATOM     24  N   UNL     1       0.734  -0.680  -1.182  0.00  0.00    -0.309 N 
ATOM     25  C   UNL     1       2.011  -0.307  -1.393  0.00  0.00    +0.242 C 
ATOM     26  O   UNL     1       2.613   0.307  -0.538  0.00  0.00    -0.273 OA
ATOM     27  H   UNL     1       0.252  -1.171  -1.865  0.00  0.00    +0.149 HD
BRANCH  24  29
ATOM     28  C   UNL     1       0.047   1.177   0.254  0.00  0.00    +0.031 C 
ATOM     29  C   UNL     1       0.072  -0.343   0.081  0.00  0.00    +0.026 C 
ATOM     30  C   UNL     1       0.839  -0.976   1.244  0.00  0.00    +0.031 C 
ATOM     31  C   UNL     1      -1.361  -0.878   0.064  0.00  0.00    +0.031 C 
ENDBRANCH  24  29
ENDBRANCH  18  25
ENDBRANCH   1  18
TORSDOF 6
