REMARK  Name = ZINC12790120
REMARK  13 active torsions:
REMARK  status: ('A' for Active; 'I' for Inactive)
REMARK    1  A    between atoms: C_1  and  N_68
REMARK    2  A    between atoms: C_2  and  N_68
REMARK    3  A    between atoms: C_3  and  C_5
REMARK    4  A    between atoms: C_3  and  C_33
REMARK    5  A    between atoms: C_3  and  N_68
REMARK    6  A    between atoms: C_5  and  N_6
REMARK    7  A    between atoms: C_7  and  C_9
REMARK    8  A    between atoms: C_9  and  C_11
REMARK    9  A    between atoms: C_9  and  N_22
REMARK   10  A    between atoms: C_11  and  C_12
REMARK   11  A    between atoms: C_23  and  O_25
REMARK   12  A    between atoms: O_25  and  C_26
REMARK   13  A    between atoms: C_26  and  C_27
REMARK                            x       y       z     vdW  Elec       q    Type
REMARK                         _______ _______ _______ _____ _____    ______ ____
ROOT
ATOM      1  C   UNL     1       1.430   0.890   5.271  0.00  0.00    +0.166 C 
ENDROOT
BRANCH   1   3
ATOM      2  N   UNL     1       0.785   1.864   7.452  0.00  0.00    -0.315 N 
ATOM      3  C   UNL     1       0.655   1.873   6.110  0.00  0.00    +0.234 C 
ATOM      4  O   UNL     1      -0.085   2.673   5.578  0.00  0.00    -0.274 OA
ATOM      5  H   UNL     1       1.377   1.224   7.877  0.00  0.00    +0.149 HD
BRANCH   2   6
ATOM      6  C   UNL     1       0.033   2.820   8.267  0.00  0.00    +0.093 C 
BRANCH   6   7
ATOM      7  C   UNL     1       0.258   2.514   9.750  0.00  0.00    -0.021 C 
BRANCH   7   8
ATOM      8  C   UNL     1      -0.290   1.147  10.069  0.00  0.00    -0.059 A 
ATOM      9  C   UNL     1      -1.646   0.978  10.281  0.00  0.00    +0.002 A 
ATOM     10  C   UNL     1      -2.149  -0.277  10.571  0.00  0.00    +0.000 A 
ATOM     11  C   UNL     1      -1.295  -1.360  10.657  0.00  0.00    +0.000 A 
ATOM     12  C   UNL     1       0.061  -1.190  10.450  0.00  0.00    +0.000 A 
ATOM     13  C   UNL     1       0.564   0.063  10.156  0.00  0.00    +0.002 A 
ENDBRANCH   7   8
BRANCH   7  16
ATOM     14  C   UNL     1      -0.194   3.289  11.998  0.00  0.00    -0.096 C 
ATOM     15  C   UNL     1      -0.027   4.880  10.180  0.00  0.00    -0.096 C 
ATOM     16  N   UNL     1      -0.459   3.519  10.563  0.00  0.00    +0.382 N 
ATOM     17  H   UNL     1      -1.468   3.429  10.391  0.00  0.00    -0.082 HD
ENDBRANCH   7  16
ENDBRANCH   6   7
ENDBRANCH   2   6
ENDBRANCH   1   3
BRANCH   1  18
ATOM     18  N   UNL     1       1.117   1.103   3.856  0.00  0.00    -0.269 N 
ATOM     19  C   UNL     1       2.002   0.736   2.908  0.00  0.00    +0.401 C 
ATOM     20  O   UNL     1       3.059   0.229   3.227  0.00  0.00    -0.226 OA
ATOM     21  H   UNL     1       0.273   1.508   3.601  0.00  0.00    +0.153 HD
BRANCH  19  22
ATOM     22  O   UNL     1       1.715   0.931   1.607  0.00  0.00    -0.446 OA
BRANCH  22  23
ATOM     23  C   UNL     1       2.714   0.512   0.641  0.00  0.00    +0.269 C 
BRANCH  23  24
ATOM     24  C   UNL     1       2.221   0.808  -0.752  0.00  0.00    -0.010 A 
ATOM     25  C   UNL     1       1.495  -0.143  -1.445  0.00  0.00    +0.007 A 
ATOM     26  C   UNL     1       1.039   0.130  -2.721  0.00  0.00    +0.000 A 
ATOM     27  C   UNL     1       1.317   1.351  -3.308  0.00  0.00    +0.000 A 
ATOM     28  C   UNL     1       2.048   2.299  -2.618  0.00  0.00    +0.000 A 
ATOM     29  C   UNL     1       2.500   2.028  -1.339  0.00  0.00    +0.007 A 
ENDBRANCH  23  24
ENDBRANCH  22  23
ENDBRANCH  19  22
ENDBRANCH   1  18
BRANCH   1  30
ATOM     30  C   UNL     1       1.044  -0.536   5.670  0.00  0.00    +0.069 C 
BRANCH  30  31
ATOM     31  C   UNL     1       1.905  -1.519   4.919  0.00  0.00    -0.020 A 
ATOM     32  C   UNL     1       1.592  -2.141   3.772  0.00  0.00    +0.087 A 
ATOM     33  N   UNL     1       2.621  -2.958   3.388  0.00  0.00    -0.360 N 
ATOM     34  H   UNL     1       2.627  -3.509   2.590  0.00  0.00    +0.165 HD
ATOM     35  C   UNL     1       3.644  -2.885   4.307  0.00  0.00    +0.047 A 
ATOM     36  C   UNL     1       3.240  -1.980   5.306  0.00  0.00    +0.003 A 
ATOM     37  C   UNL     1       4.089  -1.705   6.380  0.00  0.00    +0.010 A 
ATOM     38  C   UNL     1       5.309  -2.316   6.455  0.00  0.00    +0.001 A 
ATOM     39  C   UNL     1       5.711  -3.210   5.472  0.00  0.00    +0.002 A 
ATOM     40  C   UNL     1       4.890  -3.496   4.404  0.00  0.00    +0.026 A 
ENDBRANCH  30  31
ENDBRANCH   1  30
TORSDOF 11
