REMARK  Name = ZINC02210259
REMARK  8 active torsions:
REMARK  status: ('A' for Active; 'I' for Inactive)
REMARK    1  A    between atoms: C_1  and  C_2
REMARK    2  A    between atoms: C_5  and  C_8
REMARK    3  A    between atoms: C_8  and  O_9
REMARK    4  A    between atoms: O_9  and  C_10
REMARK    5  A    between atoms: C_13  and  C_17
REMARK    6  A    between atoms: C_14  and  O_16
REMARK    7  A    between atoms: C_18  and  C_28
REMARK    8  A    between atoms: C_19  and  C_24
REMARK                            x       y       z     vdW  Elec       q    Type
REMARK                         _______ _______ _______ _____ _____    ______ ____
ROOT
ATOM      1  C   UNL     1       1.280  -0.655  -0.131  0.00  0.00    +0.088 A 
ATOM      2  C   UNL     1       2.015   0.055   0.839  0.00  0.00    +0.038 A 
ATOM      3  C   UNL     1       1.835   1.435   0.923  0.00  0.00    +0.157 A 
ATOM      4  N   UNL     1       0.987   2.025   0.097  0.00  0.00    -0.210 NA
ATOM      5  C   UNL     1       0.310   1.327  -0.804  0.00  0.00    +0.214 A 
ATOM      6  N   UNL     1       0.447   0.016  -0.923  0.00  0.00    -0.214 NA
ATOM      7  N   UNL     1      -0.561   1.990  -1.650  0.00  0.00    -0.327 N 
ATOM      8  H   UNL     1      -1.061   1.494  -2.317  0.00  0.00    +0.145 HD
ATOM      9  H   UNL     1      -0.673   2.951  -1.575  0.00  0.00    +0.145 HD
ENDROOT
BRANCH   1  13
ATOM     10  C   UNL     1       1.714  -4.869  -0.519  0.00  0.00    +0.124 A 
ATOM     11  C   UNL     1       2.839  -4.053  -0.485  0.00  0.00    +0.046 A 
ATOM     12  C   UNL     1       2.702  -2.688  -0.359  0.00  0.00    +0.017 A 
ATOM     13  C   UNL     1       1.430  -2.120  -0.266  0.00  0.00    +0.043 A 
ATOM     14  C   UNL     1       0.298  -2.943  -0.295  0.00  0.00    +0.129 A 
ATOM     15  C   UNL     1       0.446  -4.314  -0.427  0.00  0.00    +0.091 A 
BRANCH  14  16
ATOM     16  O   UNL     1      -0.942  -2.399  -0.199  0.00  0.00    -0.506 OA
ATOM     17  H   UNL     1      -1.335  -2.163  -1.051  0.00  0.00    +0.292 HD
ENDBRANCH  14  16
BRANCH  10  18
ATOM     18  O   UNL     1       1.856  -6.213  -0.644  0.00  0.00    -0.487 OA
BRANCH  18  19
ATOM     19  C   UNL     1       3.190  -6.719  -0.734  0.00  0.00    +0.264 C 
BRANCH  19  24
ATOM     20  C   UNL     1       3.039 -12.473  -1.242  0.00  0.00    +0.044 C 
ATOM     21  C   UNL     1       3.079 -10.973  -1.109  0.00  0.00    -0.050 A 
ATOM     22  C   UNL     1       3.056 -10.178  -2.240  0.00  0.00    +0.004 A 
ATOM     23  C   UNL     1       3.092  -8.802  -2.119  0.00  0.00    +0.007 A 
ATOM     24  C   UNL     1       3.150  -8.220  -0.867  0.00  0.00    -0.010 A 
ATOM     25  C   UNL     1       3.178  -9.014   0.264  0.00  0.00    +0.007 A 
ATOM     26  C   UNL     1       3.138 -10.390   0.143  0.00  0.00    +0.004 A 
ENDBRANCH  19  24
ENDBRANCH  18  19
ENDBRANCH  10  18
ENDBRANCH   1  13
BRANCH   2  27
ATOM     27  C   UNL     1       2.956  -0.646   1.745  0.00  0.00    -0.014 A 
ATOM     28  C   UNL     1       2.471  -1.516   2.720  0.00  0.00    +0.008 A 
ATOM     29  C   UNL     1       3.353  -2.171   3.557  0.00  0.00    +0.001 A 
ATOM     30  C   UNL     1       4.714  -1.955   3.437  0.00  0.00    +0.000 A 
ATOM     31  C   UNL     1       5.200  -1.088   2.475  0.00  0.00    +0.001 A 
ATOM     32  C   UNL     1       4.329  -0.433   1.629  0.00  0.00    +0.008 A 
ENDBRANCH   2  27
BRANCH   3  33
ATOM     33  C   UNL     1       2.596   2.244   1.942  0.00  0.00    +0.435 C 
ATOM     34  F   UNL     1       3.805   2.675   1.385  0.00  0.00    -0.164 F 
ATOM     35  F   UNL     1       1.834   3.355   2.319  0.00  0.00    -0.164 F 
ATOM     36  F   UNL     1       2.856   1.453   3.066  0.00  0.00    -0.164 F 
ENDBRANCH   3  33
TORSDOF 7
