REMARK  Name = ZINC57460552
REMARK  9 active torsions:
REMARK  status: ('A' for Active; 'I' for Inactive)
REMARK    1  A    between atoms: C_1  and  C_2
REMARK    2  A    between atoms: C_3  and  C_22
REMARK    3  A    between atoms: C_4  and  C_10
REMARK    4  A    between atoms: C_13  and  O_18
REMARK    5  A    between atoms: C_14  and  O_16
REMARK    6  A    between atoms: O_16  and  C_17
REMARK    7  A    between atoms: O_18  and  C_19
REMARK    8  A    between atoms: N_24  and  C_25
REMARK    9  A    between atoms: N_24  and  C_26
REMARK                            x       y       z     vdW  Elec       q    Type
REMARK                         _______ _______ _______ _____ _____    ______ ____
ROOT
ATOM      1  C   UNL     1      -0.029   1.500   0.090  0.00  0.00    +0.061 C 
ATOM      2  C   UNL     1       0.012  -0.005   0.043  0.00  0.00    +0.017 C 
ATOM      3  C   UNL     1      -1.145  -0.700   0.020  0.00  0.00    +0.056 C 
ATOM      4  C   UNL     1      -1.059  -2.212  -0.028  0.00  0.00    +0.139 C 
ATOM      5  N   UNL     1       0.290  -2.803  -0.046  0.00  0.00    -0.315 N 
ATOM      6  C   UNL     1       1.353  -1.976  -0.019  0.00  0.00    +0.135 C 
ATOM      7  S   UNL     1       2.927  -2.649  -0.040  0.00  0.00    -0.019 S 
ATOM      8  N   UNL     1       1.219  -0.644   0.018  0.00  0.00    -0.300 N 
ATOM      9  H   UNL     1       0.410  -3.765  -0.076  0.00  0.00    +0.149 HD
ATOM     10  H   UNL     1       2.023  -0.103   0.032  0.00  0.00    +0.154 HD
ENDROOT
BRANCH   4  11
ATOM     11  C   UNL     1      -1.788  -2.757   1.173  0.00  0.00    -0.019 A 
ATOM     12  C   UNL     1      -1.212  -2.674   2.426  0.00  0.00    +0.009 A 
ATOM     13  C   UNL     1      -1.877  -3.173   3.531  0.00  0.00    +0.050 A 
ATOM     14  C   UNL     1      -3.125  -3.757   3.383  0.00  0.00    +0.168 A 
ATOM     15  C   UNL     1      -3.705  -3.841   2.121  0.00  0.00    +0.162 A 
ATOM     16  C   UNL     1      -3.035  -3.334   1.018  0.00  0.00    +0.055 A 
BRANCH  15  17
ATOM     17  O   UNL     1      -4.929  -4.413   1.970  0.00  0.00    -0.491 OA
ATOM     18  C   UNL     1      -5.463  -4.464   0.646  0.00  0.00    +0.277 C 
ENDBRANCH  15  17
BRANCH  14  19
ATOM     19  O   UNL     1      -3.780  -4.249   4.468  0.00  0.00    -0.431 OA
BRANCH  19  20
ATOM     20  C   UNL     1      -3.124  -4.129   5.732  0.00  0.00    +0.541 C 
ATOM     21  F   UNL     1      -1.903  -4.811   5.689  0.00  0.00    -0.166 F 
ATOM     22  F   UNL     1      -2.893  -2.778   6.011  0.00  0.00    -0.166 F 
ENDBRANCH  19  20
ENDBRANCH  14  19
ENDBRANCH   4  11
BRANCH   3  23
ATOM     23  C   UNL     1      -2.397  -0.038   0.040  0.00  0.00    +0.246 C 
ATOM     24  O   UNL     1      -3.055  -0.011   1.065  0.00  0.00    -0.270 OA
ATOM     25  N   UNL     1      -2.861   0.561  -1.074  0.00  0.00    -0.304 N 
ATOM     26  C   UNL     1      -4.095   1.349  -1.023  0.00  0.00    +0.132 C 
ATOM     27  C   UNL     1      -2.131   0.425  -2.337  0.00  0.00    +0.132 C 
ENDBRANCH   3  23
TORSDOF 5
