REMARK  Name = ZINC39710344
REMARK  13 active torsions:
REMARK  status: ('A' for Active; 'I' for Inactive)
REMARK    1  A    between atoms: C_1  and  C_2
REMARK    2  A    between atoms: C_9  and  C_14
REMARK    3  A    between atoms: C_14  and  C_16
REMARK    4  A    between atoms: C_14  and  N_25
REMARK    5  A    between atoms: N_20  and  C_21
REMARK    6  A    between atoms: C_21  and  C_22
REMARK    7  A    between atoms: C_22  and  O_23
REMARK    8  A    between atoms: O_23  and  C_24
REMARK    9  A    between atoms: N_25  and  C_26
REMARK   10  A    between atoms: N_25  and  C_34
REMARK   11  A    between atoms: C_26  and  C_27
REMARK   12  A    between atoms: C_27  and  C_28
REMARK   13  A    between atoms: C_34  and  C_35
REMARK                            x       y       z     vdW  Elec       q    Type
REMARK                         _______ _______ _______ _____ _____    ______ ____
ROOT
ATOM      1  C   UNL     1      -1.116  -4.973   2.577  0.00  0.00    +0.142 C 
ENDROOT
BRANCH   1  10
ATOM      2  C   UNL     1      -0.225   1.158  -0.977  0.00  0.00    +0.044 C 
ATOM      3  C   UNL     1      -0.042  -0.326  -0.784  0.00  0.00    -0.050 A 
ATOM      4  C   UNL     1       0.230  -1.129  -1.892  0.00  0.00    +0.005 A 
ATOM      5  C   UNL     1       0.408  -2.473  -1.796  0.00  0.00    +0.024 A 
ATOM      6  C   UNL     1       0.323  -3.118  -0.548  0.00  0.00    +0.040 A 
ATOM      7  N   UNL     1       0.500  -4.436  -0.467  0.00  0.00    -0.284 N 
ATOM      8  C   UNL     1       0.433  -5.105   0.672  0.00  0.00    +0.226 C 
ATOM      9  O   UNL     1       0.604  -6.309   0.685  0.00  0.00    -0.275 OA
ATOM     10  C   UNL     1       0.145  -4.366   1.960  0.00  0.00    +0.123 C 
ATOM     11  C   UNL     1      -0.056  -2.866   1.872  0.00  0.00    -0.003 C 
ATOM     12  C   UNL     1       0.037  -2.293   0.638  0.00  0.00    -0.007 A 
ATOM     13  C   UNL     1      -0.138  -0.851   0.465  0.00  0.00    +0.012 A 
ATOM     14  H   UNL     1       0.686  -4.929  -1.281  0.00  0.00    +0.155 HD
ENDBRANCH   1  10
BRANCH   1  15
ATOM     15  C   UNL     1      -1.437  -4.261   3.866  0.00  0.00    +0.170 A 
ATOM     16  N   UNL     1      -0.812  -4.394   5.010  0.00  0.00    -0.112 NA
ATOM     17  N   UNL     1      -1.383  -3.620   5.868  0.00  0.00    -0.023 NA
ATOM     18  N   UNL     1      -2.356  -2.996   5.300  0.00  0.00    -0.044 NA
ATOM     19  N   UNL     1      -2.418  -3.361   4.064  0.00  0.00    -0.225 N 
BRANCH  19  20
ATOM     20  C   UNL     1      -3.379  -2.886   3.065  0.00  0.00    +0.175 C 
BRANCH  20  21
ATOM     21  C   UNL     1      -4.617  -3.785   3.080  0.00  0.00    +0.183 C 
BRANCH  21  22
ATOM     22  O   UNL     1      -5.553  -3.322   2.105  0.00  0.00    -0.381 OA
ATOM     23  C   UNL     1      -6.752  -4.097   2.037  0.00  0.00    +0.194 C 
ENDBRANCH  21  22
ENDBRANCH  20  21
ENDBRANCH  19  20
ENDBRANCH   1  15
BRANCH   1  24
ATOM     24  N   UNL     1      -0.891  -6.399   2.848  0.00  0.00    -0.287 NA
BRANCH  24  25
ATOM     25  C   UNL     1      -2.145  -7.069   3.218  0.00  0.00    +0.090 C 
BRANCH  25  26
ATOM     26  C   UNL     1      -2.054  -8.554   2.862  0.00  0.00    +0.050 C 
BRANCH  26  27
ATOM     27  C   UNL     1      -3.386  -9.213   3.113  0.00  0.00    -0.046 A 
ATOM     28  C   UNL     1      -3.663  -9.759   4.353  0.00  0.00    +0.003 A 
ATOM     29  C   UNL     1      -4.885 -10.364   4.583  0.00  0.00    +0.000 A 
ATOM     30  C   UNL     1      -5.829 -10.423   3.575  0.00  0.00    +0.000 A 
ATOM     31  C   UNL     1      -5.551  -9.876   2.336  0.00  0.00    +0.000 A 
ATOM     32  C   UNL     1      -4.332  -9.267   2.107  0.00  0.00    +0.003 A 
ENDBRANCH  26  27
ENDBRANCH  25  26
ENDBRANCH  24  25
BRANCH  24  33
ATOM     33  C   UNL     1       0.130  -6.582   3.889  0.00  0.00    +0.120 C 
BRANCH  33  34
ATOM     34  C   UNL     1       0.634  -8.002   3.853  0.00  0.00    -0.033 A 
ATOM     35  C   UNL     1       0.222  -8.905   4.815  0.00  0.00    +0.008 A 
ATOM     36  C   UNL     1       0.682 -10.208   4.783  0.00  0.00    +0.038 A 
ATOM     37  C   UNL     1       1.558 -10.608   3.788  0.00  0.00    +0.123 A 
ATOM     38  C   UNL     1       1.970  -9.702   2.825  0.00  0.00    +0.038 A 
ATOM     39  C   UNL     1       1.503  -8.402   2.855  0.00  0.00    +0.008 A 
ATOM     40  F   UNL     1       2.009 -11.881   3.756  0.00  0.00    -0.205 F 
ENDBRANCH  33  34
ENDBRANCH  24  33
ENDBRANCH   1  24
TORSDOF 11
