REMARK  Name = ZINC04081957
REMARK  7 active torsions:
REMARK  status: ('A' for Active; 'I' for Inactive)
REMARK    1  A    between atoms: C_4  and  O_7
REMARK    2  A    between atoms: O_7  and  C_8
REMARK    3  A    between atoms: C_10  and  O_23
REMARK    4  A    between atoms: C_12  and  O_22
REMARK    5  A    between atoms: C_14  and  O_21
REMARK    6  A    between atoms: C_16  and  C_19
REMARK    7  A    between atoms: C_19  and  O_20
REMARK                            x       y       z     vdW  Elec       q    Type
REMARK                         _______ _______ _______ _____ _____    ______ ____
ROOT
ATOM      1  C   UNL     1      -1.350   5.832   0.047  0.00  0.00    +0.339 C 
ATOM      2  C   UNL     1      -1.183   7.334  -0.197  0.00  0.00    +0.214 C 
ATOM      3  C   UNL     1      -0.353   7.939   0.940  0.00  0.00    +0.180 C 
ATOM      4  C   UNL     1      -1.042   7.639   2.275  0.00  0.00    +0.177 C 
ATOM      5  C   UNL     1      -1.215   6.126   2.423  0.00  0.00    +0.179 C 
ATOM      6  O   UNL     1      -1.969   5.623   1.318  0.00  0.00    -0.331 OA
ENDROOT
BRANCH   4   7
ATOM      7  O   UNL     1      -2.323   8.273   2.304  0.00  0.00    -0.386 OA
ATOM      8  H   UNL     1      -2.288   9.235   2.210  0.00  0.00    +0.210 HD
ENDBRANCH   4   7
BRANCH   3   9
ATOM      9  O   UNL     1      -0.253   9.353   0.760  0.00  0.00    -0.386 OA
ATOM     10  H   UNL     1       0.168   9.614  -0.070  0.00  0.00    +0.210 HD
ENDBRANCH   3   9
BRANCH   2  11
ATOM     11  O   UNL     1      -0.513   7.544  -1.442  0.00  0.00    -0.383 OA
ATOM     12  H   UNL     1      -0.982   7.182  -2.206  0.00  0.00    +0.210 HD
ENDBRANCH   2  11
BRANCH   1  13
ATOM     13  O   UNL     1      -0.069   5.201   0.031  0.00  0.00    -0.461 OA
BRANCH  13  17
ATOM     14  C   UNL     1      -0.013   1.076   0.008  0.00  0.00    +0.000 A 
ATOM     15  C   UNL     1      -1.220   1.750   0.017  0.00  0.00    +0.004 A 
ATOM     16  C   UNL     1      -1.241   3.131   0.031  0.00  0.00    +0.046 A 
ATOM     17  C   UNL     1      -0.050   3.842   0.023  0.00  0.00    +0.124 A 
ATOM     18  C   UNL     1       1.160   3.163   0.008  0.00  0.00    +0.046 A 
ATOM     19  C   UNL     1       1.176   1.782   0.000  0.00  0.00    +0.004 A 
ENDBRANCH  13  17
ENDBRANCH   1  13
BRANCH   5  20
ATOM     20  C   UNL     1      -1.957   5.822   3.727  0.00  0.00    +0.190 C 
BRANCH  20  21
ATOM     21  O   UNL     1      -2.016   4.408   3.923  0.00  0.00    -0.392 OA
ATOM     22  H   UNL     1      -2.473   4.142   4.732  0.00  0.00    +0.210 HD
ENDBRANCH  20  21
ENDBRANCH   5  20
TORSDOF 7
