REMARK  Name = ZINC24761447
REMARK  9 active torsions:
REMARK  status: ('A' for Active; 'I' for Inactive)
REMARK    1  A    between atoms: C_1  and  C_2
REMARK    2  A    between atoms: C_2  and  C_3
REMARK    3  A    between atoms: C_6  and  C_9
REMARK    4  A    between atoms: C_11  and  C_14
REMARK    5  A    between atoms: N_19  and  C_22
REMARK    6  A    between atoms: C_22  and  C_24
REMARK    7  A    between atoms: C_22  and  C_31
REMARK    8  A    between atoms: C_31  and  O_33
REMARK    9  A    between atoms: O_33  and  C_34
REMARK                            x       y       z     vdW  Elec       q    Type
REMARK                         _______ _______ _______ _____ _____    ______ ____
ROOT
ATOM      1  C   UNL     1      -5.803  -0.705   1.581  0.00  0.00    +0.265 C 
ATOM      2  O   UNL     1      -6.894  -0.280   1.254  0.00  0.00    -0.268 OA
ATOM      3  N   UNL     1      -4.687  -0.196   1.022  0.00  0.00    -0.300 N 
ATOM      4  C   UNL     1      -3.354  -0.579   1.514  0.00  0.00    +0.089 C 
ATOM      5  C   UNL     1      -2.552   0.697   1.790  0.00  0.00    -0.058 C 
ATOM      6  N   UNL     1      -2.551   1.540   0.587  0.00  0.00    +0.393 N 
ATOM      7  C   UNL     1      -3.910   1.980   0.243  0.00  0.00    -0.058 C 
ATOM      8  C   UNL     1      -4.768   0.756  -0.096  0.00  0.00    +0.089 C 
ATOM      9  H   UNL     1      -2.175   0.931  -0.248  0.00  0.00    -0.080 HD
ENDROOT
BRANCH   1  12
ATOM     10  C   UNL     1      -4.456  -3.315   3.737  0.00  0.00    +0.109 A 
ATOM     11  N   UNL     1      -4.536  -2.357   2.833  0.00  0.00    -0.234 NA
ATOM     12  C   UNL     1      -5.701  -1.775   2.588  0.00  0.00    +0.133 A 
ATOM     13  C   UNL     1      -6.810  -2.179   3.289  0.00  0.00    +0.080 A 
ATOM     14  S   UNL     1      -6.146  -3.423   4.303  0.00  0.00    -0.075 S 
BRANCH  10  18
ATOM     15  C   UNL     1      -1.066  -5.555   4.978  0.00  0.00    -0.048 A 
ATOM     16  C   UNL     1      -2.301  -5.800   5.552  0.00  0.00    +0.004 A 
ATOM     17  C   UNL     1      -3.406  -5.076   5.153  0.00  0.00    +0.011 A 
ATOM     18  C   UNL     1      -3.276  -4.095   4.169  0.00  0.00    +0.007 A 
ATOM     19  C   UNL     1      -2.029  -3.857   3.591  0.00  0.00    +0.011 A 
ATOM     20  C   UNL     1      -0.930  -4.584   4.002  0.00  0.00    +0.004 A 
BRANCH  15  22
ATOM     21  C   UNL     1       0.265  -7.603   4.548  0.00  0.00    +0.009 C 
ATOM     22  C   UNL     1       0.137  -6.350   5.417  0.00  0.00    +0.032 C 
ENDBRANCH  15  22
ENDBRANCH  10  18
ENDBRANCH   1  12
BRANCH   6  23
ATOM     23  C   UNL     1      -1.652   2.691   0.751  0.00  0.00    +0.073 C 
BRANCH  23  24
ATOM     24  C   UNL     1      -1.678   3.530  -0.500  0.00  0.00    -0.050 A 
ATOM     25  C   UNL     1      -1.703   2.921  -1.741  0.00  0.00    +0.005 A 
ATOM     26  C   UNL     1      -1.733   3.690  -2.888  0.00  0.00    +0.038 A 
ATOM     27  C   UNL     1      -1.724   5.072  -2.796  0.00  0.00    +0.123 A 
ATOM     28  C   UNL     1      -1.693   5.681  -1.553  0.00  0.00    +0.038 A 
ATOM     29  C   UNL     1      -1.670   4.910  -0.406  0.00  0.00    +0.005 A 
ATOM     30  F   UNL     1      -1.746   5.825  -3.917  0.00  0.00    -0.205 F 
ENDBRANCH  23  24
BRANCH  23  31
ATOM     31  C   UNL     1      -0.249   2.200   0.998  0.00  0.00    +0.297 C 
ATOM     32  O   UNL     1      -0.021   1.014   1.034  0.00  0.00    -0.252 OA
BRANCH  31  33
ATOM     33  O   UNL     1       0.749   3.081   1.173  0.00  0.00    -0.469 OA
ATOM     34  C   UNL     1       2.076   2.537   1.400  0.00  0.00    +0.280 C 
ENDBRANCH  31  33
ENDBRANCH  23  31
ENDBRANCH   6  23
TORSDOF 7
