REMARK  Name = ZINC34998417
REMARK  12 active torsions:
REMARK  status: ('A' for Active; 'I' for Inactive)
REMARK    1  A    between atoms: C_1  and  C_2
REMARK    2  A    between atoms: C_2  and  C_3
REMARK    3  A    between atoms: C_3  and  C_4
REMARK    4  A    between atoms: C_4  and  N_5
REMARK    5  A    between atoms: C_13  and  C_15
REMARK    6  A    between atoms: C_16  and  C_18
REMARK    7  A    between atoms: C_18  and  C_20
REMARK    8  A    between atoms: C_18  and  N_23
REMARK    9  A    between atoms: C_20  and  C_21
REMARK   10  A    between atoms: C_20  and  C_22
REMARK   11  A    between atoms: N_23  and  S_24
REMARK   12  A    between atoms: S_24  and  C_27
REMARK                            x       y       z     vdW  Elec       q    Type
REMARK                         _______ _______ _______ _____ _____    ______ ____
ROOT
ATOM      1  N   UNL     1       3.686  -3.273  -2.715  0.00  0.00    -0.299 N 
ATOM      2  C   UNL     1       2.988  -4.366  -3.081  0.00  0.00    +0.303 C 
ATOM      3  O   UNL     1       2.312  -4.958  -2.263  0.00  0.00    -0.253 OA
ATOM      4  N   UNL     1       3.041  -4.803  -4.355  0.00  0.00    -0.280 N 
ATOM      5  C   UNL     1       3.935  -4.162  -5.330  0.00  0.00    +0.128 C 
ATOM      6  C   UNL     1       3.103  -3.713  -6.537  0.00  0.00    +0.127 C 
ATOM      7  N   UNL     1       2.268  -4.840  -6.977  0.00  0.00    -0.297 N 
ATOM      8  C   UNL     1       1.373  -5.480  -6.002  0.00  0.00    +0.130 C 
ATOM      9  C   UNL     1       2.209  -5.933  -4.793  0.00  0.00    +0.092 C 
ATOM     10  C   UNL     1       3.107  -7.106  -5.195  0.00  0.00    +0.030 C 
ATOM     11  C   UNL     1       2.320  -5.277  -8.251  0.00  0.00    +0.235 C 
ATOM     12  O   UNL     1       1.591  -6.175  -8.614  0.00  0.00    -0.274 OA
ATOM     13  H   UNL     1       4.278  -2.840  -3.350  0.00  0.00    +0.150 HD
ENDROOT
BRANCH   1  14
ATOM     14  C   UNL     1       3.550  -2.738  -1.357  0.00  0.00    +0.106 C 
BRANCH  14  15
ATOM     15  C   UNL     1       4.442  -1.505  -1.204  0.00  0.00    +0.018 C 
BRANCH  15  17
ATOM     16  C   UNL     1       5.193   0.287   0.368  0.00  0.00    +0.004 C 
ATOM     17  C   UNL     1       4.301  -0.947   0.214  0.00  0.00    -0.002 C 
ENDBRANCH  15  17
ENDBRANCH  14  15
ENDBRANCH   1  14
BRANCH  11  18
ATOM     18  C   UNL     1       3.285  -4.649  -9.223  0.00  0.00    +0.165 C 
BRANCH  18  19
ATOM     19  C   UNL     1       4.582  -5.460  -9.251  0.00  0.00    +0.010 C 
ATOM     20  C   UNL     1       5.280  -5.350  -7.894  0.00  0.00    +0.009 C 
ATOM     21  C   UNL     1       4.260  -6.927  -9.541  0.00  0.00    +0.009 C 
ENDBRANCH  18  19
BRANCH  18  22
ATOM     22  N   UNL     1       2.689  -4.635 -10.562  0.00  0.00    -0.178 NA
ATOM     23  H   UNL     1       2.241  -5.426 -10.901  0.00  0.00    +0.149 HD
BRANCH  22  24
ATOM     24  S   UNL     1       2.782  -3.271 -11.496  0.00  0.00    +0.059 S 
ATOM     25  O   UNL     1       2.142  -3.577 -12.727  0.00  0.00    -0.153 OA
ATOM     26  O   UNL     1       2.372  -2.187 -10.673  0.00  0.00    -0.153 OA
BRANCH  24  27
ATOM     27  C   UNL     1       4.485  -3.007 -11.865  0.00  0.00    +0.105 A 
ATOM     28  C   UNL     1       5.274  -2.272 -10.999  0.00  0.00    +0.029 A 
ATOM     29  C   UNL     1       6.609  -2.065 -11.288  0.00  0.00    +0.017 A 
ATOM     30  C   UNL     1       7.157  -2.593 -12.444  0.00  0.00    +0.018 A 
ATOM     31  C   UNL     1       6.367  -3.328 -13.309  0.00  0.00    +0.017 A 
ATOM     32  C   UNL     1       5.032  -3.539 -13.017  0.00  0.00    +0.029 A 
ATOM     33 BR   UNL     1       8.984  -2.310 -12.840  0.00  0.00    -0.050 Br
ENDBRANCH  24  27
ENDBRANCH  22  24
ENDBRANCH  18  22
ENDBRANCH  11  18
TORSDOF 8
