REMARK  Name = ZINC35948882
REMARK  9 active torsions:
REMARK  status: ('A' for Active; 'I' for Inactive)
REMARK    1  A    between atoms: C_1  and  C_2
REMARK    2  A    between atoms: C_2  and  C_3
REMARK    3  A    between atoms: C_2  and  C_4
REMARK    4  A    between atoms: C_2  and  N_5
REMARK    5  A    between atoms: N_8  and  C_9
REMARK    6  A    between atoms: N_8  and  C_10
REMARK    7  A    between atoms: C_10  and  C_11
REMARK    8  A    between atoms: C_14  and  C_24
REMARK    9  A    between atoms: C_17  and  C_19
REMARK                            x       y       z     vdW  Elec       q    Type
REMARK                         _______ _______ _______ _____ _____    ______ ____
ROOT
ATOM      1  C   UNL     1       4.909  -1.223  -2.162  0.00  0.00    +0.253 C 
ATOM      2  O   UNL     1       4.439  -2.176  -1.577  0.00  0.00    -0.272 OA
ATOM      3  N   UNL     1       6.246  -1.085  -2.261  0.00  0.00    -0.184 N 
ATOM      4  C   UNL     1       7.245  -2.016  -1.712  0.00  0.00    +0.138 C 
ATOM      5  C   UNL     1       8.591  -1.380  -2.111  0.00  0.00    +0.087 C 
ATOM      6  C   UNL     1       8.195  -0.127  -2.860  0.00  0.00    +0.075 C 
ATOM      7  N   UNL     1       6.908  -0.041  -2.904  0.00  0.00    -0.180 NA
ENDROOT
BRANCH   4   8
ATOM      8  C   UNL     1       7.120  -2.104  -0.213  0.00  0.00    -0.006 A 
ATOM      9  C   UNL     1       6.446  -1.118   0.484  0.00  0.00    +0.007 A 
ATOM     10  C   UNL     1       6.332  -1.199   1.859  0.00  0.00    +0.000 A 
ATOM     11  C   UNL     1       6.890  -2.266   2.538  0.00  0.00    +0.001 A 
ATOM     12  C   UNL     1       7.564  -3.252   1.843  0.00  0.00    +0.020 A 
ATOM     13  C   UNL     1       7.674  -3.175   0.465  0.00  0.00    +0.046 A 
ATOM     14 CL   UNL     1       8.514  -4.416  -0.410  0.00  0.00    -0.083 Cl
ENDBRANCH   4   8
BRANCH   6  15
ATOM     15  C   UNL     1       9.129   0.836  -3.451  0.00  0.00    +0.035 A 
ATOM     16  C   UNL     1       8.857   2.003  -4.144  0.00  0.00    +0.017 A 
ATOM     17  C   UNL     1       9.915   2.751  -4.607  0.00  0.00    +0.008 A 
ATOM     18  C   UNL     1      11.183   2.324  -4.372  0.00  0.00    +0.046 A 
ATOM     19  S   UNL     1      10.915   0.815  -3.458  0.00  0.00    -0.095 S 
ENDBRANCH   6  15
BRANCH   1  20
ATOM     20  C   UNL     1       3.998  -0.193  -2.779  0.00  0.00    +0.206 C 
BRANCH  20  24
ATOM     21  N   UNL     1       0.688  -0.476  -1.203  0.00  0.00    -0.294 N 
ATOM     22  C   UNL     1       1.972  -0.132  -1.427  0.00  0.00    +0.303 C 
ATOM     23  O   UNL     1       2.561   0.570  -0.628  0.00  0.00    -0.253 OA
ATOM     24  N   UNL     1       2.602  -0.567  -2.536  0.00  0.00    -0.280 N 
ATOM     25  C   UNL     1       1.893  -1.414  -3.498  0.00  0.00    +0.134 C 
ATOM     26  H   UNL     1       0.218  -1.037  -1.840  0.00  0.00    +0.151 HD
BRANCH  21  28
ATOM     27  C   UNL     1      -0.019   1.526   0.010  0.00  0.00    +0.031 C 
ATOM     28  C   UNL     1       0.002  -0.004   0.002  0.00  0.00    +0.028 C 
ATOM     29  C   UNL     1       0.742  -0.511   1.242  0.00  0.00    +0.031 C 
ATOM     30  C   UNL     1      -1.433  -0.534   0.013  0.00  0.00    +0.031 C 
ENDBRANCH  21  28
ENDBRANCH  20  24
ENDBRANCH   1  20
TORSDOF 5
