REMARK  Name = ZINC11787579
REMARK  6 active torsions:
REMARK  status: ('A' for Active; 'I' for Inactive)
REMARK    1  A    between atoms: C_5  and  C_7
REMARK    2  A    between atoms: C_7  and  C_8
REMARK    3  A    between atoms: C_8  and  N_53
REMARK    4  A    between atoms: C_9  and  N_53
REMARK    5  A    between atoms: N_20  and  C_23
REMARK    6  A    between atoms: C_23  and  C_24
REMARK                            x       y       z     vdW  Elec       q    Type
REMARK                         _______ _______ _______ _____ _____    ______ ____
ROOT
ATOM      1  C   UNL     1      -2.219   1.207   1.188  0.00  0.00    -0.067 C 
ATOM      2  C   UNL     1      -0.733   1.581   1.262  0.00  0.00    -0.011 C 
ATOM      3  C   UNL     1      -0.013   1.086   0.008  0.00  0.00    +0.035 C 
ATOM      4  C   UNL     1      -0.755   1.594  -1.225  0.00  0.00    -0.023 A 
ATOM      5  C   UNL     1      -2.037   2.020  -1.128  0.00  0.00    -0.006 A 
ATOM      6  S   UNL     1      -2.489   2.511  -2.773  0.00  0.00    -0.073 S 
ATOM      7  C   UNL     1      -0.965   2.144  -3.584  0.00  0.00    +0.116 A 
ATOM      8  C   UNL     1      -0.149   1.649  -2.543  0.00  0.00    +0.076 A 
ATOM      9  C   UNL     1       1.186   1.254  -2.893  0.00  0.00    +0.263 A 
ATOM     10  O   UNL     1       1.969   0.814  -2.070  0.00  0.00    -0.267 OA
ATOM     11  N   UNL     1       1.519   1.401  -4.198  0.00  0.00    -0.293 N 
ATOM     12  C   UNL     1       0.664   1.888  -5.129  0.00  0.00    +0.203 A 
ATOM     13  N   UNL     1      -0.565   2.261  -4.847  0.00  0.00    -0.230 NA
ATOM     14  C   UNL     1      -2.888   2.064   0.103  0.00  0.00    +0.027 C 
ENDROOT
BRANCH   1  15
ATOM     15  N   UNL     1      -2.854   1.474   2.492  0.00  0.00    +0.381 N 
ATOM     16  H   UNL     1      -2.187   1.262   3.243  0.00  0.00    -0.086 HD
ATOM     17  H   UNL     1      -3.122   2.464   2.542  0.00  0.00    -0.086 HD
BRANCH  15  18
ATOM     18  C   UNL     1      -4.056   0.636   2.657  0.00  0.00    -0.077 C 
BRANCH  18  19
ATOM     19  C   UNL     1      -4.692   0.934   4.017  0.00  0.00    +0.017 C 
BRANCH  19  24
ATOM     20  C   UNL     1      -8.295  -0.194   4.034  0.00  0.00    +0.000 A 
ATOM     21  C   UNL     1      -8.179  -1.484   4.520  0.00  0.00    +0.001 A 
ATOM     22  C   UNL     1      -6.935  -1.991   4.843  0.00  0.00    +0.020 A 
ATOM     23  C   UNL     1      -5.805  -1.209   4.680  0.00  0.00    +0.044 A 
ATOM     24  C   UNL     1      -5.922   0.081   4.194  0.00  0.00    -0.031 A 
ATOM     25  C   UNL     1      -7.167   0.589   3.876  0.00  0.00    +0.005 A 
ATOM     26 CL   UNL     1      -4.242  -1.846   5.086  0.00  0.00    -0.083 Cl
ENDBRANCH  19  24
ENDBRANCH  18  19
ENDBRANCH  15  18
ENDBRANCH   1  15
BRANCH  11  27
ATOM     27  C   UNL     1       2.867   1.016  -4.622  0.00  0.00    +0.181 C 
BRANCH  27  28
ATOM     28  C   UNL     1       2.869  -0.434  -5.034  0.00  0.00    +0.061 A 
ATOM     29  C   UNL     1       2.710  -0.765  -6.366  0.00  0.00    +0.025 A 
ATOM     30  C   UNL     1       2.713  -2.102  -6.734  0.00  0.00    +0.003 A 
ATOM     31  C   UNL     1       2.878  -3.059  -5.744  0.00  0.00    +0.020 A 
ATOM     32  C   UNL     1       3.031  -2.652  -4.433  0.00  0.00    +0.111 A 
ATOM     33  N   UNL     1       3.028  -1.371  -4.120  0.00  0.00    -0.258 NA
ENDBRANCH  27  28
ENDBRANCH  11  27
TORSDOF 6
