REMARK  Name = ZINC66730899
REMARK  9 active torsions:
REMARK  status: ('A' for Active; 'I' for Inactive)
REMARK    1  A    between atoms: C_1  and  C_2
REMARK    2  A    between atoms: C_4  and  N_9
REMARK    3  A    between atoms: C_6  and  C_8
REMARK    4  A    between atoms: C_13  and  O_16
REMARK    5  A    between atoms: O_16  and  C_17
REMARK    6  A    between atoms: C_17  and  C_19
REMARK    7  A    between atoms: C_19  and  C_21
REMARK    8  A    between atoms: C_19  and  N_26
REMARK    9  A    between atoms: C_27  and  C_29
REMARK                            x       y       z     vdW  Elec       q    Type
REMARK                         _______ _______ _______ _____ _____    ______ ____
ROOT
ATOM      1  N   UNL     1      -0.780  -3.279  -2.274  0.00  0.00    -0.312 N 
ATOM      2  C   UNL     1      -1.044  -4.724  -2.249  0.00  0.00    +0.107 C 
ATOM      3  C   UNL     1      -2.230  -5.024  -3.172  0.00  0.00    +0.023 C 
ATOM      4  C   UNL     1      -1.942  -4.461  -4.566  0.00  0.00    +0.048 C 
ATOM      5  C   UNL     1      -1.769  -2.943  -4.479  0.00  0.00    +0.194 C 
ATOM      6  C   UNL     1      -0.584  -2.619  -3.572  0.00  0.00    +0.151 C 
ENDROOT
BRANCH   1  10
ATOM      7  C   UNL     1      -0.073   0.969   0.111  0.00  0.00    +0.063 C 
ATOM      8  C   UNL     1      -0.384  -0.506   0.082  0.00  0.00    +0.017 A 
ATOM      9  C   UNL     1      -0.430  -1.186  -1.119  0.00  0.00    +0.064 A 
ATOM     10  C   UNL     1      -0.721  -2.552  -1.096  0.00  0.00    +0.125 A 
ATOM     11  N   UNL     1      -0.941  -3.143   0.075  0.00  0.00    -0.220 NA
ATOM     12  C   UNL     1      -0.887  -2.454   1.196  0.00  0.00    +0.106 A 
ATOM     13  N   UNL     1      -0.610  -1.166   1.209  0.00  0.00    -0.347 N 
ATOM     14  C   UNL     1      -1.143  -3.161   2.503  0.00  0.00    +0.086 C 
ATOM     15  H   UNL     1      -0.575  -0.693   2.055  0.00  0.00    +0.167 HD
ENDBRANCH   1  10
BRANCH   5  16
ATOM     16  O   UNL     1      -1.531  -2.415  -5.785  0.00  0.00    -0.458 OA
BRANCH  16  17
ATOM     17  C   UNL     1      -2.607  -2.047  -6.499  0.00  0.00    +0.328 C 
ATOM     18  O   UNL     1      -3.713  -2.169  -6.030  0.00  0.00    -0.249 OA
BRANCH  17  19
ATOM     19  C   UNL     1      -2.434  -1.481  -7.885  0.00  0.00    +0.185 C 
BRANCH  19  20
ATOM     20  C   UNL     1      -1.736  -2.513  -8.774  0.00  0.00    +0.020 C 
ATOM     21  C   UNL     1      -0.279  -2.711  -8.309  0.00  0.00    +0.006 C 
ATOM     22  C   UNL     1       0.517  -2.902  -9.624  0.00  0.00    +0.000 C 
ATOM     23  C   UNL     1      -0.174  -1.907 -10.589  0.00  0.00    +0.000 C 
ATOM     24  C   UNL     1      -1.670  -2.001 -10.223  0.00  0.00    +0.006 C 
ENDBRANCH  19  20
BRANCH  19  25
ATOM     25  N   UNL     1      -3.747  -1.160  -8.449  0.00  0.00    -0.302 N 
ATOM     26  C   UNL     1      -4.313   0.038  -8.199  0.00  0.00    +0.211 C 
ATOM     27  O   UNL     1      -3.779   0.813  -7.434  0.00  0.00    -0.276 OA
ATOM     28  C   UNL     1      -5.609   0.413  -8.869  0.00  0.00    +0.109 C 
ATOM     29  H   UNL     1      -4.210  -1.808  -9.002  0.00  0.00    +0.150 HD
ENDBRANCH  19  25
ENDBRANCH  17  19
ENDBRANCH  16  17
ENDBRANCH   5  16
TORSDOF 6
