REMARK  Name = ZINC65595215
REMARK  8 active torsions:
REMARK  status: ('A' for Active; 'I' for Inactive)
REMARK    1  A    between atoms: C_1  and  C_2
REMARK    2  A    between atoms: C_2  and  C_3
REMARK    3  A    between atoms: C_3  and  C_4
REMARK    4  A    between atoms: C_4  and  C_5
REMARK    5  A    between atoms: C_5  and  C_6
REMARK    6  A    between atoms: C_5  and  N_22
REMARK    7  A    between atoms: C_16  and  N_17
REMARK    8  A    between atoms: C_18  and  C_20
REMARK                            x       y       z     vdW  Elec       q    Type
REMARK                         _______ _______ _______ _____ _____    ______ ____
ROOT
ATOM      1  C   UNL     1       1.593  -4.007  -2.480  0.00  0.00    +0.236 C 
ATOM      2  O   UNL     1       0.815  -4.707  -3.095  0.00  0.00    -0.274 OA
ATOM      3  N   UNL     1       2.569  -4.572  -1.742  0.00  0.00    -0.295 N 
ATOM      4  C   UNL     1       2.722  -6.035  -1.666  0.00  0.00    +0.113 C 
ATOM      5  C   UNL     1       4.067  -6.399  -2.292  0.00  0.00    +0.056 C 
ATOM      6  C   UNL     1       5.163  -5.511  -1.764  0.00  0.00    -0.020 A 
ATOM      7  C   UNL     1       4.918  -4.292  -1.176  0.00  0.00    -0.025 A 
ATOM      8  C   UNL     1       5.977  -3.516  -0.725  0.00  0.00    +0.005 A 
ATOM      9  C   UNL     1       7.278  -3.960  -0.850  0.00  0.00    +0.002 A 
ATOM     10  C   UNL     1       7.532  -5.187  -1.430  0.00  0.00    +0.023 A 
ATOM     11  C   UNL     1       6.478  -5.962  -1.887  0.00  0.00    +0.037 A 
ATOM     12  C   UNL     1       3.525  -3.755  -0.988  0.00  0.00    +0.143 C 
ENDROOT
BRANCH  11  13
ATOM     13  N   UNL     1       6.734  -7.205  -2.476  0.00  0.00    -0.285 N 
ATOM     14  C   UNL     1       7.863  -7.876  -2.172  0.00  0.00    +0.214 C 
ATOM     15  O   UNL     1       8.608  -7.451  -1.314  0.00  0.00    -0.276 OA
ATOM     16  C   UNL     1       8.200  -9.153  -2.897  0.00  0.00    +0.109 C 
ATOM     17  H   UNL     1       6.099  -7.585  -3.104  0.00  0.00    +0.155 HD
ENDBRANCH  11  13
BRANCH   1  18
ATOM     18  C   UNL     1       1.468  -2.507  -2.542  0.00  0.00    +0.161 C 
BRANCH  18  19
ATOM     19  N   UNL     1       0.692  -2.130  -3.726  0.00  0.00    -0.288 N 
ATOM     20  C   UNL     1      -0.574  -2.568  -3.870  0.00  0.00    +0.298 C 
ATOM     21  O   UNL     1      -1.073  -3.277  -3.017  0.00  0.00    -0.253 OA
ATOM     22  N   UNL     1      -1.288  -2.221  -4.959  0.00  0.00    -0.313 N 
ATOM     23  H   UNL     1       1.090  -1.564  -4.407  0.00  0.00    +0.151 HD
ATOM     24  H   UNL     1      -0.890  -1.656  -5.640  0.00  0.00    +0.146 HD
ATOM     25  H   UNL     1      -2.199  -2.537  -5.063  0.00  0.00    +0.146 HD
ENDBRANCH  18  19
BRANCH  18  26
ATOM     26  C   UNL     1       0.757  -2.002  -1.284  0.00  0.00    +0.032 C 
BRANCH  26  27
ATOM     27  C   UNL     1       0.740  -0.472  -1.287  0.00  0.00    +0.002 C 
BRANCH  27  29
ATOM     28  C   UNL     1       0.013   1.562  -0.032  0.00  0.00    +0.004 C 
ATOM     29  C   UNL     1       0.029   0.032  -0.030  0.00  0.00    -0.003 C 
ENDBRANCH  27  29
ENDBRANCH  26  27
ENDBRANCH  18  26
ENDBRANCH   1  18
TORSDOF 6
