REMARK  Name = ZINC64053308
REMARK  8 active torsions:
REMARK  status: ('A' for Active; 'I' for Inactive)
REMARK    1  A    between atoms: C_1  and  C_2
REMARK    2  A    between atoms: C_7  and  C_13
REMARK    3  A    between atoms: C_8  and  C_12
REMARK    4  A    between atoms: C_13  and  N_14
REMARK    5  A    between atoms: C_18  and  C_20
REMARK    6  A    between atoms: C_18  and  C_28
REMARK    7  A    between atoms: C_20  and  C_21
REMARK    8  A    between atoms: C_28  and  O_29
REMARK                            x       y       z     vdW  Elec       q    Type
REMARK                         _______ _______ _______ _____ _____    ______ ____
ROOT
ATOM      1  N   UNL     1       0.239  -4.850   1.423  0.00  0.00    +0.383 N 
ATOM      2  C   UNL     1       1.206  -4.727   0.326  0.00  0.00    -0.078 C 
ATOM      3  C   UNL     1       0.733  -5.555  -0.871  0.00  0.00    -0.018 C 
ATOM      4  C   UNL     1       0.616  -7.024  -0.454  0.00  0.00    +0.006 C 
ATOM      5  C   UNL     1      -0.338  -7.131   0.739  0.00  0.00    -0.017 C 
ATOM      6  C   UNL     1       0.174  -6.244   1.876  0.00  0.00    -0.069 C 
ATOM      7  H   UNL     1      -0.672  -4.560   1.100  0.00  0.00    -0.081 HD
ENDROOT
BRANCH   1   8
ATOM      8  C   UNL     1       0.656  -3.992   2.540  0.00  0.00    -0.045 C 
BRANCH   8  15
ATOM      9  C   UNL     1       1.603   1.908   0.501  0.00  0.00    +0.046 C 
ATOM     10  C   UNL     1       2.059   0.507   0.817  0.00  0.00    -0.027 A 
ATOM     11  C   UNL     1       3.345   0.155   0.604  0.00  0.00    +0.005 A 
ATOM     12  C   UNL     1       3.833  -1.130   0.876  0.00  0.00    +0.001 A 
ATOM     13  C   UNL     1       3.037  -2.104   1.372  0.00  0.00    +0.010 A 
ATOM     14  C   UNL     1       1.623  -1.803   1.631  0.00  0.00    -0.002 A 
ATOM     15  C   UNL     1       0.602  -2.548   2.113  0.00  0.00    -0.055 C 
ATOM     16  C   UNL     1      -0.606  -1.638   2.135  0.00  0.00    +0.101 C 
ATOM     17  N   UNL     1      -0.143  -0.343   1.624  0.00  0.00    -0.378 N 
ATOM     18  C   UNL     1       1.133  -0.437   1.341  0.00  0.00    +0.046 A 
ATOM     19  C   UNL     1      -1.706  -2.200   1.232  0.00  0.00    +0.035 C 
ATOM     20  H   UNL     1      -0.690   0.451   1.517  0.00  0.00    +0.160 HD
ENDBRANCH   8  15
ENDBRANCH   1   8
BRANCH   5  21
ATOM     21  C   UNL     1      -1.734  -6.668   0.320  0.00  0.00    +0.045 C 
BRANCH  21  22
ATOM     22  C   UNL     1      -2.283  -7.608  -0.722  0.00  0.00    -0.012 A 
ATOM     23  C   UNL     1      -1.921  -7.458  -2.048  0.00  0.00    +0.006 A 
ATOM     24  C   UNL     1      -2.424  -8.320  -3.004  0.00  0.00    +0.000 A 
ATOM     25  C   UNL     1      -3.291  -9.333  -2.636  0.00  0.00    +0.003 A 
ATOM     26  C   UNL     1      -3.654  -9.485  -1.311  0.00  0.00    +0.038 A 
ATOM     27  C   UNL     1      -3.146  -8.625  -0.352  0.00  0.00    +0.127 A 
ATOM     28  F   UNL     1      -3.497  -8.775   0.944  0.00  0.00    -0.205 F 
ENDBRANCH  21  22
ENDBRANCH   5  21
BRANCH   5  29
ATOM     29  C   UNL     1      -0.402  -8.584   1.214  0.00  0.00    +0.161 C 
BRANCH  29  30
ATOM     30  O   UNL     1      -0.724  -9.432   0.109  0.00  0.00    -0.395 OA
ATOM     31  H   UNL     1      -0.781 -10.370   0.337  0.00  0.00    +0.209 HD
ENDBRANCH  29  30
ENDBRANCH   5  29
TORSDOF 6
