REMARK  Name = ZINC36375418
REMARK  12 active torsions:
REMARK  status: ('A' for Active; 'I' for Inactive)
REMARK    1  A    between atoms: C_1  and  C_2
REMARK    2  A    between atoms: C_4  and  O_36
REMARK    3  A    between atoms: C_8  and  C_31
REMARK    4  A    between atoms: C_13  and  C_30
REMARK    5  A    between atoms: C_15  and  O_29
REMARK    6  A    between atoms: C_19  and  C_24
REMARK    7  A    between atoms: C_24  and  C_25
REMARK    8  A    between atoms: C_25  and  C_27
REMARK    9  A    between atoms: C_25  and  O_28
REMARK   10  A    between atoms: C_31  and  C_32
REMARK   11  A    between atoms: C_32  and  C_34
REMARK   12  A    between atoms: C_32  and  O_35
REMARK                            x       y       z     vdW  Elec       q    Type
REMARK                         _______ _______ _______ _____ _____    ______ ____
ROOT
ATOM      1  C   UNL     1       1.222   1.802   0.615  0.00  0.00    +0.022 C 
ATOM      2  C   UNL     1       1.000   0.314   0.337  0.00  0.00    +0.123 C 
ATOM      3  C   UNL     1      -0.494   0.049   0.141  0.00  0.00    +0.128 C 
ATOM      4  C   UNL     1      -0.763  -0.294  -1.325  0.00  0.00    +0.036 C 
ATOM      5  C   UNL     1      -1.660  -1.532  -1.403  0.00  0.00    +0.047 C 
ATOM      6  C   UNL     1      -1.148  -2.464  -2.503  0.00  0.00    +0.179 C 
ATOM      7  O   UNL     1      -1.140  -3.809  -2.022  0.00  0.00    -0.461 OA
ATOM      8  C   UNL     1       0.008  -4.494  -2.145  0.00  0.00    +0.313 C 
ATOM      9  O   UNL     1       0.628  -4.452  -3.181  0.00  0.00    -0.250 OA
ATOM     10  C   UNL     1       0.524  -5.313  -0.990  0.00  0.00    +0.123 C 
ATOM     11  C   UNL     1       2.011  -5.023  -0.783  0.00  0.00    +0.128 C 
ATOM     12  C   UNL     1       2.254  -4.618   0.673  0.00  0.00    +0.036 C 
ATOM     13  C   UNL     1       3.162  -3.387   0.715  0.00  0.00    +0.047 C 
ATOM     14  C   UNL     1       2.736  -2.479   1.871  0.00  0.00    +0.179 C 
ATOM     15  O   UNL     1       2.689  -1.124   1.421  0.00  0.00    -0.461 OA
ATOM     16  C   UNL     1       1.506  -0.495   1.503  0.00  0.00    +0.313 C 
ATOM     17  O   UNL     1       0.846  -0.579   2.512  0.00  0.00    -0.250 OA
ATOM     18  C   UNL     1       0.332  -6.800  -1.294  0.00  0.00    +0.022 C 
ENDROOT
BRANCH  11  19
ATOM     19  O   UNL     1       2.772  -6.194  -1.085  0.00  0.00    -0.391 OA
ATOM     20  H   UNL     1       3.727  -6.082  -0.975  0.00  0.00    +0.210 HD
ENDBRANCH  11  19
BRANCH   3  21
ATOM     21  O   UNL     1      -0.896  -1.045   0.968  0.00  0.00    -0.391 OA
ATOM     22  H   UNL     1      -0.466  -1.883   0.748  0.00  0.00    +0.210 HD
ENDBRANCH   3  21
BRANCH  14  23
ATOM     23  C   UNL     1       1.351  -2.901   2.367  0.00  0.00    +0.075 C 
BRANCH  23  24
ATOM     24  C   UNL     1       1.496  -4.044   3.374  0.00  0.00    +0.115 C 
ATOM     25  C   UNL     1       0.132  -4.352   3.995  0.00  0.00    +0.038 C 
BRANCH  24  26
ATOM     26  O   UNL     1       1.988  -5.207   2.705  0.00  0.00    -0.392 OA
ATOM     27  H   UNL     1       1.336  -5.641   2.139  0.00  0.00    +0.210 HD
ENDBRANCH  24  26
ENDBRANCH  23  24
ENDBRANCH  14  23
BRANCH   6  28
ATOM     28  C   UNL     1      -2.066  -2.364  -3.723  0.00  0.00    +0.075 C 
BRANCH  28  29
ATOM     29  C   UNL     1      -1.486  -3.199  -4.867  0.00  0.00    +0.115 C 
ATOM     30  C   UNL     1      -2.464  -3.200  -6.044  0.00  0.00    +0.038 C 
BRANCH  29  31
ATOM     31  O   UNL     1      -0.241  -2.637  -5.284  0.00  0.00    -0.392 OA
ATOM     32  H   UNL     1       0.185  -3.116  -6.008  0.00  0.00    +0.210 HD
ENDBRANCH  29  31
ENDBRANCH  28  29
ENDBRANCH   6  28
TORSDOF 8
