REMARK  Name = ZINC67050664
REMARK  8 active torsions:
REMARK  status: ('A' for Active; 'I' for Inactive)
REMARK    1  A    between atoms: C_1  and  C_2
REMARK    2  A    between atoms: C_2  and  N_3
REMARK    3  A    between atoms: C_4  and  C_9
REMARK    4  A    between atoms: C_9  and  N_10
REMARK    5  A    between atoms: C_11  and  C_13
REMARK    6  A    between atoms: C_13  and  C_14
REMARK    7  A    between atoms: C_13  and  C_15
REMARK    8  A    between atoms: C_13  and  C_16
REMARK                            x       y       z     vdW  Elec       q    Type
REMARK                         _______ _______ _______ _____ _____    ______ ____
ROOT
ATOM      1  N   UNL     1      -2.728  -1.040   3.466  0.00  0.00    -0.307 N 
ATOM      2  C   UNL     1      -2.536  -0.983   4.799  0.00  0.00    +0.223 C 
ATOM      3  O   UNL     1      -1.468  -0.618   5.243  0.00  0.00    -0.275 OA
ATOM      4  H   UNL     1      -3.583  -1.333   3.112  0.00  0.00    +0.149 HD
ENDROOT
BRANCH   2   5
ATOM      5  C   UNL     1      -3.649  -1.372   5.738  0.00  0.00    +0.066 C 
ATOM      6  C   UNL     1      -4.817  -0.397   5.577  0.00  0.00    +0.025 C 
ATOM      7  C   UNL     1      -4.120  -2.791   5.411  0.00  0.00    +0.025 C 
BRANCH   5   8
ATOM      8  C   UNL     1      -3.147  -1.325   7.158  0.00  0.00    -0.032 A 
ATOM      9  C   UNL     1      -2.788  -0.116   7.724  0.00  0.00    +0.006 A 
ATOM     10  C   UNL     1      -2.327  -0.071   9.026  0.00  0.00    +0.022 A 
ATOM     11  C   UNL     1      -2.226  -1.236   9.765  0.00  0.00    +0.059 A 
ATOM     12  C   UNL     1      -2.586  -2.447   9.199  0.00  0.00    +0.060 A 
ATOM     13  C   UNL     1      -3.052  -2.489   7.897  0.00  0.00    +0.026 A 
ATOM     14 CL   UNL     1      -2.459  -3.910  10.124  0.00  0.00    -0.082 Cl
ATOM     15 CL   UNL     1      -1.647  -1.180  11.400  0.00  0.00    -0.082 Cl
ENDBRANCH   5   8
ENDBRANCH   2   5
BRANCH   1  16
ATOM     16  C   UNL     1      -1.647  -0.662   2.554  0.00  0.00    +0.180 C 
BRANCH  16  18
ATOM     17  N   UNL     1      -1.366  -0.549   0.009  0.00  0.00    -0.306 N 
ATOM     18  C   UNL     1      -2.115  -0.814   1.129  0.00  0.00    +0.149 A 
ATOM     19  N   UNL     1      -3.289  -1.217   0.761  0.00  0.00    -0.157 NA
ATOM     20  N   UNL     1      -3.329  -1.222  -0.640  0.00  0.00    -0.254 N 
ATOM     21  C   UNL     1      -2.125  -0.798  -1.077  0.00  0.00    +0.176 A 
ATOM     22  S   UNL     1      -1.648  -0.614  -2.711  0.00  0.00    -0.011 S 
ATOM     23  H   UNL     1      -4.084  -1.479  -1.192  0.00  0.00    +0.191 HD
BRANCH  17  25
ATOM     24  C   UNL     1       0.030   1.459   0.008  0.00  0.00    +0.027 C 
ATOM     25  C   UNL     1       0.018  -0.071  -0.003  0.00  0.00    +0.122 C 
ENDBRANCH  17  25
ENDBRANCH  16  18
ENDBRANCH   1  16
TORSDOF 5
