REMARK  Name = ZINC16694995
REMARK  9 active torsions:
REMARK  status: ('A' for Active; 'I' for Inactive)
REMARK    1  A    between atoms: C_1  and  C_2
REMARK    2  A    between atoms: C_2  and  C_27
REMARK    3  A    between atoms: N_5  and  C_9
REMARK    4  A    between atoms: C_9  and  C_10
REMARK    5  A    between atoms: C_16  and  S_18
REMARK    6  A    between atoms: S_18  and  C_19
REMARK    7  A    between atoms: C_19  and  C_20
REMARK    8  A    between atoms: C_27  and  C_28
REMARK    9  A    between atoms: C_28  and  C_29
REMARK                            x       y       z     vdW  Elec       q    Type
REMARK                         _______ _______ _______ _____ _____    ______ ____
ROOT
ATOM      1  C   UNL     1       1.328 -10.926  -1.234  0.00  0.00    +0.214 C 
ENDROOT
BRANCH   1   6
ATOM      2  C   UNL     1       0.273 -12.073   3.198  0.00  0.00    +0.041 C 
ATOM      3  C   UNL     1       0.747 -12.784   1.929  0.00  0.00    +0.110 C 
ATOM      4  C   UNL     1       0.245 -12.063   0.694  0.00  0.00    +0.247 C 
ATOM      5  O   UNL     1      -0.909 -11.881   0.371  0.00  0.00    -0.273 OA
ATOM      6  N   UNL     1       1.349 -11.667   0.030  0.00  0.00    -0.215 N 
ATOM      7  C   UNL     1       2.467 -12.037   0.665  0.00  0.00    +0.310 C 
ATOM      8  O   UNL     1       3.587 -11.797   0.258  0.00  0.00    -0.252 OA
ATOM      9  N   UNL     1       2.213 -12.702   1.807  0.00  0.00    -0.285 N 
ATOM     10  H   UNL     1       2.867 -13.061   2.426  0.00  0.00    +0.151 HD
BRANCH   3  11
ATOM     11  C   UNL     1       0.284 -14.243   1.927  0.00  0.00    +0.039 C 
BRANCH  11  12
ATOM     12  C   UNL     1       0.804 -14.945   3.183  0.00  0.00    +0.037 C 
BRANCH  12  13
ATOM     13  C   UNL     1       0.348 -16.381   3.180  0.00  0.00    -0.047 A 
ATOM     14  C   UNL     1      -0.853 -16.726   3.772  0.00  0.00    +0.003 A 
ATOM     15  C   UNL     1      -1.273 -18.043   3.765  0.00  0.00    +0.000 A 
ATOM     16  C   UNL     1      -0.488 -19.016   3.176  0.00  0.00    +0.000 A 
ATOM     17  C   UNL     1       0.716 -18.672   2.590  0.00  0.00    +0.000 A 
ATOM     18  C   UNL     1       1.134 -17.355   2.592  0.00  0.00    +0.003 A 
ENDBRANCH  12  13
ENDBRANCH  11  12
ENDBRANCH   3  11
ENDBRANCH   1   6
BRANCH   1  19
ATOM     19  C   UNL     1       1.311  -9.447  -0.949  0.00  0.00    +0.237 C 
ATOM     20  O   UNL     1       1.317  -9.049   0.197  0.00  0.00    -0.274 OA
ATOM     21  N   UNL     1       1.290  -8.565  -1.968  0.00  0.00    -0.262 N 
ATOM     22  C   UNL     1       1.275  -7.197  -1.705  0.00  0.00    +0.189 A 
ATOM     23  N   UNL     1       1.278  -6.553  -0.549  0.00  0.00    -0.125 NA
ATOM     24  N   UNL     1       1.262  -5.294  -0.486  0.00  0.00    -0.133 NA
ATOM     25  C   UNL     1       1.242  -4.537  -1.573  0.00  0.00    +0.160 A 
ATOM     26  S   UNL     1       1.239  -5.808  -2.835  0.00  0.00    -0.024 S 
ATOM     27  H   UNL     1       1.286  -8.882  -2.885  0.00  0.00    +0.157 HD
BRANCH  25  28
ATOM     28  S   UNL     1       1.219  -2.783  -1.733  0.00  0.00    -0.092 S 
BRANCH  28  29
ATOM     29  C   UNL     1       1.227  -2.186  -0.020  0.00  0.00    +0.111 C 
BRANCH  29  30
ATOM     30  C   UNL     1       1.208  -0.679  -0.013  0.00  0.00    -0.037 A 
ATOM     31  C   UNL     1       0.002  -0.004   0.002  0.00  0.00    +0.007 A 
ATOM     32  C   UNL     1      -0.017   1.378   0.010  0.00  0.00    +0.038 A 
ATOM     33  C   UNL     1       1.173   2.086   0.002  0.00  0.00    +0.123 A 
ATOM     34  C   UNL     1       2.381   1.408  -0.013  0.00  0.00    +0.038 A 
ATOM     35  C   UNL     1       2.397   0.026  -0.020  0.00  0.00    +0.007 A 
ATOM     36  F   UNL     1       1.156   3.437   0.009  0.00  0.00    -0.205 F 
ENDBRANCH  29  30
ENDBRANCH  28  29
ENDBRANCH  25  28
ENDBRANCH   1  19
TORSDOF 8
