REMARK  Name = ZINC12656097
REMARK  9 active torsions:
REMARK  status: ('A' for Active; 'I' for Inactive)
REMARK    1  A    between atoms: C_1  and  C_2
REMARK    2  A    between atoms: C_2  and  C_3
REMARK    3  A    between atoms: C_2  and  O_4
REMARK    4  A    between atoms: O_4  and  C_5
REMARK    5  A    between atoms: C_8  and  C_11
REMARK    6  A    between atoms: C_12  and  C_13
REMARK    7  A    between atoms: C_12  and  N_17
REMARK    8  A    between atoms: N_15  and  N_16
REMARK    9  A    between atoms: C_18  and  C_20
REMARK                            x       y       z     vdW  Elec       q    Type
REMARK                         _______ _______ _______ _____ _____    ______ ____
ROOT
ATOM      1  C   UNL     1       2.331   0.663   1.475  0.00  0.00    +0.036 C 
ATOM      2  C   UNL     1       1.365   1.532   1.093  0.00  0.00    +0.098 C 
ENDROOT
BRANCH   1   6
ATOM      3  C   UNL     1       1.781  -3.504   0.907  0.00  0.00    +0.121 A 
ATOM      4  C   UNL     1       3.064  -2.971   0.924  0.00  0.00    +0.046 A 
ATOM      5  C   UNL     1       3.249  -1.619   1.108  0.00  0.00    +0.011 A 
ATOM      6  C   UNL     1       2.141  -0.781   1.278  0.00  0.00    -0.023 A 
ATOM      7  C   UNL     1       0.850  -1.323   1.265  0.00  0.00    +0.011 A 
ATOM      8  C   UNL     1       0.677  -2.676   1.075  0.00  0.00    +0.046 A 
BRANCH   3   9
ATOM      9  O   UNL     1       1.604  -4.838   0.726  0.00  0.00    -0.489 OA
BRANCH   9  11
ATOM     10  C   UNL     1       3.425  -5.956   1.856  0.00  0.00    +0.051 C 
ATOM     11  C   UNL     1       2.778  -5.624   0.510  0.00  0.00    +0.167 C 
ATOM     12  C   UNL     1       2.398  -6.921  -0.207  0.00  0.00    +0.051 C 
ENDBRANCH   9  11
ENDBRANCH   3   9
ENDBRANCH   1   6
BRANCH   2  13
ATOM     13  C   UNL     1       1.485   2.957   1.429  0.00  0.00    +0.272 C 
ATOM     14  O   UNL     1       0.673   3.754   0.997  0.00  0.00    -0.268 OA
ATOM     15  N   UNL     1       2.495   3.382   2.214  0.00  0.00    -0.249 N 
ATOM     16  H   UNL     1       3.142   2.746   2.558  0.00  0.00    +0.169 HD
BRANCH  15  17
ATOM     17  N   UNL     1       2.606   4.707   2.526  0.00  0.00    -0.254 NA
ATOM     18  H   UNL     1       3.406   4.873   3.119  0.00  0.00    +0.140 HD
ATOM     19  H   UNL     1       2.651   5.272   1.692  0.00  0.00    +0.140 HD
ENDBRANCH  15  17
ENDBRANCH   2  13
BRANCH   2  20
ATOM     20  N   UNL     1       0.253   1.072   0.380  0.00  0.00    -0.277 N 
ATOM     21  C   UNL     1      -0.990   1.313   0.841  0.00  0.00    +0.248 C 
ATOM     22  O   UNL     1      -1.148   1.998   1.833  0.00  0.00    -0.270 OA
ATOM     23  H   UNL     1       0.377   0.583  -0.449  0.00  0.00    +0.155 HD
BRANCH  21  24
ATOM     24  C   UNL     1      -2.161   0.746   0.141  0.00  0.00    +0.037 A 
ATOM     25  C   UNL     1      -1.983  -0.036  -1.002  0.00  0.00    +0.014 A 
ATOM     26  C   UNL     1      -3.079  -0.568  -1.647  0.00  0.00    +0.016 A 
ATOM     27  C   UNL     1      -4.356  -0.318  -1.171  0.00  0.00    +0.018 A 
ATOM     28  C   UNL     1      -4.539   0.461  -0.041  0.00  0.00    +0.016 A 
ATOM     29  C   UNL     1      -3.450   0.994   0.617  0.00  0.00    +0.014 A 
ATOM     30 BR   UNL     1      -5.854  -1.046  -2.066  0.00  0.00    -0.050 Br
ENDBRANCH  21  24
ENDBRANCH   2  20
TORSDOF 7
