REMARK  Name = ZINC51574233
REMARK  5 active torsions:
REMARK  status: ('A' for Active; 'I' for Inactive)
REMARK    1  A    between atoms: C_1  and  C_2
REMARK    2  A    between atoms: C_7  and  C_10
REMARK    3  A    between atoms: C_10  and  N_11
REMARK    4  A    between atoms: N_11  and  S_12
REMARK    5  A    between atoms: S_12  and  C_15
REMARK                            x       y       z     vdW  Elec       q    Type
REMARK                         _______ _______ _______ _____ _____    ______ ____
ROOT
ATOM      1  N   UNL     1       2.920  -1.775   2.368  0.00  0.00    -0.191 NA
ATOM      2  H   UNL     1       3.233  -1.306   1.579  0.00  0.00    +0.148 HD
ENDROOT
BRANCH   1   3
ATOM      3  S   UNL     1       3.857  -1.819   3.733  0.00  0.00    +0.061 S 
ATOM      4  O   UNL     1       5.052  -1.113   3.427  0.00  0.00    -0.153 OA
ATOM      5  O   UNL     1       3.014  -1.455   4.817  0.00  0.00    -0.153 OA
BRANCH   3   6
ATOM      6  C   UNL     1       4.318  -3.499   3.994  0.00  0.00    +0.142 A 
ATOM      7  C   UNL     1       3.628  -4.410   4.719  0.00  0.00    +0.133 A 
ATOM      8  N   UNL     1       4.311  -5.573   4.675  0.00  0.00    -0.283 N 
ATOM      9  H   UNL     1       4.052  -6.404   5.105  0.00  0.00    +0.188 HD
ATOM     10  N   UNL     1       5.458  -5.370   3.897  0.00  0.00    -0.180 NA
ATOM     11  C   UNL     1       5.459  -4.129   3.485  0.00  0.00    +0.162 A 
ENDBRANCH   3   6
ENDBRANCH   1   3
BRANCH   1  12
ATOM     12  C   UNL     1       1.617  -2.445   2.353  0.00  0.00    +0.090 C 
BRANCH  12  18
ATOM     13  C   UNL     1      -0.019   1.526   0.010  0.00  0.00    -0.014 C 
ATOM     14  C   UNL     1       0.002  -0.004   0.002  0.00  0.00    -0.075 C 
ATOM     15  C   UNL     1      -1.434  -0.533   0.011  0.00  0.00    -0.016 C 
ATOM     16  C   UNL     1      -1.408  -2.064   0.003  0.00  0.00    -0.003 C 
ATOM     17  C   UNL     1      -0.600  -2.558   1.206  0.00  0.00    -0.015 C 
ATOM     18  C   UNL     1       0.805  -1.954   1.152  0.00  0.00    -0.056 C 
ATOM     19  N   UNL     1       0.713  -0.490   1.191  0.00  0.00    +0.383 N 
ATOM     20  H   UNL     1       1.642  -0.096   1.210  0.00  0.00    -0.085 HD
ATOM     21  H   UNL     1       0.213  -0.206   2.020  0.00  0.00    -0.085 HD
ENDBRANCH  12  18
ENDBRANCH   1  12
TORSDOF 4
