REMARK  Name = ZINC01147917
REMARK  3 active torsions:
REMARK  status: ('A' for Active; 'I' for Inactive)
REMARK    1  A    between atoms: C_8  and  C_26
REMARK    2  A    between atoms: C_14  and  C_19
REMARK    3  A    between atoms: C_30  and  N_32
REMARK                            x       y       z     vdW  Elec       q    Type
REMARK                         _______ _______ _______ _____ _____    ______ ____
ROOT
ATOM      1  C   UNL     1       2.437  -4.833  -2.647  0.00  0.00    +0.002 A 
ATOM      2  C   UNL     1       1.647  -4.887  -1.513  0.00  0.00    +0.002 A 
ATOM      3  C   UNL     1       0.910  -3.782  -1.122  0.00  0.00    +0.025 A 
ATOM      4  C   UNL     1       0.974  -2.623  -1.876  0.00  0.00    +0.052 A 
ATOM      5  C   UNL     1       1.795  -2.555  -2.991  0.00  0.00    +0.049 A 
ATOM      6  C   UNL     1       2.514  -3.669  -3.392  0.00  0.00    +0.025 A 
ATOM      7  N   UNL     1       1.925  -1.331  -3.646  0.00  0.00    -0.331 N 
ATOM      8  C   UNL     1       2.535  -0.194  -2.991  0.00  0.00    +0.136 C 
ATOM      9  C   UNL     1       1.772   0.321  -1.794  0.00  0.00    +0.036 C 
ATOM     10  C   UNL     1       0.750  -0.300  -1.184  0.00  0.00    +0.017 C 
ATOM     11  N   UNL     1       0.226  -1.493  -1.565  0.00  0.00    -0.316 N 
ATOM     12  C   UNL     1       0.086   0.325   0.033  0.00  0.00    +0.059 C 
ATOM     13  C   UNL     1       0.106   1.847  -0.090  0.00  0.00    +0.032 C 
ATOM     14  C   UNL     1       1.572   2.288  -0.177  0.00  0.00    +0.088 C 
ATOM     15  C   UNL     1       2.218   1.582  -1.331  0.00  0.00    +0.163 C 
ATOM     16  O   UNL     1       3.159   2.111  -1.889  0.00  0.00    -0.292 OA
ATOM     17  H   UNL     1       1.601  -1.241  -4.556  0.00  0.00    +0.147 HD
ATOM     18  H   UNL     1      -0.740  -1.562  -1.625  0.00  0.00    +0.152 HD
ENDROOT
BRANCH  13  19
ATOM     19  C   UNL     1      -0.542   2.466   1.121  0.00  0.00    -0.043 A 
ATOM     20  C   UNL     1      -0.025   2.225   2.380  0.00  0.00    +0.007 A 
ATOM     21  C   UNL     1      -0.616   2.796   3.491  0.00  0.00    +0.038 A 
ATOM     22  C   UNL     1      -1.733   3.601   3.344  0.00  0.00    +0.123 A 
ATOM     23  C   UNL     1      -2.254   3.837   2.083  0.00  0.00    +0.038 A 
ATOM     24  C   UNL     1      -1.658   3.269   0.973  0.00  0.00    +0.007 A 
ATOM     25  F   UNL     1      -2.315   4.156   4.430  0.00  0.00    -0.205 F 
ENDBRANCH  13  19
BRANCH   8  26
ATOM     26  C   UNL     1       3.918  -0.588  -2.539  0.00  0.00    -0.021 A 
ATOM     27  C   UNL     1       5.021   0.101  -3.010  0.00  0.00    +0.006 A 
ATOM     28  C   UNL     1       6.289  -0.261  -2.595  0.00  0.00    +0.003 A 
ATOM     29  C   UNL     1       6.455  -1.310  -1.710  0.00  0.00    +0.033 A 
ATOM     30  C   UNL     1       5.352  -1.997  -1.239  0.00  0.00    +0.127 A 
ATOM     31  C   UNL     1       4.083  -1.633  -1.651  0.00  0.00    +0.038 A 
BRANCH  30  32
ATOM     32  N   UNL     1       5.529  -3.120  -0.292  0.00  0.00    +0.056 N 
ATOM     33  O   UNL     1       6.647  -3.439   0.073  0.00  0.00    -0.126 OA
ATOM     34  O   UNL     1       4.558  -3.726   0.124  0.00  0.00    -0.126 OA
ENDBRANCH  30  32
ENDBRANCH   8  26
TORSDOF 3
