REMARK  Name = ZINC38677510
REMARK  10 active torsions:
REMARK  status: ('A' for Active; 'I' for Inactive)
REMARK    1  A    between atoms: C_1  and  C_2
REMARK    2  A    between atoms: C_2  and  C_3
REMARK    3  A    between atoms: C_2  and  C_4
REMARK    4  A    between atoms: C_2  and  O_23
REMARK    5  A    between atoms: N_6  and  C_7
REMARK    6  A    between atoms: C_7  and  C_8
REMARK    7  A    between atoms: C_8  and  C_10
REMARK    8  A    between atoms: C_8  and  N_16
REMARK    9  A    between atoms: N_14  and  C_15
REMARK   10  A    between atoms: O_23  and  C_24
REMARK                            x       y       z     vdW  Elec       q    Type
REMARK                         _______ _______ _______ _____ _____    ______ ____
ROOT
ATOM      1  C   UNL     1      -3.343  -0.370   0.827  0.00  0.00    +0.095 C 
ENDROOT
BRANCH   1   4
ATOM      2  C   UNL     1      -1.293   0.168  -0.375  0.00  0.00    +0.256 C 
ATOM      3  O   UNL     1      -1.553  -0.721  -1.158  0.00  0.00    -0.271 OA
ATOM      4  N   UNL     1      -2.124   0.425   0.654  0.00  0.00    -0.313 N 
ATOM      5  H   UNL     1      -1.916   1.136   1.280  0.00  0.00    +0.149 HD
BRANCH   2   7
ATOM      6  C   UNL     1      -0.413   2.458  -0.738  0.00  0.00    +0.065 C 
ATOM      7  C   UNL     1      -0.040   0.986  -0.553  0.00  0.00    +0.180 C 
ATOM      8  C   UNL     1       0.847   0.837   0.685  0.00  0.00    +0.065 C 
BRANCH   7   9
ATOM      9  O   UNL     1       0.670   0.527  -1.705  0.00  0.00    -0.477 OA
BRANCH   9  10
ATOM     10  C   UNL     1       1.091  -0.766  -1.696  0.00  0.00    +0.122 A 
ATOM     11  C   UNL     1       0.736  -1.604  -0.649  0.00  0.00    +0.047 A 
ATOM     12  C   UNL     1       1.165  -2.917  -0.641  0.00  0.00    +0.023 A 
ATOM     13  C   UNL     1       1.948  -3.396  -1.676  0.00  0.00    +0.041 A 
ATOM     14  C   UNL     1       2.303  -2.562  -2.721  0.00  0.00    +0.023 A 
ATOM     15  C   UNL     1       1.871  -1.250  -2.736  0.00  0.00    +0.047 A 
ATOM     16 CL   UNL     1       2.486  -5.047  -1.664  0.00  0.00    -0.084 Cl
ENDBRANCH   9  10
ENDBRANCH   7   9
ENDBRANCH   2   7
ENDBRANCH   1   4
BRANCH   1  17
ATOM     17  C   UNL     1      -4.030   0.028   2.135  0.00  0.00    -0.003 C 
BRANCH  17  18
ATOM     18  N   UNL     1      -3.164  -0.322   3.269  0.00  0.00    +0.386 N 
ATOM     19  C   UNL     1      -2.013   0.601   3.287  0.00  0.00    -0.078 C 
ATOM     20  C   UNL     1      -1.481   0.668   4.696  0.00  0.00    -0.019 C 
ATOM     21  C   UNL     1      -0.301  -0.301   4.901  0.00  0.00    -0.002 C 
ATOM     22  C   UNL     1      -0.543  -1.653   4.200  0.00  0.00    -0.002 C 
ATOM     23  C   UNL     1      -1.961  -2.138   4.363  0.00  0.00    -0.019 C 
ATOM     24  C   UNL     1      -2.797  -1.664   3.156  0.00  0.00    -0.078 C 
ATOM     25  H   UNL     1      -3.687  -0.200   4.123  0.00  0.00    -0.081 HD
ENDBRANCH  17  18
BRANCH  17  26
ATOM     26  C   UNL     1      -5.340  -0.708   2.257  0.00  0.00    +0.006 A 
ATOM     27  C   UNL     1      -5.738  -1.442   3.316  0.00  0.00    +0.021 A 
ATOM     28  C   UNL     1      -7.018  -1.952   3.019  0.00  0.00    +0.019 A 
ATOM     29  C   UNL     1      -7.353  -1.508   1.790  0.00  0.00    +0.085 A 
ATOM     30  N   UNL     1      -6.329  -0.740   1.320  0.00  0.00    -0.355 N 
ATOM     31  C   UNL     1      -6.297  -0.063   0.021  0.00  0.00    +0.148 C 
ENDBRANCH  17  26
ENDBRANCH   1  17
TORSDOF 7
