REMARK  Name = ZINC15068634
REMARK  5 active torsions:
REMARK  status: ('A' for Active; 'I' for Inactive)
REMARK    1  A    between atoms: C_1  and  N_2
REMARK    2  A    between atoms: C_4  and  C_7
REMARK    3  A    between atoms: C_7  and  N_8
REMARK    4  A    between atoms: C_19  and  N_57
REMARK    5  A    between atoms: C_23  and  N_57
REMARK                            x       y       z     vdW  Elec       q    Type
REMARK                         _______ _______ _______ _____ _____    ______ ____
ROOT
ATOM      1  N   UNL     1      -4.622   8.905  -1.378  0.00  0.00    -0.294 N 
ATOM      2  C   UNL     1      -5.607   8.735  -0.463  0.00  0.00    +0.203 A 
ATOM      3  N   UNL     1      -5.772   7.620   0.213  0.00  0.00    -0.230 NA
ATOM      4  C   UNL     1      -4.922   6.627  -0.028  0.00  0.00    +0.116 A 
ATOM      5  C   UNL     1      -3.864   6.706  -0.961  0.00  0.00    +0.076 A 
ATOM      6  C   UNL     1      -3.720   7.941  -1.679  0.00  0.00    +0.263 A 
ATOM      7  O   UNL     1      -2.840   8.112  -2.506  0.00  0.00    -0.267 OA
ATOM      8  C   UNL     1      -3.036   5.521  -1.093  0.00  0.00    -0.023 A 
ATOM      9  C   UNL     1      -3.359   4.465  -0.311  0.00  0.00    -0.006 A 
ATOM     10  S   UNL     1      -4.769   4.996   0.627  0.00  0.00    -0.073 S 
ATOM     11  C   UNL     1      -2.672   3.135  -0.253  0.00  0.00    +0.027 C 
ATOM     12  C   UNL     1      -1.309   3.261  -0.948  0.00  0.00    -0.066 C 
ATOM     13  C   UNL     1      -1.504   3.971  -2.291  0.00  0.00    -0.011 C 
ATOM     14  C   UNL     1      -1.855   5.440  -2.056  0.00  0.00    +0.035 C 
ENDROOT
BRANCH  12  15
ATOM     15  N   UNL     1      -0.747   1.918  -1.184  0.00  0.00    +0.383 N 
ATOM     16  H   UNL     1      -0.102   1.956  -1.982  0.00  0.00    -0.085 HD
ATOM     17  H   UNL     1      -1.510   1.263  -1.392  0.00  0.00    -0.085 HD
BRANCH  15  18
ATOM     18  C   UNL     1      -0.018   1.451   0.010  0.00  0.00    -0.071 C 
ATOM     19  C   UNL     1       1.400   2.058  -0.000  0.00  0.00    -0.016 C 
ATOM     20  C   UNL     1       1.951   2.011   1.399  0.00  0.00    -0.002 C 
ATOM     21  C   UNL     1       2.802   0.752   1.656  0.00  0.00    -0.000 C 
ATOM     22  C   UNL     1       2.182  -0.521   1.049  0.00  0.00    -0.000 C 
ATOM     23  C   UNL     1       0.693  -0.590   1.251  0.00  0.00    -0.002 C 
ATOM     24  C   UNL     1       0.002  -0.004   0.002  0.00  0.00    -0.016 C 
ENDBRANCH  15  18
ENDBRANCH  12  15
BRANCH   1  25
ATOM     25  C   UNL     1      -4.530  10.190  -2.075  0.00  0.00    +0.164 C 
BRANCH  25  29
ATOM     26  C   UNL     1      -2.909  13.648   1.170  0.00  0.00    +0.172 C 
ATOM     27  N   UNL     1      -2.937  12.628   0.119  0.00  0.00    -0.274 N 
ATOM     28  C   UNL     1      -4.033  11.982  -0.330  0.00  0.00    +0.113 A 
ATOM     29  C   UNL     1      -3.637  11.121  -1.296  0.00  0.00    +0.010 A 
ATOM     30  C   UNL     1      -2.253  11.252  -1.449  0.00  0.00    +0.139 A 
ATOM     31  N   UNL     1      -1.832  12.155  -0.601  0.00  0.00    -0.180 NA
ENDBRANCH  25  29
ENDBRANCH   1  25
TORSDOF 4
