REMARK  Name = ZINC39016234
REMARK  6 active torsions:
REMARK  status: ('A' for Active; 'I' for Inactive)
REMARK    1  A    between atoms: C_8  and  C_13
REMARK    2  A    between atoms: C_13  and  N_14
REMARK    3  A    between atoms: N_14  and  C_15
REMARK    4  A    between atoms: N_14  and  S_22
REMARK    5  A    between atoms: C_15  and  C_16
REMARK    6  A    between atoms: S_22  and  C_25
REMARK                            x       y       z     vdW  Elec       q    Type
REMARK                         _______ _______ _______ _____ _____    ______ ____
ROOT
ATOM      1  N   UNL     1       4.117  -4.368  -1.176  0.00  0.00    -0.173 NA
ENDROOT
BRANCH   1   2
ATOM      2  S   UNL     1       5.479  -3.701  -1.840  0.00  0.00    +0.061 S 
ATOM      3  O   UNL     1       6.306  -4.783  -2.244  0.00  0.00    -0.153 OA
ATOM      4  O   UNL     1       5.041  -2.698  -2.746  0.00  0.00    -0.153 OA
BRANCH   2   5
ATOM      5  C   UNL     1       6.336  -2.869  -0.544  0.00  0.00    +0.106 A 
ATOM      6  C   UNL     1       6.166  -1.508  -0.366  0.00  0.00    +0.030 A 
ATOM      7  C   UNL     1       6.838  -0.855   0.651  0.00  0.00    +0.022 A 
ATOM      8  C   UNL     1       7.679  -1.563   1.490  0.00  0.00    +0.041 A 
ATOM      9  C   UNL     1       7.849  -2.925   1.311  0.00  0.00    +0.022 A 
ATOM     10  C   UNL     1       7.172  -3.578   0.298  0.00  0.00    +0.030 A 
ATOM     11 CL   UNL     1       8.524  -0.744   2.766  0.00  0.00    -0.084 Cl
ENDBRANCH   2   5
ENDBRANCH   1   2
BRANCH   1  12
ATOM     12  C   UNL     1       2.838  -3.657  -1.258  0.00  0.00    +0.126 C 
BRANCH  12  20
ATOM     13  C   UNL     1      -0.763   0.315   1.044  0.00  0.00    +0.001 A 
ATOM     14  C   UNL     1       0.291   0.976   1.673  0.00  0.00    +0.002 A 
ATOM     15  C   UNL     1       1.536   0.441   1.776  0.00  0.00    +0.024 A 
ATOM     16  C   UNL     1       1.813  -0.830   1.239  0.00  0.00    +0.040 A 
ATOM     17  N   UNL     1       3.037  -1.346   1.346  0.00  0.00    -0.284 N 
ATOM     18  C   UNL     1       3.365  -2.533   0.864  0.00  0.00    +0.225 C 
ATOM     19  O   UNL     1       4.500  -2.951   0.992  0.00  0.00    -0.275 OA
ATOM     20  C   UNL     1       2.324  -3.368   0.153  0.00  0.00    +0.114 C 
ATOM     21  C   UNL     1       0.930  -2.786   0.029  0.00  0.00    -0.003 C 
ATOM     22  C   UNL     1       0.718  -1.552   0.568  0.00  0.00    -0.007 A 
ATOM     23  C   UNL     1      -0.598  -0.916   0.494  0.00  0.00    +0.009 A 
ATOM     24  H   UNL     1       3.720  -0.826   1.798  0.00  0.00    +0.155 HD
ENDBRANCH  12  20
ENDBRANCH   1  12
BRANCH   1  25
ATOM     25  C   UNL     1       4.189  -5.670  -0.508  0.00  0.00    +0.141 C 
BRANCH  25  26
ATOM     26  C   UNL     1       3.807  -6.773  -1.496  0.00  0.00    +0.134 C 
ATOM     27  C   UNL     1       3.763  -8.135  -0.770  0.00  0.00    +0.035 C 
ATOM     28  C   UNL     1       4.378  -9.092  -1.827  0.00  0.00    +0.031 C 
ATOM     29  C   UNL     1       5.417  -8.159  -2.499  0.00  0.00    +0.160 C 
ATOM     30  O   UNL     1       4.794  -6.863  -2.530  0.00  0.00    -0.375 OA
ENDBRANCH  25  26
ENDBRANCH   1  25
TORSDOF 6
