REMARK  Name = ZINC27345003
REMARK  8 active torsions:
REMARK  status: ('A' for Active; 'I' for Inactive)
REMARK    1  A    between atoms: C_1  and  C_2
REMARK    2  A    between atoms: C_2  and  C_31
REMARK    3  A    between atoms: C_6  and  N_23
REMARK    4  A    between atoms: C_13  and  N_18
REMARK    5  A    between atoms: N_18  and  C_19
REMARK    6  A    between atoms: C_19  and  C_20
REMARK    7  A    between atoms: C_20  and  O_21
REMARK    8  A    between atoms: O_21  and  C_22
REMARK                            x       y       z     vdW  Elec       q    Type
REMARK                         _______ _______ _______ _____ _____    ______ ____
ROOT
ATOM      1  C   UNL     1      -3.496   3.057   1.754  0.00  0.00    +0.041 C 
ATOM      2  C   UNL     1      -3.571   2.750   0.257  0.00  0.00    +0.068 C 
ATOM      3  C   UNL     1      -2.514   1.705  -0.108  0.00  0.00    +0.070 C 
ATOM      4  C   UNL     1      -1.143   2.323  -0.042  0.00  0.00    -0.025 A 
ATOM      5  C   UNL     1      -0.960   3.670  -0.027  0.00  0.00    +0.020 A 
ATOM      6  C   UNL     1       0.335   4.198   0.027  0.00  0.00    +0.105 A 
ATOM      7  N   UNL     1       1.386   3.395   0.069  0.00  0.00    -0.337 N 
ATOM      8  C   UNL     1       1.245   2.088   0.061  0.00  0.00    +0.089 A 
ATOM      9  C   UNL     1      -0.018   1.463   0.011  0.00  0.00    +0.031 A 
ATOM     10  C   UNL     1       0.001  -0.004   0.013  0.00  0.00    +0.055 A 
ATOM     11  C   UNL     1       1.227  -0.601   0.053  0.00  0.00    +0.050 A 
ATOM     12  S   UNL     1       2.388   0.727   0.102  0.00  0.00    -0.070 S 
ATOM     13  C   UNL     1       1.448  -2.083   0.043  0.00  0.00    +0.188 C 
ATOM     14  N   UNL     1       0.183  -2.686   0.515  0.00  0.00    -0.359 N 
ATOM     15  C   UNL     1      -1.009  -2.088   0.188  0.00  0.00    +0.157 C 
ATOM     16  N   UNL     1      -1.129  -0.815  -0.034  0.00  0.00    -0.306 N 
ATOM     17  C   UNL     1      -2.127   4.623  -0.068  0.00  0.00    +0.199 C 
ATOM     18  O   UNL     1      -3.306   3.941  -0.493  0.00  0.00    -0.369 OA
ATOM     19  C   UNL     1      -4.963   2.220  -0.091  0.00  0.00    +0.041 C 
ATOM     20  H   UNL     1       0.190  -3.603   1.121  0.00  0.00    +0.162 HD
ATOM     21  H   UNL     1       2.400   3.819   0.111  0.00  0.00    +0.168 HD
ATOM     22  H   UNL     1      -2.112  -0.375  -0.257  0.00  0.00    +0.153 HD
ENDROOT
BRANCH   6  23
ATOM     23  N   UNL     1       0.518   5.576   0.038  0.00  0.00    -0.312 N 
ATOM     24  C   UNL     1       1.285   6.015  -1.137  0.00  0.00    +0.134 C 
ATOM     25  C   UNL     1       1.412   7.540  -1.116  0.00  0.00    +0.178 C 
ATOM     26  O   UNL     1       2.022   7.947   0.112  0.00  0.00    -0.377 OA
ATOM     27  C   UNL     1       1.301   7.536   1.276  0.00  0.00    +0.178 C 
ATOM     28  C   UNL     1       1.174   6.011   1.280  0.00  0.00    +0.134 C 
ENDBRANCH   6  23
BRANCH  13  29
ATOM     29  N   UNL     1       1.749  -2.540  -1.320  0.00  0.00    -0.290 NA
ATOM     30  H   UNL     1       0.869  -3.051  -1.738  0.00  0.00    +0.124 HD
BRANCH  29  31
ATOM     31  C   UNL     1       2.882  -3.476  -1.323  0.00  0.00    +0.111 C 
BRANCH  31  32
ATOM     32  C   UNL     1       3.165  -3.929  -2.757  0.00  0.00    +0.174 C 
BRANCH  32  33
ATOM     33  O   UNL     1       3.596  -2.810  -3.534  0.00  0.00    -0.382 OA
ATOM     34  C   UNL     1       3.888  -3.127  -4.896  0.00  0.00    +0.194 C 
ENDBRANCH  32  33
ENDBRANCH  31  32
ENDBRANCH  29  31
ENDBRANCH  13  29
TORSDOF 5
