REMARK  Name = ZINC44320385
REMARK  11 active torsions:
REMARK  status: ('A' for Active; 'I' for Inactive)
REMARK    1  A    between atoms: C_1  and  O_2
REMARK    2  A    between atoms: O_2  and  C_3
REMARK    3  A    between atoms: C_5  and  C_13
REMARK    4  A    between atoms: C_7  and  N_10
REMARK    5  A    between atoms: C_8  and  O_9
REMARK    6  A    between atoms: C_13  and  CA_14
REMARK    7  A    between atoms: CA_14  and  C_16
REMARK    8  A    between atoms: CA_14  and  N_19
REMARK    9  A    between atoms: C_20  and  O_22
REMARK   10  A    between atoms: O_22  and  C_23
REMARK   11  A    between atoms: C_23  and  C_24
REMARK                            x       y       z     vdW  Elec       q    Type
REMARK                         _______ _______ _______ _____ _____    ______ ____
ROOT
ATOM      1  N   UNL     1       0.341   1.410   4.774  0.00  0.00    -0.267 N 
ATOM      2  C   UNL     1      -0.882   1.356   5.339  0.00  0.00    +0.401 C 
ATOM      3  O   UNL     1      -1.081   0.624   6.287  0.00  0.00    -0.226 OA
ATOM      4  H   UNL     1       0.500   1.995   4.017  0.00  0.00    +0.153 HD
ENDROOT
BRANCH   1   5
ATOM      5  CA  UNL     1       1.429   0.586   5.305  0.00  0.00    +0.193 C 
BRANCH   5   6
ATOM      6  C   UNL     1       2.087   1.302   6.456  0.00  0.00    +0.376 C 
ATOM      7  O   UNL     1       1.812   2.467   6.686  0.00  0.00    -0.244 OA
ATOM      8  OXT UNL     1       2.896   0.717   7.157  0.00  0.00    -0.244 OA
ENDBRANCH   5   6
BRANCH   5   9
ATOM      9  C   UNL     1       2.462   0.334   4.204  0.00  0.00    +0.069 C 
BRANCH   9  12
ATOM     10  C   UNL     1       0.626  -0.619   1.042  0.00  0.00    +0.164 A 
ATOM     11  C   UNL     1       1.202   0.137   2.051  0.00  0.00    +0.053 A 
ATOM     12  C   UNL     1       1.836  -0.490   3.108  0.00  0.00    -0.039 A 
ATOM     13  C   UNL     1       1.897  -1.870   3.161  0.00  0.00    +0.040 A 
ATOM     14  C   UNL     1       1.325  -2.630   2.158  0.00  0.00    +0.171 A 
ATOM     15  C   UNL     1       0.683  -2.008   1.099  0.00  0.00    +0.189 A 
BRANCH  14  16
ATOM     16  N   UNL     1       1.392  -4.107   2.218  0.00  0.00    +0.060 N 
ATOM     17  O   UNL     1       1.948  -4.649   3.145  0.00  0.00    -0.126 OA
ATOM     18  O   UNL     1       0.892  -4.771   1.341  0.00  0.00    -0.126 OA
ENDBRANCH  14  16
BRANCH  10  20
ATOM     19  C   UNL     1      -0.017   1.425   0.010  0.00  0.00    +0.277 C 
ATOM     20  O   UNL     1       0.002  -0.004   0.002  0.00  0.00    -0.491 OA
ENDBRANCH  10  20
BRANCH  15  21
ATOM     21  O   UNL     1       0.115  -2.754   0.114  0.00  0.00    -0.502 OA
ATOM     22  H   UNL     1       0.711  -2.957  -0.620  0.00  0.00    +0.292 HD
ENDBRANCH  15  21
ENDBRANCH   9  12
ENDBRANCH   5   9
ENDBRANCH   1   5
BRANCH   2  23
ATOM     23  O   UNL     1      -1.882   2.114   4.851  0.00  0.00    -0.449 OA
BRANCH  23  24
ATOM     24  C   UNL     1      -3.152   2.006   5.498  0.00  0.00    +0.246 C 
BRANCH  24  25
ATOM     25  C   UNL     1      -4.155   2.934   4.810  0.00  0.00    +0.088 C 
ATOM     26  C   UNL     1      -3.789   4.376   5.064  0.00  0.00    -0.029 A 
ATOM     27  C   UNL     1      -2.667   5.114   4.754  0.00  0.00    +0.005 A 
ATOM     28  C   UNL     1      -2.593   6.448   5.115  0.00  0.00    +0.000 A 
ATOM     29  C   UNL     1      -3.646   7.043   5.788  0.00  0.00    +0.001 A 
ATOM     30  C   UNL     1      -4.772   6.312   6.102  0.00  0.00    +0.009 A 
ATOM     31  C   UNL     1      -4.853   4.966   5.741  0.00  0.00    -0.014 A 
ATOM     32  C   UNL     1      -5.925   3.961   5.948  0.00  0.00    -0.014 A 
ATOM     33  C   UNL     1      -5.530   2.743   5.401  0.00  0.00    -0.029 A 
ATOM     34  C   UNL     1      -6.364   1.647   5.469  0.00  0.00    +0.005 A 
ATOM     35  C   UNL     1      -7.600   1.754   6.083  0.00  0.00    +0.000 A 
ATOM     36  C   UNL     1      -8.001   2.960   6.629  0.00  0.00    +0.001 A 
ATOM     37  C   UNL     1      -7.173   4.061   6.566  0.00  0.00    +0.009 A 
ENDBRANCH  24  25
ENDBRANCH  23  24
ENDBRANCH   2  23
TORSDOF 10
