REMARK  Name = ZINC00518986
REMARK  8 active torsions:
REMARK  status: ('A' for Active; 'I' for Inactive)
REMARK    1  A    between atoms: C_1  and  C_2
REMARK    2  A    between atoms: C_6  and  C_20
REMARK    3  A    between atoms: N_8  and  C_19
REMARK    4  A    between atoms: C_9  and  O_18
REMARK    5  A    between atoms: N_13  and  C_17
REMARK    6  A    between atoms: C_23  and  O_28
REMARK    7  A    between atoms: C_24  and  O_26
REMARK    8  A    between atoms: O_26  and  C_27
REMARK                            x       y       z     vdW  Elec       q    Type
REMARK                         _______ _______ _______ _____ _____    ______ ____
ROOT
ATOM      1  C   UNL     1      -0.348   1.306  -0.149  0.00  0.00    +0.028 C 
ATOM      2  C   UNL     1      -0.263  -0.221  -0.218  0.00  0.00    +0.080 C 
ATOM      3  C   UNL     1       0.640  -0.635  -1.379  0.00  0.00    +0.075 C 
ATOM      4  C   UNL     1       0.171  -0.023  -2.702  0.00  0.00    +0.116 C 
ATOM      5  N   UNL     1       1.133  -0.453  -3.732  0.00  0.00    -0.283 N 
ATOM      6  C   UNL     1       2.469  -0.524  -3.426  0.00  0.00    +0.258 C 
ATOM      7  N   UNL     1       2.924  -0.381  -2.221  0.00  0.00    -0.325 N 
ATOM      8  C   UNL     1       2.055  -0.122  -1.085  0.00  0.00    +0.182 C 
ATOM      9  N   UNL     1       2.519  -0.724   0.160  0.00  0.00    -0.268 N 
ATOM     10  C   UNL     1       1.636  -0.980   1.145  0.00  0.00    +0.304 C 
ATOM     11  O   UNL     1       2.048  -1.448   2.189  0.00  0.00    -0.253 OA
ATOM     12  N   UNL     1       0.320  -0.740   1.025  0.00  0.00    -0.296 N 
ATOM     13  C   UNL     1       3.936  -1.050   0.338  0.00  0.00    +0.135 C 
ATOM     14  C   UNL     1       0.666  -0.804  -5.076  0.00  0.00    +0.134 C 
ATOM     15  H   UNL     1      -0.262  -0.914   1.781  0.00  0.00    +0.151 HD
ATOM     16  H   UNL     1       3.878  -0.458  -2.068  0.00  0.00    +0.166 HD
ENDROOT
BRANCH   4  17
ATOM     17  C   UNL     1      -1.209  -0.524  -3.041  0.00  0.00    -0.023 A 
ATOM     18  C   UNL     1      -1.411  -1.867  -3.300  0.00  0.00    +0.009 A 
ATOM     19  C   UNL     1      -2.676  -2.331  -3.611  0.00  0.00    +0.049 A 
ATOM     20  C   UNL     1      -3.744  -1.450  -3.664  0.00  0.00    +0.158 A 
ATOM     21  C   UNL     1      -3.541  -0.099  -3.403  0.00  0.00    +0.162 A 
ATOM     22  C   UNL     1      -2.272   0.359  -3.086  0.00  0.00    +0.055 A 
BRANCH  21  23
ATOM     23  O   UNL     1      -4.586   0.770  -3.453  0.00  0.00    -0.491 OA
ATOM     24  C   UNL     1      -4.303   2.142  -3.174  0.00  0.00    +0.277 C 
ENDBRANCH  21  23
BRANCH  20  25
ATOM     25  O   UNL     1      -4.988  -1.905  -3.970  0.00  0.00    -0.503 OA
ATOM     26  H   UNL     1      -5.507  -2.179  -3.202  0.00  0.00    +0.292 HD
ENDBRANCH  20  25
ENDBRANCH   4  17
BRANCH   6  27
ATOM     27  O   UNL     1       3.349  -0.753  -4.425  0.00  0.00    -0.483 OA
ATOM     28  H   UNL     1       4.271  -0.790  -4.136  0.00  0.00    +0.295 HD
ENDBRANCH   6  27
TORSDOF 4
