REMARK  Name = ZINC24219438
REMARK  7 active torsions:
REMARK  status: ('A' for Active; 'I' for Inactive)
REMARK    1  A    between atoms: C_1  and  C_2
REMARK    2  A    between atoms: C_10  and  C_11
REMARK    3  A    between atoms: C_11  and  O_13
REMARK    4  A    between atoms: O_13  and  C_14
REMARK    5  A    between atoms: C_14  and  C_15
REMARK    6  A    between atoms: N_17  and  N_18
REMARK    7  A    between atoms: C_24  and  C_27
REMARK                            x       y       z     vdW  Elec       q    Type
REMARK                         _______ _______ _______ _____ _____    ______ ____
ROOT
ATOM      1  C   UNL     1       3.555   2.062  -0.021  0.00  0.00    +0.267 C 
ATOM      2  O   UNL     1       3.380   3.262  -0.013  0.00  0.00    -0.271 OA
ATOM      3  N   UNL     1       4.807   1.564  -0.035  0.00  0.00    -0.221 N 
ATOM      4  H   UNL     1       4.966   0.475  -0.043  0.00  0.00    +0.174 HD
ENDROOT
BRANCH   3   5
ATOM      5  N   UNL     1       5.907   2.432  -0.041  0.00  0.00    -0.137 N 
ATOM      6  C   UNL     1       6.691   2.670   1.030  0.00  0.00    +0.263 C 
ATOM      7  O   UNL     1       6.583   2.192   2.139  0.00  0.00    -0.271 OA
ATOM      8  C   UNL     1       7.732   3.658   0.557  0.00  0.00    +0.114 C 
ATOM      9  C   UNL     1       9.128   3.057   0.678  0.00  0.00    +0.035 C 
ATOM     10  C   UNL     1      10.165   4.061   0.168  0.00  0.00    +0.006 C 
ATOM     11  C   UNL     1      10.074   5.348   0.990  0.00  0.00    -0.014 C 
ATOM     12  C   UNL     1       8.676   5.952   0.839  0.00  0.00    +0.006 C 
ATOM     13  C   UNL     1       7.633   4.955   1.351  0.00  0.00    +0.035 C 
ATOM     14  C   UNL     1      11.118   6.348   0.489  0.00  0.00    +0.007 C 
ATOM     15  N   UNL     1       7.391   3.889  -0.852  0.00  0.00    -0.284 N 
ATOM     16  C   UNL     1       6.313   3.125  -1.113  0.00  0.00    +0.326 C 
ATOM     17  O   UNL     1       5.768   3.072  -2.197  0.00  0.00    -0.251 OA
ATOM     18  H   UNL     1       7.993   4.582  -1.457  0.00  0.00    +0.151 HD
ENDBRANCH   3   5
BRANCH   1  19
ATOM     19  C   UNL     1       2.373   1.127  -0.015  0.00  0.00    +0.329 C 
BRANCH  19  20
ATOM     20  O   UNL     1       1.144   1.902   0.001  0.00  0.00    -0.450 OA
BRANCH  20  21
ATOM     21  C   UNL     1      -0.014   1.212   0.009  0.00  0.00    +0.376 C 
ATOM     22  O   UNL     1       0.002  -0.004   0.002  0.00  0.00    -0.241 OA
BRANCH  21  32
ATOM     23  C   UNL     1      -2.817  -0.137   0.002  0.00  0.00    +0.048 C 
ATOM     24  C   UNL     1      -2.521   1.341   0.016  0.00  0.00    +0.010 A 
ATOM     25  C   UNL     1      -3.494   2.432   0.031  0.00  0.00    +0.027 A 
ATOM     26  C   UNL     1      -4.890   2.492   0.038  0.00  0.00    +0.012 A 
ATOM     27  C   UNL     1      -5.517   3.705   0.046  0.00  0.00    +0.004 A 
ATOM     28  C   UNL     1      -4.776   4.880   0.049  0.00  0.00    +0.042 A 
ATOM     29  C   UNL     1      -3.397   4.843   0.043  0.00  0.00    +0.166 A 
ATOM     30  C   UNL     1      -2.737   3.618   0.034  0.00  0.00    +0.171 A 
ATOM     31  O   UNL     1      -1.435   3.271   0.026  0.00  0.00    -0.445 OA
ATOM     32  C   UNL     1      -1.296   1.928   0.019  0.00  0.00    +0.216 A 
ATOM     33  F   UNL     1      -2.689   5.994   0.046  0.00  0.00    -0.202 F 
ENDBRANCH  21  32
ENDBRANCH  20  21
ENDBRANCH  19  20
ENDBRANCH   1  19
TORSDOF 5
