REMARK  Name = ZINC06198332
REMARK  8 active torsions:
REMARK  status: ('A' for Active; 'I' for Inactive)
REMARK    1  A    between atoms: C_1  and  C_2
REMARK    2  A    between atoms: C_2  and  C_3
REMARK    3  A    between atoms: C_10  and  C_15
REMARK    4  A    between atoms: C_15  and  C_17
REMARK    5  A    between atoms: C_15  and  N_63
REMARK    6  A    between atoms: N_21  and  C_22
REMARK    7  A    between atoms: C_22  and  C_23
REMARK    8  A    between atoms: C_33  and  C_36
REMARK                            x       y       z     vdW  Elec       q    Type
REMARK                         _______ _______ _______ _____ _____    ______ ____
ROOT
ATOM      1  C   UNL     1      -2.518   4.282   0.047  0.00  0.00    +0.039 C 
ENDROOT
BRANCH   1   9
ATOM      2  C   UNL     1       1.197  -0.665  -0.013  0.00  0.00    -0.047 A 
ATOM      3  C   UNL     1       2.394   0.039  -0.020  0.00  0.00    +0.005 A 
ATOM      4  C   UNL     1       2.399   1.417  -0.012  0.00  0.00    +0.026 A 
ATOM      5  C   UNL     1       1.194   2.112   0.002  0.00  0.00    +0.049 A 
ATOM      6  C   UNL     1      -0.017   1.395   0.010  0.00  0.00    -0.001 A 
ATOM      7  C   UNL     1       0.002  -0.004   0.002  0.00  0.00    +0.013 A 
ATOM      8  C   UNL     1      -1.280   2.135   0.032  0.00  0.00    +0.017 A 
ATOM      9  C   UNL     1      -1.237   3.490   0.032  0.00  0.00    +0.011 A 
ATOM     10  C   UNL     1       0.005   4.161   0.023  0.00  0.00    +0.251 A 
ATOM     11  O   UNL     1       0.021   5.380   0.030  0.00  0.00    -0.268 OA
ATOM     12  N   UNL     1       1.170   3.490   0.009  0.00  0.00    -0.322 N 
ATOM     13  H   UNL     1       2.031   3.998   0.004  0.00  0.00    +0.169 HD
BRANCH   2  15
ATOM     14  C   UNL     1       1.211  -2.674  -1.466  0.00  0.00    +0.009 C 
ATOM     15  C   UNL     1       1.218  -2.172  -0.021  0.00  0.00    +0.032 C 
ENDBRANCH   2  15
ENDBRANCH   1   9
BRANCH   1  22
ATOM     16  C   UNL     1      -2.287   4.492   2.448  0.00  0.00    -0.077 C 
ATOM     17  C   UNL     1      -2.136   5.499   3.590  0.00  0.00    -0.018 C 
ATOM     18  C   UNL     1      -3.404   6.354   3.682  0.00  0.00    -0.001 C 
ATOM     19  C   UNL     1      -3.636   7.053   2.339  0.00  0.00    -0.031 C 
ATOM     20  C   UNL     1      -3.744   6.001   1.233  0.00  0.00    -0.074 C 
ATOM     21  C   UNL     1      -4.933   7.863   2.402  0.00  0.00    +0.005 C 
ATOM     22  N   UNL     1      -2.484   5.229   1.181  0.00  0.00    +0.389 N 
ATOM     23  H   UNL     1      -1.700   5.879   1.049  0.00  0.00    -0.080 HD
ENDBRANCH   1  22
BRANCH   1  24
ATOM     24  C   UNL     1      -2.642   5.063  -1.236  0.00  0.00    +0.143 A 
ATOM     25  N   UNL     1      -1.980   6.147  -1.559  0.00  0.00    -0.115 NA
ATOM     26  N   UNL     1      -2.365   6.513  -2.733  0.00  0.00    -0.023 NA
ATOM     27  N   UNL     1      -3.254   5.691  -3.167  0.00  0.00    -0.044 NA
ATOM     28  N   UNL     1      -3.449   4.779  -2.275  0.00  0.00    -0.226 N 
BRANCH  28  29
ATOM     29  C   UNL     1      -4.376   3.649  -2.373  0.00  0.00    +0.182 C 
BRANCH  29  30
ATOM     30  C   UNL     1      -5.721   4.054  -1.826  0.00  0.00    -0.026 A 
ATOM     31  C   UNL     1      -6.007   3.867  -0.486  0.00  0.00    +0.008 A 
ATOM     32  C   UNL     1      -7.237   4.242   0.017  0.00  0.00    +0.038 A 
ATOM     33  C   UNL     1      -8.189   4.797  -0.822  0.00  0.00    +0.123 A 
ATOM     34  C   UNL     1      -7.903   4.979  -2.165  0.00  0.00    +0.038 A 
ATOM     35  C   UNL     1      -6.670   4.608  -2.665  0.00  0.00    +0.008 A 
ATOM     36  F   UNL     1      -9.394   5.160  -0.332  0.00  0.00    -0.205 F 
ENDBRANCH  29  30
ENDBRANCH  28  29
ENDBRANCH   1  24
TORSDOF 6
