REMARK  Name = ZINC14231612
REMARK  12 active torsions:
REMARK  status: ('A' for Active; 'I' for Inactive)
REMARK    1  A    between atoms: C_1  and  C_2
REMARK    2  A    between atoms: C_2  and  C_3
REMARK    3  A    between atoms: C_2  and  C_4
REMARK    4  A    between atoms: C_2  and  N_5
REMARK    5  A    between atoms: N_5  and  S_6
REMARK    6  A    between atoms: S_6  and  C_9
REMARK    7  A    between atoms: C_12  and  C_15
REMARK    8  A    between atoms: N_17  and  C_18
REMARK    9  A    between atoms: C_18  and  C_19
REMARK   10  A    between atoms: N_21  and  C_22
REMARK   11  A    between atoms: C_22  and  C_23
REMARK   12  A    between atoms: C_23  and  N_74
REMARK                            x       y       z     vdW  Elec       q    Type
REMARK                         _______ _______ _______ _____ _____    ______ ____
ROOT
ATOM      1  C   UNL     1      -4.026   4.761   6.035  0.00  0.00    +0.244 C 
ATOM      2  O   UNL     1      -4.880   4.523   6.867  0.00  0.00    -0.270 OA
ATOM      3  N   UNL     1      -3.402   5.956   6.034  0.00  0.00    -0.303 N 
ATOM      4  H   UNL     1      -2.720   6.146   5.370  0.00  0.00    +0.150 HD
ENDROOT
BRANCH   1   8
ATOM      5  C   UNL     1      -3.010   1.830   3.133  0.00  0.00    +0.105 A 
ATOM      6  C   UNL     1      -2.364   3.054   3.132  0.00  0.00    +0.029 A 
ATOM      7  C   UNL     1      -2.692   4.012   4.069  0.00  0.00    +0.015 A 
ATOM      8  C   UNL     1      -3.672   3.741   5.025  0.00  0.00    +0.037 A 
ATOM      9  C   UNL     1      -4.317   2.503   5.024  0.00  0.00    +0.015 A 
ATOM     10  C   UNL     1      -3.982   1.556   4.079  0.00  0.00    +0.029 A 
BRANCH   5  11
ATOM     11  S   UNL     1      -2.589   0.614   1.929  0.00  0.00    +0.059 S 
ATOM     12  O   UNL     1      -2.702  -0.648   2.571  0.00  0.00    -0.153 OA
ATOM     13  O   UNL     1      -1.384   1.051   1.315  0.00  0.00    -0.153 OA
BRANCH  11  14
ATOM     14  N   UNL     1      -3.759   0.658   0.759  0.00  0.00    -0.185 NA
ATOM     15  H   UNL     1      -4.367  -0.091   0.652  0.00  0.00    +0.149 HD
BRANCH  14  17
ATOM     16  C   UNL     1      -2.642   1.919  -1.014  0.00  0.00    +0.029 C 
ATOM     17  C   UNL     1      -3.878   1.827  -0.116  0.00  0.00    +0.032 C 
ATOM     18  C   UNL     1      -5.130   1.690  -0.984  0.00  0.00    +0.029 C 
ATOM     19  C   UNL     1      -3.984   3.093   0.737  0.00  0.00    +0.029 C 
ENDBRANCH  14  17
ENDBRANCH  11  14
ENDBRANCH   5  11
ENDBRANCH   1   8
BRANCH   3  20
ATOM     20  C   UNL     1      -3.752   6.967   7.034  0.00  0.00    +0.200 C 
BRANCH  20  21
ATOM     21  C   UNL     1      -2.916   8.201   6.815  0.00  0.00    +0.230 C 
ATOM     22  O   UNL     1      -2.107   8.233   5.912  0.00  0.00    -0.274 OA
ATOM     23  N   UNL     1      -3.067   9.270   7.623  0.00  0.00    -0.315 N 
ATOM     24  H   UNL     1      -3.714   9.244   8.345  0.00  0.00    +0.149 HD
BRANCH  23  25
ATOM     25  C   UNL     1      -2.255  10.470   7.410  0.00  0.00    +0.092 C 
BRANCH  25  26
ATOM     26  C   UNL     1      -2.526  11.475   8.531  0.00  0.00    -0.050 C 
ATOM     27  C   UNL     1      -1.646  12.711   8.332  0.00  0.00    -0.010 C 
ATOM     28  C   UNL     1      -0.173  12.298   8.362  0.00  0.00    -0.001 C 
ATOM     29  C   UNL     1       0.148  11.655   9.713  0.00  0.00    -0.000 C 
ATOM     30  C   UNL     1      -0.731  10.420   9.912  0.00  0.00    -0.001 C 
ATOM     31  C   UNL     1      -2.204  10.832   9.881  0.00  0.00    -0.010 C 
BRANCH  26  37
ATOM     32  C   UNL     1      -4.309  12.410   7.186  0.00  0.00    -0.078 C 
ATOM     33  C   UNL     1      -5.815  12.675   7.146  0.00  0.00    -0.019 C 
ATOM     34  C   UNL     1      -6.183  13.672   8.248  0.00  0.00    -0.004 C 
ATOM     35  C   UNL     1      -5.745  13.108   9.602  0.00  0.00    -0.019 C 
ATOM     36  C   UNL     1      -4.241  12.830   9.572  0.00  0.00    -0.078 C 
ATOM     37  N   UNL     1      -3.956  11.846   8.506  0.00  0.00    +0.384 N 
ATOM     38  H   UNL     1      -4.521  11.005   8.670  0.00  0.00    -0.081 HD
ENDBRANCH  26  37
ENDBRANCH  25  26
ENDBRANCH  23  25
ENDBRANCH  20  21
ENDBRANCH   3  20
TORSDOF 9
