REMARK  Name = ZINC65577565
REMARK  4 active torsions:
REMARK  status: ('A' for Active; 'I' for Inactive)
REMARK    1  A    between atoms: C_1  and  C_2
REMARK    2  A    between atoms: C_5  and  C_7
REMARK    3  A    between atoms: C_14  and  C_16
REMARK    4  A    between atoms: C_16  and  C_17
REMARK                            x       y       z     vdW  Elec       q    Type
REMARK                         _______ _______ _______ _____ _____    ______ ____
ROOT
ATOM      1  C   UNL     1       0.042  -2.963   2.275  0.00  0.00    +0.132 C 
ATOM      2  C   UNL     1      -1.364  -3.519   2.524  0.00  0.00    +0.029 C 
ATOM      3  C   UNL     1      -1.302  -4.574   3.631  0.00  0.00    +0.004 C 
ATOM      4  C   UNL     1      -0.397  -5.726   3.191  0.00  0.00    +0.019 C 
ATOM      5  C   UNL     1       1.020  -5.194   2.950  0.00  0.00    +0.108 C 
ATOM      6  N   UNL     1       0.953  -4.080   1.995  0.00  0.00    -0.292 N 
ATOM      7  C   UNL     1       1.711  -4.085   0.880  0.00  0.00    +0.222 C 
ATOM      8  O   UNL     1       1.724  -3.115   0.151  0.00  0.00    -0.275 OA
ENDROOT
BRANCH   1  13
ATOM      9  C   UNL     1       0.978   1.274  -0.218  0.00  0.00    +0.066 C 
ATOM     10  C   UNL     1       0.405  -0.116  -0.107  0.00  0.00    +0.046 A 
ATOM     11  C   UNL     1      -0.244  -0.701  -1.146  0.00  0.00    +0.070 A 
ATOM     12  S   UNL     1      -0.669  -2.277  -0.423  0.00  0.00    -0.078 S 
ATOM     13  C   UNL     1       0.013  -2.026   1.095  0.00  0.00    +0.099 A 
ATOM     14  N   UNL     1       0.516  -0.820   1.001  0.00  0.00    -0.247 NA
ENDBRANCH   1  13
BRANCH   7  15
ATOM     15  C   UNL     1       2.543  -5.294   0.540  0.00  0.00    +0.152 C 
BRANCH  15  16
ATOM     16  C   UNL     1       3.290  -5.044  -0.745  0.00  0.00    +0.059 A 
ATOM     17  C   UNL     1       4.638  -5.175  -0.817  0.00  0.00    +0.072 A 
ATOM     18  S   UNL     1       4.920  -4.763  -2.531  0.00  0.00    -0.060 S 
ATOM     19  C   UNL     1       3.321  -4.472  -2.968  0.00  0.00    +0.168 A 
ATOM     20  N   UNL     1       2.661  -4.694  -1.852  0.00  0.00    -0.229 NA
ATOM     21  N   UNL     1       2.819  -4.095  -4.208  0.00  0.00    -0.233 N 
ATOM     22  C   UNL     1       3.621  -3.876  -5.421  0.00  0.00    +0.136 C 
ATOM     23  C   UNL     1       2.579  -3.481  -6.486  0.00  0.00    +0.125 C 
ATOM     24  N   UNL     1       1.301  -3.520  -5.760  0.00  0.00    -0.297 N 
ATOM     25  C   UNL     1       1.527  -3.879  -4.489  0.00  0.00    +0.308 C 
ATOM     26  O   UNL     1       0.641  -3.995  -3.665  0.00  0.00    -0.252 OA
ATOM     27  H   UNL     1       0.432  -3.321  -6.141  0.00  0.00    +0.150 HD
ENDBRANCH  15  16
ENDBRANCH   7  15
TORSDOF 3
