REMARK  Name = ZINC37006619
REMARK  10 active torsions:
REMARK  status: ('A' for Active; 'I' for Inactive)
REMARK    1  A    between atoms: C_1  and  C_2
REMARK    2  A    between atoms: C_5  and  C_39
REMARK    3  A    between atoms: N_8  and  C_10
REMARK    4  A    between atoms: C_10  and  C_11
REMARK    5  A    between atoms: C_11  and  C_12
REMARK    6  A    between atoms: C_12  and  N_13
REMARK    7  A    between atoms: C_14  and  C_16
REMARK    8  A    between atoms: C_16  and  C_38
REMARK    9  A    between atoms: N_29  and  C_30
REMARK   10  A    between atoms: C_30  and  C_31
REMARK                            x       y       z     vdW  Elec       q    Type
REMARK                         _______ _______ _______ _____ _____    ______ ____
ROOT
ATOM      1  C   UNL     1       7.354  -2.176   3.948  0.00  0.00    +0.129 C 
ATOM      2  C   UNL     1       7.993  -2.396   5.318  0.00  0.00    +0.157 C 
ATOM      3  N   UNL     1       7.752  -1.219   6.160  0.00  0.00    -0.334 N 
ATOM      4  C   UNL     1       7.624  -1.116   7.505  0.00  0.00    +0.050 A 
ATOM      5  C   UNL     1       7.660  -2.067   8.525  0.00  0.00    +0.026 A 
ATOM      6  C   UNL     1       7.494  -1.608   9.819  0.00  0.00    +0.002 A 
ATOM      7  C   UNL     1       7.300  -0.267  10.110  0.00  0.00    +0.001 A 
ATOM      8  C   UNL     1       7.258   0.693   9.132  0.00  0.00    +0.010 A 
ATOM      9  C   UNL     1       7.423   0.259   7.808  0.00  0.00    +0.001 A 
ATOM     10  C   UNL     1       7.429   0.960   6.589  0.00  0.00    +0.041 A 
ATOM     11  C   UNL     1       7.621   0.057   5.605  0.00  0.00    +0.106 A 
ATOM     12  C   UNL     1       7.686   0.251   4.145  0.00  0.00    +0.264 C 
ATOM     13  O   UNL     1       7.751   1.360   3.649  0.00  0.00    -0.268 OA
ATOM     14  N   UNL     1       7.670  -0.869   3.385  0.00  0.00    -0.276 N 
ATOM     15  C   UNL     1       7.854  -3.261   2.992  0.00  0.00    +0.043 C 
ENDROOT
BRANCH   1  17
ATOM     16  N   UNL     1       5.050  -1.759   3.150  0.00  0.00    -0.314 N 
ATOM     17  C   UNL     1       5.858  -2.299   4.084  0.00  0.00    +0.238 C 
ATOM     18  O   UNL     1       5.381  -2.884   5.033  0.00  0.00    -0.273 OA
ATOM     19  H   UNL     1       5.431  -1.356   2.353  0.00  0.00    +0.149 HD
BRANCH  16  20
ATOM     20  C   UNL     1       3.597  -1.780   3.337  0.00  0.00    +0.102 C 
BRANCH  20  21
ATOM     21  C   UNL     1       2.914  -1.218   2.089  0.00  0.00    +0.000 C 
BRANCH  21  22
ATOM     22  C   UNL     1       1.397  -1.351   2.234  0.00  0.00    -0.077 C 
BRANCH  22  28
ATOM     23  C   UNL     1       0.667   2.683  -0.442  0.00  0.00    +0.005 C 
ATOM     24  C   UNL     1       0.392   1.181  -0.348  0.00  0.00    -0.031 C 
ATOM     25  C   UNL     1      -1.119   0.937  -0.333  0.00  0.00    +0.003 C 
ATOM     26  C   UNL     1      -1.384  -0.561  -0.160  0.00  0.00    -0.031 C 
ATOM     27  C   UNL     1      -0.705  -1.048   1.123  0.00  0.00    -0.076 C 
ATOM     28  N   UNL     1       0.741  -0.812   1.035  0.00  0.00    +0.380 N 
ATOM     29  C   UNL     1       1.006   0.629   0.941  0.00  0.00    -0.076 C 
ATOM     30  C   UNL     1      -2.891  -0.807  -0.066  0.00  0.00    +0.005 C 
ATOM     31  H   UNL     1       1.107  -1.274   0.217  0.00  0.00    -0.082 HD
ENDBRANCH  22  28
ENDBRANCH  21  22
ENDBRANCH  20  21
ENDBRANCH  16  20
ENDBRANCH   1  17
BRANCH  14  32
ATOM     32  C   UNL     1       7.980  -0.765   1.957  0.00  0.00    +0.144 C 
BRANCH  32  33
ATOM     33  C   UNL     1       9.474  -0.792   1.764  0.00  0.00    -0.030 A 
ATOM     34  C   UNL     1      10.210   0.370   1.905  0.00  0.00    +0.008 A 
ATOM     35  C   UNL     1      11.581   0.346   1.729  0.00  0.00    +0.038 A 
ATOM     36  C   UNL     1      12.217  -0.841   1.411  0.00  0.00    +0.123 A 
ATOM     37  C   UNL     1      11.479  -2.004   1.269  0.00  0.00    +0.038 A 
ATOM     38  C   UNL     1      10.109  -1.980   1.451  0.00  0.00    +0.008 A 
ATOM     39  F   UNL     1      13.556  -0.865   1.238  0.00  0.00    -0.205 F 
ENDBRANCH  32  33
ENDBRANCH  14  32
TORSDOF 7
