REMARK  Name = ZINC01283594
REMARK  8 active torsions:
REMARK  status: ('A' for Active; 'I' for Inactive)
REMARK    1  A    between atoms: C_1  and  C_2
REMARK    2  A    between atoms: C_3  and  C_26
REMARK    3  A    between atoms: C_4  and  C_21
REMARK    4  A    between atoms: C_9  and  S_11
REMARK    5  A    between atoms: S_11  and  C_12
REMARK    6  A    between atoms: C_12  and  C_13
REMARK    7  A    between atoms: C_26  and  O_28
REMARK    8  A    between atoms: O_28  and  C_29
REMARK                            x       y       z     vdW  Elec       q    Type
REMARK                         _______ _______ _______ _____ _____    ______ ____
ROOT
ATOM      1  C   UNL     1      -0.018   1.503   0.010  0.00  0.00    +0.061 C 
ATOM      2  C   UNL     1       0.002  -0.004   0.002  0.00  0.00    +0.020 C 
ATOM      3  C   UNL     1      -1.164  -0.669   0.004  0.00  0.00    +0.082 C 
ATOM      4  C   UNL     1      -1.253  -2.171  -0.016  0.00  0.00    +0.186 C 
ATOM      5  N   UNL     1       0.065  -2.740   0.256  0.00  0.00    -0.219 N 
ATOM      6  C   UNL     1       1.210  -2.015   0.250  0.00  0.00    +0.219 A 
ATOM      7  N   UNL     1       2.201  -2.820   0.521  0.00  0.00    -0.187 NA
ATOM      8  C   UNL     1       1.731  -4.062   0.710  0.00  0.00    +0.211 A 
ATOM      9  N   UNL     1       0.424  -4.053   0.557  0.00  0.00    -0.141 NA
ATOM     10  N   UNL     1       1.212  -0.651  -0.013  0.00  0.00    -0.287 N 
ATOM     11  H   UNL     1       2.037  -0.173  -0.196  0.00  0.00    +0.155 HD
ENDROOT
BRANCH   4  12
ATOM     12  C   UNL     1      -1.728  -2.629  -1.371  0.00  0.00    +0.019 A 
ATOM     13  C   UNL     1      -2.839  -3.337  -1.691  0.00  0.00    +0.013 A 
ATOM     14  C   UNL     1      -3.077  -3.647  -3.017  0.00  0.00    +0.008 A 
ATOM     15  C   UNL     1      -2.192  -3.234  -3.958  0.00  0.00    +0.045 A 
ATOM     16  S   UNL     1      -0.979  -2.372  -2.971  0.00  0.00    -0.099 S 
ENDBRANCH   4  12
BRANCH   3  17
ATOM     17  C   UNL     1      -2.364   0.077   0.026  0.00  0.00    +0.339 C 
ATOM     18  O   UNL     1      -2.324   1.293   0.043  0.00  0.00    -0.245 OA
BRANCH  17  19
ATOM     19  O   UNL     1      -3.554  -0.560   0.029  0.00  0.00    -0.465 OA
ATOM     20  C   UNL     1      -4.726   0.257   0.052  0.00  0.00    +0.280 C 
ENDBRANCH  17  19
ENDBRANCH   3  17
BRANCH   8  21
ATOM     21  S   UNL     1       2.706  -5.476   1.101  0.00  0.00    -0.080 S 
BRANCH  21  22
ATOM     22  C   UNL     1       4.401  -4.835   1.173  0.00  0.00    +0.114 C 
BRANCH  22  23
ATOM     23  C   UNL     1       5.349  -5.959   1.504  0.00  0.00    -0.019 A 
ATOM     24  C   UNL     1       5.644  -6.249   2.823  0.00  0.00    +0.006 A 
ATOM     25  C   UNL     1       6.514  -7.279   3.127  0.00  0.00    +0.000 A 
ATOM     26  C   UNL     1       7.090  -8.020   2.112  0.00  0.00    +0.001 A 
ATOM     27  C   UNL     1       6.796  -7.731   0.792  0.00  0.00    +0.020 A 
ATOM     28  C   UNL     1       5.921  -6.704   0.488  0.00  0.00    +0.045 A 
ATOM     29 CL   UNL     1       5.546  -6.344  -1.169  0.00  0.00    -0.083 Cl
ENDBRANCH  22  23
ENDBRANCH  21  22
ENDBRANCH   8  21
TORSDOF 6
