REMARK  Name = ZINC37152414
REMARK  4 active torsions:
REMARK  status: ('A' for Active; 'I' for Inactive)
REMARK    1  A    between atoms: C_2  and  C_11
REMARK    2  A    between atoms: C_11  and  N_12
REMARK    3  A    between atoms: N_12  and  C_13
REMARK    4  A    between atoms: C_16  and  C_19
REMARK                            x       y       z     vdW  Elec       q    Type
REMARK                         _______ _______ _______ _____ _____    ______ ____
ROOT
ATOM      1  N   UNL     1       1.153   4.079   1.398  0.00  0.00    +0.384 N 
ATOM      2  H   UNL     1       0.339   3.727   1.879  0.00  0.00    -0.085 HD
ATOM      3  H   UNL     1       1.986   3.753   1.864  0.00  0.00    -0.085 HD
ENDROOT
BRANCH   1   4
ATOM      4  C   UNL     1       1.129   5.547   1.406  0.00  0.00    -0.071 C 
ATOM      5  C   UNL     1      -0.192   6.040   0.812  0.00  0.00    -0.015 C 
ATOM      6  C   UNL     1      -0.215   7.570   0.820  0.00  0.00    +0.011 C 
ATOM      7  C   UNL     1      -0.084   8.074   2.259  0.00  0.00    +0.075 C 
ATOM      8  C   UNL     1       1.237   7.581   2.853  0.00  0.00    +0.011 C 
ATOM      9  C   UNL     1       1.261   6.052   2.845  0.00  0.00    -0.015 C 
BRANCH   7  10
ATOM     10  C   UNL     1      -0.108   9.581   2.267  0.00  0.00    +0.214 C 
ATOM     11  O   UNL     1      -0.219  10.191   1.225  0.00  0.00    -0.276 OA
ATOM     12  N   UNL     1      -0.006  10.250   3.432  0.00  0.00    -0.329 N 
ATOM     13  H   UNL     1       0.083   9.762   4.266  0.00  0.00    +0.145 HD
ATOM     14  H   UNL     1      -0.021  11.220   3.438  0.00  0.00    +0.145 HD
ENDBRANCH   7  10
ENDBRANCH   1   4
BRANCH   1  15
ATOM     15  C   UNL     1       1.147   3.596   0.010  0.00  0.00    -0.046 C 
BRANCH  15  17
ATOM     16  C   UNL     1      -0.017   1.381   0.010  0.00  0.00    +0.051 A 
ATOM     17  C   UNL     1       1.171   2.090   0.002  0.00  0.00    -0.060 A 
ATOM     18  C   UNL     1       2.379   1.419  -0.013  0.00  0.00    +0.021 A 
ATOM     19  C   UNL     1       2.406   0.036  -0.021  0.00  0.00    +0.063 A 
ATOM     20  C   UNL     1       1.220  -0.680  -0.014  0.00  0.00    +0.180 A 
ATOM     21  C   UNL     1       0.002  -0.004   0.002  0.00  0.00    +0.168 A 
ATOM     22  O   UNL     1      -1.007  -0.923   0.006  0.00  0.00    -0.453 OA
ATOM     23  C   UNL     1      -0.404  -2.159  -0.419  0.00  0.00    +0.466 C 
ATOM     24  O   UNL     1       0.973  -2.023  -0.020  0.00  0.00    -0.451 OA
ATOM     25 BR   UNL     1       4.061  -0.877  -0.043  0.00  0.00    -0.046 Br
ENDBRANCH  15  17
ENDBRANCH   1  15
TORSDOF 4
