REMARK  Name = ZINC02769881
REMARK  9 active torsions:
REMARK  status: ('A' for Active; 'I' for Inactive)
REMARK    1  A    between atoms: C_1  and  C_2
REMARK    2  A    between atoms: C_2  and  O_3
REMARK    3  A    between atoms: O_3  and  C_4
REMARK    4  A    between atoms: C_4  and  C_6
REMARK    5  A    between atoms: C_7  and  N_32
REMARK    6  A    between atoms: C_11  and  C_13
REMARK    7  A    between atoms: C_16  and  C_18
REMARK    8  A    between atoms: C_18  and  O_19
REMARK    9  A    between atoms: O_19  and  C_20
REMARK                            x       y       z     vdW  Elec       q    Type
REMARK                         _______ _______ _______ _____ _____    ______ ____
ROOT
ATOM      1  C   UNL     1       1.143   5.242  -1.214  0.00  0.00    +0.108 C 
ATOM      2  C   UNL     1       0.498   6.429  -1.097  0.00  0.00    +0.195 C 
ATOM      3  O   UNL     1      -0.023   6.826   0.073  0.00  0.00    -0.446 OA
ATOM      4  C   UNL     1       0.439   6.302   1.224  0.00  0.00    +0.115 C 
ATOM      5  C   UNL     1       1.071   5.114   1.249  0.00  0.00    +0.048 C 
ATOM      6  C   UNL     1       1.296   4.336  -0.025  0.00  0.00    +0.133 C 
ATOM      7  C   UNL     1       1.538   4.559   2.457  0.00  0.00    +0.163 C 
ATOM      8  O   UNL     1       2.118   3.492   2.437  0.00  0.00    -0.292 OA
ATOM      9  C   UNL     1       1.331   5.264   3.770  0.00  0.00    +0.080 C 
ATOM     10  C   UNL     1       0.069   6.127   3.675  0.00  0.00    +0.016 C 
ATOM     11  C   UNL     1       0.226   7.089   2.496  0.00  0.00    +0.075 C 
ENDROOT
BRANCH   6  12
ATOM     12  C   UNL     1       0.288   3.220  -0.114  0.00  0.00    +0.118 A 
ATOM     13  C   UNL     1       0.573   1.906  -0.176  0.00  0.00    +0.046 A 
ATOM     14  C   UNL     1      -0.663   1.223  -0.247  0.00  0.00    +0.048 A 
ATOM     15  C   UNL     1      -1.628   2.160  -0.230  0.00  0.00    +0.142 A 
ATOM     16  O   UNL     1      -1.046   3.367  -0.144  0.00  0.00    -0.460 OA
BRANCH  15  17
ATOM     17  C   UNL     1      -3.111   1.899  -0.293  0.00  0.00    +0.303 C 
BRANCH  17  18
ATOM     18  O   UNL     1      -3.624   1.745   1.032  0.00  0.00    -0.483 OA
BRANCH  18  19
ATOM     19  C   UNL     1      -4.956   1.502   1.153  0.00  0.00    +0.135 A 
ATOM     20  C   UNL     1      -5.753   1.419   0.021  0.00  0.00    +0.047 A 
ATOM     21  C   UNL     1      -7.106   1.167   0.146  0.00  0.00    +0.004 A 
ATOM     22  C   UNL     1      -7.667   1.008   1.400  0.00  0.00    +0.001 A 
ATOM     23  C   UNL     1      -6.877   1.095   2.530  0.00  0.00    +0.019 A 
ATOM     24  C   UNL     1      -5.522   1.342   2.410  0.00  0.00    +0.059 A 
ATOM     25 BR   UNL     1      -4.441   1.463   3.957  0.00  0.00    -0.047 Br
ENDBRANCH  18  19
ENDBRANCH  17  18
ENDBRANCH  15  17
ENDBRANCH   6  12
BRANCH   2  26
ATOM     26  N   UNL     1       0.375   7.239  -2.195  0.00  0.00    -0.329 N 
ATOM     27  H   UNL     1      -0.158   8.048  -2.144  0.00  0.00    +0.145 HD
ATOM     28  H   UNL     1       0.820   7.003  -3.024  0.00  0.00    +0.145 HD
ENDBRANCH   2  26
BRANCH   1  29
ATOM     29  C   UNL     1       1.671   4.859  -2.457  0.00  0.00    +0.341 C 
ATOM     30  O   UNL     1       2.864   4.977  -2.674  0.00  0.00    -0.245 OA
BRANCH  29  31
ATOM     31  O   UNL     1       0.857   4.359  -3.411  0.00  0.00    -0.462 OA
BRANCH  31  33
ATOM     32  C   UNL     1       0.391   3.448  -5.601  0.00  0.00    +0.048 C 
ATOM     33  C   UNL     1       1.463   3.989  -4.652  0.00  0.00    +0.229 C 
ENDBRANCH  31  33
ENDBRANCH  29  31
ENDBRANCH   1  29
TORSDOF 8
