REMARK  Name = ZINC25080146
REMARK  9 active torsions:
REMARK  status: ('A' for Active; 'I' for Inactive)
REMARK    1  A    between atoms: C_1  and  C_2
REMARK    2  A    between atoms: C_3  and  C_16
REMARK    3  A    between atoms: C_4  and  C_15
REMARK    4  A    between atoms: C_16  and  C_17
REMARK    5  A    between atoms: C_17  and  C_18
REMARK    6  A    between atoms: N_20  and  C_21
REMARK    7  A    between atoms: C_21  and  C_22
REMARK    8  A    between atoms: C_22  and  C_24
REMARK    9  A    between atoms: C_22  and  N_29
REMARK                            x       y       z     vdW  Elec       q    Type
REMARK                         _______ _______ _______ _____ _____    ______ ____
ROOT
ATOM      1  C   UNL     1       0.318  -2.737   1.242  0.00  0.00    +0.100 C 
ENDROOT
BRANCH   1   2
ATOM      2  C   UNL     1      -0.231  -1.357   0.987  0.00  0.00    +0.213 C 
ATOM      3  O   UNL     1      -1.414  -1.137   1.139  0.00  0.00    -0.276 OA
ATOM      4  N   UNL     1       0.593  -0.367   0.590  0.00  0.00    -0.317 N 
ATOM      5  H   UNL     1       1.666  -0.566   0.452  0.00  0.00    +0.149 HD
BRANCH   4   6
ATOM      6  C   UNL     1       0.060   0.975   0.343  0.00  0.00    +0.094 C 
BRANCH   6   7
ATOM      7  C   UNL     1       1.157   1.857  -0.256  0.00  0.00    -0.013 C 
BRANCH   7   8
ATOM      8  N   UNL     1       1.585   1.299  -1.546  0.00  0.00    +0.386 N 
ATOM      9  C   UNL     1       2.487   2.239  -2.260  0.00  0.00    -0.078 C 
ATOM     10  C   UNL     1       3.228   1.323  -3.267  0.00  0.00    -0.020 C 
ATOM     11  C   UNL     1       3.434   0.019  -2.461  0.00  0.00    -0.020 C 
ATOM     12  C   UNL     1       2.366   0.058  -1.353  0.00  0.00    -0.078 C 
ATOM     13  H   UNL     1       0.661   1.110  -2.112  0.00  0.00    -0.081 HD
ENDBRANCH   7   8
BRANCH   7  14
ATOM     14  C   UNL     1       0.623   3.251  -0.465  0.00  0.00    -0.022 A 
ATOM     15  C   UNL     1       0.882   4.379   0.241  0.00  0.00    +0.009 A 
ATOM     16  C   UNL     1       0.274   5.561  -0.138  0.00  0.00    +0.008 A 
ATOM     17  C   UNL     1      -0.571   5.556  -1.198  0.00  0.00    +0.045 A 
ATOM     18  S   UNL     1      -0.521   3.843  -1.701  0.00  0.00    -0.103 S 
ENDBRANCH   7  14
ENDBRANCH   6   7
ENDBRANCH   4   6
ENDBRANCH   1   2
BRANCH   1  19
ATOM     19  C   UNL     1      -0.818  -3.665   1.677  0.00  0.00    +0.048 C 
BRANCH  19  22
ATOM     20  C   UNL     1       0.139  -4.397   4.330  0.00  0.00    +0.066 C 
ATOM     21  C   UNL     1       0.190  -5.399   3.205  0.00  0.00    +0.045 A 
ATOM     22  C   UNL     1      -0.270  -5.045   1.932  0.00  0.00    -0.005 A 
ATOM     23  C   UNL     1      -0.222  -5.960   0.930  0.00  0.00    +0.047 A 
ATOM     24  N   UNL     1       0.283  -7.201   1.185  0.00  0.00    -0.217 N 
ATOM     25  C   UNL     1       0.723  -7.507   2.441  0.00  0.00    +0.164 A 
ATOM     26  N   UNL     1       0.668  -6.606   3.421  0.00  0.00    -0.232 NA
ATOM     27  C   UNL     1       1.178  -8.843   2.405  0.00  0.00    +0.046 A 
ATOM     28  C   UNL     1       1.732  -9.699   3.367  0.00  0.00    +0.014 A 
ATOM     29  C   UNL     1       2.082 -10.969   3.021  0.00  0.00    +0.001 A 
ATOM     30  C   UNL     1       1.898 -11.432   1.719  0.00  0.00    +0.002 A 
ATOM     31  C   UNL     1       1.365 -10.632   0.758  0.00  0.00    +0.030 A 
ATOM     32  C   UNL     1       0.989  -9.310   1.077  0.00  0.00    +0.095 A 
ATOM     33  N   UNL     1       0.457  -8.322   0.365  0.00  0.00    -0.165 NA
ATOM     34  C   UNL     1      -0.717  -5.607  -0.449  0.00  0.00    +0.066 C 
ENDBRANCH  19  22
ENDBRANCH   1  19
TORSDOF 7
