REMARK  Name = ZINC09329471
REMARK  7 active torsions:
REMARK  status: ('A' for Active; 'I' for Inactive)
REMARK    1  A    between atoms: C_1  and  C_2
REMARK    2  A    between atoms: C_2  and  C_26
REMARK    3  A    between atoms: N_3  and  N_4
REMARK    4  A    between atoms: C_5  and  C_7
REMARK    5  A    between atoms: C_8  and  C_18
REMARK    6  A    between atoms: C_18  and  O_19
REMARK    7  A    between atoms: O_19  and  C_20
REMARK                            x       y       z     vdW  Elec       q    Type
REMARK                         _______ _______ _______ _____ _____    ______ ____
ROOT
ATOM      1  C   UNL     1       0.046   0.085   4.784  0.00  0.00    +0.175 A 
ATOM      2  C   UNL     1       0.071  -0.482   6.027  0.00  0.00    +0.116 A 
ATOM      3  N   UNL     1       0.064   0.533   6.919  0.00  0.00    -0.189 N 
ATOM      4  N   UNL     1       0.035   1.723   6.178  0.00  0.00    -0.058 NA
ATOM      5  N   UNL     1       0.030   1.422   4.926  0.00  0.00    -0.124 NA
ATOM      6  C   UNL     1       0.083   0.418   8.314  0.00  0.00    +0.240 A 
ATOM      7  C   UNL     1       0.069   1.532   9.266  0.00  0.00    +0.206 A 
ATOM      8  N   UNL     1       0.094   1.039  10.474  0.00  0.00    -0.032 NA
ATOM      9  O   UNL     1       0.123  -0.373  10.366  0.00  0.00    -0.239 OA
ATOM     10  N   UNL     1       0.109  -0.697   8.987  0.00  0.00    -0.027 NA
ATOM     11  N   UNL     1       0.036   2.883   8.939  0.00  0.00    -0.337 N 
ATOM     12  H   UNL     1       0.020   3.156   8.008  0.00  0.00    +0.144 HD
ATOM     13  H   UNL     1       0.030   3.552   9.641  0.00  0.00    +0.144 HD
ENDROOT
BRANCH   1  15
ATOM     14  N   UNL     1       0.024   0.035   2.339  0.00  0.00    -0.201 N 
ATOM     15  C   UNL     1       0.044  -0.645   3.503  0.00  0.00    +0.285 C 
ATOM     16  O   UNL     1       0.060  -1.861   3.496  0.00  0.00    -0.267 OA
ATOM     17  H   UNL     1       0.011   1.005   2.345  0.00  0.00    +0.178 HD
BRANCH  14  20
ATOM     18  C   UNL     1      -0.018   1.503   0.010  0.00  0.00    +0.068 C 
ATOM     19  C   UNL     1       0.002  -0.004   0.002  0.00  0.00    +0.065 C 
ATOM     20  N   UNL     1       0.022  -0.659   1.122  0.00  0.00    -0.184 NA
BRANCH  19  21
ATOM     21  C   UNL     1      -0.000  -0.734  -1.279  0.00  0.00    +0.016 A 
ATOM     22  C   UNL     1      -0.015  -0.033  -2.487  0.00  0.00    +0.011 A 
ATOM     23  C   UNL     1      -0.017  -0.722  -3.681  0.00  0.00    +0.001 A 
ATOM     24  C   UNL     1      -0.005  -2.106  -3.686  0.00  0.00    +0.001 A 
ATOM     25  C   UNL     1       0.010  -2.809  -2.494  0.00  0.00    +0.020 A 
ATOM     26  C   UNL     1       0.019  -2.132  -1.291  0.00  0.00    +0.050 A 
ATOM     27 CL   UNL     1       0.046  -3.015   0.204  0.00  0.00    -0.083 Cl
ENDBRANCH  19  21
ENDBRANCH  14  20
ENDBRANCH   1  15
BRANCH   2  28
ATOM     28  C   UNL     1       0.101  -1.955   6.341  0.00  0.00    +0.287 C 
BRANCH  28  29
ATOM     29  O   UNL     1      -1.237  -2.445   6.457  0.00  0.00    -0.486 OA
BRANCH  29  30
ATOM     30  C   UNL     1      -1.389  -3.765   6.740  0.00  0.00    +0.121 A 
ATOM     31  C   UNL     1      -0.273  -4.572   6.910  0.00  0.00    +0.045 A 
ATOM     32  C   UNL     1      -0.430  -5.914   7.198  0.00  0.00    +0.004 A 
ATOM     33  C   UNL     1      -1.698  -6.453   7.318  0.00  0.00    +0.000 A 
ATOM     34  C   UNL     1      -2.811  -5.651   7.149  0.00  0.00    +0.004 A 
ATOM     35  C   UNL     1      -2.660  -4.307   6.866  0.00  0.00    +0.045 A 
ENDBRANCH  29  30
ENDBRANCH  28  29
ENDBRANCH   2  28
TORSDOF 6
