REMARK  Name = ZINC58891869
REMARK  7 active torsions:
REMARK  status: ('A' for Active; 'I' for Inactive)
REMARK    1  A    between atoms: C_1  and  N_2
REMARK    2  A    between atoms: N_2  and  C_3
REMARK    3  A    between atoms: N_2  and  C_4
REMARK    4  A    between atoms: C_4  and  C_6
REMARK    5  A    between atoms: C_4  and  C_19
REMARK    6  A    between atoms: C_6  and  N_7
REMARK    7  A    between atoms: N_10  and  C_11
REMARK                            x       y       z     vdW  Elec       q    Type
REMARK                         _______ _______ _______ _____ _____    ______ ____
ROOT
ATOM      1  N   UNL     1      -1.181  -2.659   1.129  0.00  0.00    -0.300 N 
ATOM      2  C   UNL     1      -1.412  -3.972   1.322  0.00  0.00    +0.304 C 
ATOM      3  O   UNL     1      -2.010  -4.615   0.481  0.00  0.00    -0.253 OA
ATOM      4  N   UNL     1      -0.981  -4.574   2.448  0.00  0.00    -0.268 N 
ATOM      5  H   UNL     1      -0.704  -2.146   1.800  0.00  0.00    +0.150 HD
ATOM      6  H   UNL     1      -0.560  -4.049   3.147  0.00  0.00    +0.156 HD
ENDROOT
BRANCH   4   7
ATOM      7  C   UNL     1      -1.139  -5.955   2.609  0.00  0.00    +0.050 A 
ATOM      8  C   UNL     1      -1.084  -6.795   1.504  0.00  0.00    +0.039 A 
ATOM      9  C   UNL     1      -1.240  -8.159   1.666  0.00  0.00    +0.020 A 
ATOM     10  C   UNL     1      -1.452  -8.687   2.928  0.00  0.00    +0.016 A 
ATOM     11  C   UNL     1      -1.508  -7.854   4.029  0.00  0.00    +0.018 A 
ATOM     12  C   UNL     1      -1.346  -6.490   3.874  0.00  0.00    +0.039 A 
ATOM     13 BR   UNL     1      -1.414  -5.352   5.383  0.00  0.00    -0.048 Br
ATOM     14 BR   UNL     1      -1.166  -9.303   0.163  0.00  0.00    -0.050 Br
ENDBRANCH   4   7
BRANCH   1  15
ATOM     15  C   UNL     1      -1.651  -2.005  -0.096  0.00  0.00    +0.098 C 
BRANCH  15  16
ATOM     16  C   UNL     1      -1.375  -0.503  -0.009  0.00  0.00    +0.016 C 
BRANCH  16  17
ATOM     17  C   UNL     1       0.113  -0.266   0.019  0.00  0.00    +0.093 A 
ATOM     18  C   UNL     1       0.870   0.109  -1.028  0.00  0.00    +0.043 A 
ATOM     19  C   UNL     1       2.199   0.213  -0.557  0.00  0.00    +0.041 A 
ATOM     20  C   UNL     1       2.175  -0.104   0.750  0.00  0.00    +0.195 A 
ATOM     21  O   UNL     1       0.908  -0.388   1.094  0.00  0.00    -0.469 OA
ENDBRANCH  16  17
BRANCH  16  23
ATOM     22  C   UNL     1      -1.796   1.494   1.252  0.00  0.00    -0.096 C 
ATOM     23  N   UNL     1      -1.980   0.037   1.216  0.00  0.00    +0.384 N 
ATOM     24  C   UNL     1      -3.414  -0.277   1.233  0.00  0.00    -0.096 C 
ATOM     25  H   UNL     1      -1.535  -0.378   2.021  0.00  0.00    -0.082 HD
ENDBRANCH  16  23
ENDBRANCH  15  16
ENDBRANCH   1  15
TORSDOF 5
