REMARK  Name = ZINC08984209
REMARK  10 active torsions:
REMARK  status: ('A' for Active; 'I' for Inactive)
REMARK    1  A    between atoms: C_1  and  C_2
REMARK    2  A    between atoms: C_3  and  C_33
REMARK    3  A    between atoms: N_6  and  C_25
REMARK    4  A    between atoms: C_7  and  N_56
REMARK    5  A    between atoms: C_9  and  C_11
REMARK    6  A    between atoms: C_9  and  C_21
REMARK    7  A    between atoms: C_9  and  N_56
REMARK    8  A    between atoms: C_21  and  O_23
REMARK    9  A    between atoms: O_23  and  C_24
REMARK   10  A    between atoms: C_25  and  C_26
REMARK                            x       y       z     vdW  Elec       q    Type
REMARK                         _______ _______ _______ _____ _____    ______ ____
ROOT
ATOM      1  N   UNL     1      -5.884   1.726   0.931  0.00  0.00    +0.405 N 
ATOM      2  H   UNL     1      -5.368   2.115   1.729  0.00  0.00    -0.081 HD
ATOM      3  H   UNL     1      -6.347   2.486   0.419  0.00  0.00    -0.081 HD
ENDROOT
BRANCH   1  10
ATOM      4  C   UNL     1      -8.980   1.929   0.148  0.00  0.00    +0.039 C 
ATOM      5  C   UNL     1      -8.269   1.425   1.378  0.00  0.00    -0.062 C 
ATOM      6  C   UNL     1      -8.725   1.462   2.626  0.00  0.00    +0.010 C 
ATOM      7  C   UNL     1      -7.736   0.873   3.534  0.00  0.00    +0.241 C 
ATOM      8  O   UNL     1      -7.870   0.766   4.738  0.00  0.00    -0.270 OA
ATOM      9  N   UNL     1      -6.657   0.467   2.838  0.00  0.00    -0.304 N 
ATOM     10  C   UNL     1      -6.903   0.780   1.425  0.00  0.00    +0.048 C 
ATOM     11  C   UNL     1     -10.059   2.026   3.045  0.00  0.00    +0.049 C 
BRANCH   9  12
ATOM     12  C   UNL     1      -5.458  -0.170   3.390  0.00  0.00    +0.141 C 
BRANCH  12  13
ATOM     13  C   UNL     1      -4.451   0.889   3.759  0.00  0.00    -0.030 A 
ATOM     14  C   UNL     1      -3.515   1.305   2.830  0.00  0.00    +0.008 A 
ATOM     15  C   UNL     1      -2.594   2.279   3.166  0.00  0.00    +0.038 A 
ATOM     16  C   UNL     1      -2.603   2.832   4.436  0.00  0.00    +0.123 A 
ATOM     17  C   UNL     1      -3.538   2.410   5.366  0.00  0.00    +0.038 A 
ATOM     18  C   UNL     1      -4.461   1.440   5.027  0.00  0.00    +0.008 A 
ATOM     19  F   UNL     1      -1.700   3.781   4.766  0.00  0.00    -0.205 F 
ENDBRANCH  12  13
ENDBRANCH   9  12
ENDBRANCH   1  10
BRANCH   1  20
ATOM     20  C   UNL     1      -4.941   1.037   0.030  0.00  0.00    +0.073 C 
BRANCH  20  21
ATOM     21  C   UNL     1      -3.629   1.779   0.028  0.00  0.00    -0.050 A 
ATOM     22  C   UNL     1      -3.628   3.172   0.036  0.00  0.00    +0.003 A 
ATOM     23  C   UNL     1      -2.461   3.872   0.045  0.00  0.00    +0.009 A 
ATOM     24  C   UNL     1      -1.236   3.183   0.030  0.00  0.00    -0.018 A 
ATOM     25  C   UNL     1      -0.011   3.871   0.022  0.00  0.00    +0.008 A 
ATOM     26  C   UNL     1       1.155   3.170   0.007  0.00  0.00    +0.001 A 
ATOM     27  C   UNL     1       1.155   1.776   0.001  0.00  0.00    +0.001 A 
ATOM     28  C   UNL     1      -0.013   1.076   0.008  0.00  0.00    +0.008 A 
ATOM     29  C   UNL     1      -1.237   1.766   0.018  0.00  0.00    -0.018 A 
ATOM     30  C   UNL     1      -2.462   1.077   0.019  0.00  0.00    +0.011 A 
ENDBRANCH  20  21
BRANCH  20  31
ATOM     31  C   UNL     1      -5.506   1.012  -1.366  0.00  0.00    +0.297 C 
ATOM     32  O   UNL     1      -6.584   1.508  -1.591  0.00  0.00    -0.252 OA
BRANCH  31  33
ATOM     33  O   UNL     1      -4.811   0.439  -2.361  0.00  0.00    -0.469 OA
ATOM     34  C   UNL     1      -5.416   0.451  -3.681  0.00  0.00    +0.280 C 
ENDBRANCH  31  33
ENDBRANCH  20  31
ENDBRANCH   1  20
TORSDOF 7
