REMARK  Name = ZINC48548038
REMARK  6 active torsions:
REMARK  status: ('A' for Active; 'I' for Inactive)
REMARK    1  A    between atoms: C_1  and  C_2
REMARK    2  A    between atoms: C_2  and  C_4
REMARK    3  A    between atoms: C_2  and  C_15
REMARK    4  A    between atoms: C_15  and  C_21
REMARK    5  A    between atoms: N_16  and  N_17
REMARK    6  A    between atoms: C_24  and  O_27
REMARK                            x       y       z     vdW  Elec       q    Type
REMARK                         _______ _______ _______ _____ _____    ______ ____
ROOT
ATOM      1  C   UNL     1       0.864  -0.616  -1.224  0.00  0.00    +0.073 C 
ATOM      2  N   UNL     1       1.950  -1.308  -1.062  0.00  0.00    -0.183 NA
ENDROOT
BRANCH   2   3
ATOM      3  N   UNL     1       2.523  -1.425   0.210  0.00  0.00    -0.191 N 
ATOM      4  C   UNL     1       3.703  -2.058   0.362  0.00  0.00    +0.317 C 
ATOM      5  O   UNL     1       4.201  -2.159   1.467  0.00  0.00    -0.251 OA
ATOM      6  N   UNL     1       4.331  -2.580  -0.710  0.00  0.00    -0.312 N 
ATOM      7  H   UNL     1       2.072  -1.049   0.982  0.00  0.00    +0.179 HD
ATOM      8  H   UNL     1       3.934  -2.499  -1.591  0.00  0.00    +0.147 HD
ATOM      9  H   UNL     1       5.180  -3.036  -0.601  0.00  0.00    +0.147 HD
ENDBRANCH   2   3
BRANCH   1  10
ATOM     10  C   UNL     1       0.334  -0.382  -2.580  0.00  0.00    -0.002 A 
ATOM     11  C   UNL     1      -0.815   0.393  -2.759  0.00  0.00    +0.013 A 
ATOM     12  C   UNL     1      -1.307   0.610  -4.028  0.00  0.00    +0.046 A 
ATOM     13  C   UNL     1      -0.663   0.058  -5.128  0.00  0.00    +0.117 A 
ATOM     14  C   UNL     1       0.479  -0.714  -4.955  0.00  0.00    +0.046 A 
ATOM     15  C   UNL     1       0.981  -0.931  -3.690  0.00  0.00    +0.013 A 
BRANCH  13  16
ATOM     16  O   UNL     1      -1.152   0.273  -6.377  0.00  0.00    -0.507 OA
ATOM     17  H   UNL     1      -0.793   1.060  -6.809  0.00  0.00    +0.292 HD
ENDBRANCH  13  16
ENDBRANCH   1  10
BRANCH   1  19
ATOM     18  C   UNL     1      -1.284  -0.592   0.014  0.00  0.00    +0.018 C 
ATOM     19  C   UNL     1       0.146  -0.050  -0.026  0.00  0.00    +0.082 C 
BRANCH  19  20
ATOM     20  C   UNL     1       0.111   1.476  -0.126  0.00  0.00    +0.216 C 
ATOM     21  C   UNL     1      -0.412   2.065   1.159  0.00  0.00    +0.007 A 
ATOM     22  C   UNL     1      -1.601   1.948   1.841  0.00  0.00    +0.008 A 
ATOM     23  C   UNL     1      -1.786   2.634   3.029  0.00  0.00    +0.000 A 
ATOM     24  C   UNL     1      -0.780   3.438   3.535  0.00  0.00    +0.001 A 
ATOM     25  C   UNL     1       0.417   3.563   2.860  0.00  0.00    +0.015 A 
ATOM     26  C   UNL     1       0.611   2.875   1.661  0.00  0.00    +0.066 A 
ATOM     27  C   UNL     1       1.744   2.797   0.721  0.00  0.00    +0.340 C 
ATOM     28  O   UNL     1       2.800   3.382   0.853  0.00  0.00    -0.245 OA
ATOM     29  O   UNL     1       1.435   1.985  -0.305  0.00  0.00    -0.452 OA
ENDBRANCH  19  20
ENDBRANCH   1  19
TORSDOF 5
