REMARK  Name = ZINC13102157
REMARK  12 active torsions:
REMARK  status: ('A' for Active; 'I' for Inactive)
REMARK    1  A    between atoms: C_1  and  C_2
REMARK    2  A    between atoms: C_5  and  S_8
REMARK    3  A    between atoms: S_8  and  N_11
REMARK    4  A    between atoms: N_11  and  C_12
REMARK    5  A    between atoms: N_11  and  C_13
REMARK    6  A    between atoms: C_16  and  C_19
REMARK    7  A    between atoms: N_21  and  C_22
REMARK    8  A    between atoms: C_22  and  C_23
REMARK    9  A    between atoms: C_23  and  C_25
REMARK   10  A    between atoms: C_23  and  N_30
REMARK   11  A    between atoms: N_30  and  C_31
REMARK   12  A    between atoms: N_30  and  C_32
REMARK                            x       y       z     vdW  Elec       q    Type
REMARK                         _______ _______ _______ _____ _____    ______ ____
ROOT
ATOM      1  C   UNL     1       1.456  -5.179  -2.659  0.00  0.00    +0.051 A 
ATOM      2  C   UNL     1       0.920  -5.613  -3.869  0.00  0.00    +0.025 A 
ATOM      3  C   UNL     1       1.754  -5.950  -4.911  0.00  0.00    +0.015 A 
ATOM      4  C   UNL     1       3.140  -5.855  -4.754  0.00  0.00    +0.037 A 
ATOM      5  C   UNL     1       3.675  -5.418  -3.538  0.00  0.00    +0.015 A 
ATOM      6  C   UNL     1       2.836  -5.078  -2.502  0.00  0.00    +0.025 A 
ENDROOT
BRANCH   4   7
ATOM      7  C   UNL     1       4.036  -6.215  -5.869  0.00  0.00    +0.244 C 
ATOM      8  O   UNL     1       3.570  -6.595  -6.926  0.00  0.00    -0.270 OA
ATOM      9  N   UNL     1       5.372  -6.123  -5.716  0.00  0.00    -0.312 N 
ATOM     10  H   UNL     1       5.744  -5.819  -4.873  0.00  0.00    +0.149 HD
BRANCH   9  11
ATOM     11  C   UNL     1       6.262  -6.480  -6.824  0.00  0.00    +0.097 C 
BRANCH  11  12
ATOM     12  C   UNL     1       7.716  -6.421  -6.349  0.00  0.00    +0.016 C 
BRANCH  12  13
ATOM     13  C   UNL     1       8.076  -4.998  -6.008  0.00  0.00    +0.093 A 
ATOM     14  C   UNL     1       8.758  -4.149  -6.797  0.00  0.00    +0.043 A 
ATOM     15  C   UNL     1       8.870  -2.931  -6.088  0.00  0.00    +0.041 A 
ATOM     16  C   UNL     1       8.249  -3.109  -4.908  0.00  0.00    +0.195 A 
ATOM     17  O   UNL     1       7.765  -4.361  -4.868  0.00  0.00    -0.469 OA
ENDBRANCH  12  13
BRANCH  12  18
ATOM     18  N   UNL     1       7.876  -7.266  -5.157  0.00  0.00    +0.384 N 
ATOM     19  C   UNL     1       7.481  -8.644  -5.477  0.00  0.00    -0.096 C 
ATOM     20  C   UNL     1       9.281  -7.246  -4.729  0.00  0.00    -0.096 C 
ATOM     21  H   UNL     1       7.293  -6.912  -4.414  0.00  0.00    -0.082 HD
ENDBRANCH  12  18
ENDBRANCH  11  12
ENDBRANCH   9  11
ENDBRANCH   4   7
BRANCH   1  22
ATOM     22  N   UNL     1       0.611  -4.840  -1.608  0.00  0.00    -0.206 N 
ATOM     23  C   UNL     1       0.646  -5.610  -0.362  0.00  0.00    +0.157 C 
BRANCH  22  24
ATOM     24  S   UNL     1      -0.435  -3.566  -1.764  0.00  0.00    +0.074 S 
ATOM     25  O   UNL     1      -1.457  -3.758  -0.796  0.00  0.00    -0.150 OA
ATOM     26  O   UNL     1      -0.714  -3.438  -3.152  0.00  0.00    -0.150 OA
BRANCH  24  31
ATOM     27  C   UNL     1       2.560   1.415  -0.142  0.00  0.00    +0.044 C 
ATOM     28  C   UNL     1       1.812   0.171  -0.548  0.00  0.00    -0.050 A 
ATOM     29  C   UNL     1       1.827  -0.246  -1.865  0.00  0.00    +0.005 A 
ATOM     30  C   UNL     1       1.141  -1.387  -2.237  0.00  0.00    +0.029 A 
ATOM     31  C   UNL     1       0.441  -2.112  -1.291  0.00  0.00    +0.109 A 
ATOM     32  C   UNL     1       0.427  -1.695   0.027  0.00  0.00    +0.029 A 
ATOM     33  C   UNL     1       1.116  -0.557   0.400  0.00  0.00    +0.005 A 
ENDBRANCH  24  31
ENDBRANCH  22  24
ENDBRANCH   1  22
TORSDOF 8
