REMARK  Name = ZINC36660319
REMARK  10 active torsions:
REMARK  status: ('A' for Active; 'I' for Inactive)
REMARK    1  A    between atoms: C_1  and  C_2
REMARK    2  A    between atoms: C_5  and  S_8
REMARK    3  A    between atoms: S_8  and  N_11
REMARK    4  A    between atoms: C_15  and  C_17
REMARK    5  A    between atoms: N_19  and  C_20
REMARK    6  A    between atoms: C_20  and  C_21
REMARK    7  A    between atoms: C_21  and  N_22
REMARK    8  A    between atoms: N_22  and  C_23
REMARK    9  A    between atoms: N_22  and  C_24
REMARK   10  A    between atoms: C_28  and  C_35
REMARK                            x       y       z     vdW  Elec       q    Type
REMARK                         _______ _______ _______ _____ _____    ______ ____
ROOT
ATOM      1  C   UNL     1       2.367  -3.824   2.045  0.00  0.00    +0.240 C 
ATOM      2  O   UNL     1       2.477  -4.822   1.365  0.00  0.00    -0.273 OA
ATOM      3  N   UNL     1       2.897  -3.791   3.283  0.00  0.00    -0.251 N 
ATOM      4  C   UNL     1       2.857  -2.620   4.023  0.00  0.00    +0.168 A 
ATOM      5  N   UNL     1       2.346  -1.456   3.695  0.00  0.00    -0.224 NA
ATOM      6  C   UNL     1       2.376  -0.390   4.524  0.00  0.00    +0.085 A 
ATOM      7  C   UNL     1       1.867   0.909   4.294  0.00  0.00    -0.024 A 
ATOM      8  C   UNL     1       1.982   1.885   5.249  0.00  0.00    +0.007 A 
ATOM      9  C   UNL     1       2.598   1.639   6.468  0.00  0.00    +0.021 A 
ATOM     10  C   UNL     1       3.108   0.379   6.726  0.00  0.00    +0.057 A 
ATOM     11  C   UNL     1       2.997  -0.606   5.775  0.00  0.00    +0.059 A 
ATOM     12  S   UNL     1       3.479  -2.312   5.670  0.00  0.00    -0.050 S 
ATOM     13 CL   UNL     1       3.883   0.045   8.243  0.00  0.00    -0.082 Cl
ATOM     14  C   UNL     1       1.190   1.224   2.985  0.00  0.00    +0.046 C 
ENDROOT
BRANCH   1  19
ATOM     15  N   UNL     1       1.535  -2.714   0.041  0.00  0.00    -0.165 NA
ATOM     16  C   UNL     1       0.109  -2.717  -0.333  0.00  0.00    +0.110 C 
ATOM     17  C   UNL     1      -0.631  -3.232   0.926  0.00  0.00    +0.019 C 
ATOM     18  C   UNL     1       0.200  -2.582   2.064  0.00  0.00    +0.031 C 
ATOM     19  C   UNL     1       1.638  -2.621   1.505  0.00  0.00    +0.166 C 
BRANCH  15  20
ATOM     20  S   UNL     1       2.809  -2.808  -1.012  0.00  0.00    +0.062 S 
ATOM     21  O   UNL     1       3.963  -2.399  -0.291  0.00  0.00    -0.153 OA
ATOM     22  O   UNL     1       2.393  -2.167  -2.211  0.00  0.00    -0.153 OA
BRANCH  20  27
ATOM     23  C   UNL     1       3.591  -8.637  -2.358  0.00  0.00    +0.044 C 
ATOM     24  C   UNL     1       3.396  -7.181  -2.022  0.00  0.00    -0.050 A 
ATOM     25  C   UNL     1       2.450  -6.436  -2.701  0.00  0.00    +0.005 A 
ATOM     26  C   UNL     1       2.271  -5.100  -2.393  0.00  0.00    +0.029 A 
ATOM     27  C   UNL     1       3.037  -4.510  -1.405  0.00  0.00    +0.106 A 
ATOM     28  C   UNL     1       3.982  -5.256  -0.725  0.00  0.00    +0.029 A 
ATOM     29  C   UNL     1       4.158  -6.593  -1.030  0.00  0.00    +0.005 A 
ENDBRANCH  20  27
ENDBRANCH  15  20
ENDBRANCH   1  19
BRANCH   3  30
ATOM     30  C   UNL     1       3.517  -4.992   3.847  0.00  0.00    +0.097 C 
BRANCH  30  31
ATOM     31  C   UNL     1       5.025  -4.957   3.592  0.00  0.00    -0.060 C 
BRANCH  31  32
ATOM     32  N   UNL     1       5.633  -6.206   4.069  0.00  0.00    +0.377 N 
ATOM     33  C   UNL     1       5.130  -7.332   3.271  0.00  0.00    -0.097 C 
ATOM     34  C   UNL     1       7.093  -6.123   3.934  0.00  0.00    -0.097 C 
ATOM     35  H   UNL     1       5.392  -6.348   5.039  0.00  0.00    -0.083 HD
ENDBRANCH  31  32
ENDBRANCH  30  31
ENDBRANCH   3  30
TORSDOF 6
