REMARK  Name = ZINC66740426
REMARK  2 active torsions:
REMARK  status: ('A' for Active; 'I' for Inactive)
REMARK    1  A    between atoms: C_1  and  C_2
REMARK    2  A    between atoms: C_14  and  C_22
REMARK                            x       y       z     vdW  Elec       q    Type
REMARK                         _______ _______ _______ _____ _____    ______ ____
ROOT
ATOM      1  C   UNL     1      -0.018   1.503   0.010  0.00  0.00    +0.046 C 
ATOM      2  C   UNL     1       0.002  -0.004   0.002  0.00  0.00    -0.028 A 
ATOM      3  C   UNL     1       0.006  -0.720  -1.185  0.00  0.00    +0.020 A 
ATOM      4  C   UNL     1       0.025  -2.100  -1.207  0.00  0.00    +0.019 A 
ATOM      5  C   UNL     1       0.041  -2.842  -0.029  0.00  0.00    +0.025 A 
ATOM      6  C   UNL     1       0.037  -2.137   1.154  0.00  0.00    +0.025 A 
ATOM      7  C   UNL     1       0.023  -0.737   1.189  0.00  0.00    +0.044 A 
ATOM      8  N   UNL     1       0.029  -0.289   2.498  0.00  0.00    -0.281 N 
ATOM      9  C   UNL     1       0.052  -1.307   3.382  0.00  0.00    +0.264 C 
ATOM     10  O   UNL     1       0.062  -1.211   4.591  0.00  0.00    -0.271 OA
ATOM     11  C   UNL     1       0.051  -2.595   2.581  0.00  0.00    +0.206 C 
ATOM     12  N   UNL     1       1.297  -3.323   2.866  0.00  0.00    -0.309 N 
ATOM     13  C   UNL     1       1.314  -4.692   2.568  0.00  0.00    +0.082 A 
ATOM     14  C   UNL     1       2.275  -5.579   2.292  0.00  0.00    +0.055 A 
ATOM     15  N   UNL     1       1.657  -6.778   2.079  0.00  0.00    -0.279 N 
ATOM     16  H   UNL     1       2.112  -7.606   1.858  0.00  0.00    +0.189 HD
ATOM     17  N   UNL     1       0.378  -6.652   2.214  0.00  0.00    -0.167 NA
ATOM     18  C   UNL     1       0.082  -5.423   2.513  0.00  0.00    +0.168 A 
ATOM     19  C   UNL     1      -1.190  -4.726   2.787  0.00  0.00    +0.268 C 
ATOM     20  O   UNL     1      -2.235  -5.335   2.916  0.00  0.00    -0.268 OA
ATOM     21  N   UNL     1      -1.140  -3.377   2.887  0.00  0.00    -0.278 N 
ATOM     22  C   UNL     1       3.756  -5.308   2.229  0.00  0.00    +0.067 C 
ATOM     23 BR   UNL     1       0.028  -3.001  -2.869  0.00  0.00    -0.050 Br
ATOM     24  H   UNL     1       0.018   0.647   2.751  0.00  0.00    +0.155 HD
ATOM     25  H   UNL     1       2.071  -2.876   3.243  0.00  0.00    +0.149 HD
ATOM     26  H   UNL     1      -1.937  -2.906   3.178  0.00  0.00    +0.152 HD
ENDROOT
TORSDOF 0
