REMARK  Name = ZINC03127634
REMARK  6 active torsions:
REMARK  status: ('A' for Active; 'I' for Inactive)
REMARK    1  A    between atoms: C_5  and  C_7
REMARK    2  A    between atoms: N_9  and  N_10
REMARK    3  A    between atoms: C_11  and  C_13
REMARK    4  A    between atoms: C_13  and  S_14
REMARK    5  A    between atoms: S_14  and  C_15
REMARK    6  A    between atoms: C_25  and  N_27
REMARK                            x       y       z     vdW  Elec       q    Type
REMARK                         _______ _______ _______ _____ _____    ______ ____
ROOT
ATOM      1  C   UNL     1      -4.865   1.039   0.031  0.00  0.00    +0.167 C 
ENDROOT
BRANCH   1   3
ATOM      2  N   UNL     1      -2.394   1.152   0.020  0.00  0.00    -0.233 N 
ATOM      3  C   UNL     1      -3.571   1.810   0.029  0.00  0.00    +0.239 C 
ATOM      4  O   UNL     1      -3.587   3.023   0.035  0.00  0.00    -0.273 OA
ATOM      5  H   UNL     1      -2.381   0.183   0.014  0.00  0.00    +0.173 HD
BRANCH   2   8
ATOM      6  C   UNL     1      -0.014   1.211   0.009  0.00  0.00    +0.262 C 
ATOM      7  O   UNL     1       0.002  -0.004   0.002  0.00  0.00    -0.269 OA
ATOM      8  N   UNL     1      -1.191   1.869   0.018  0.00  0.00    -0.230 N 
ATOM      9  H   UNL     1      -1.204   2.839   0.023  0.00  0.00    +0.173 HD
BRANCH   6  14
ATOM     10  C   UNL     1       2.428   4.063   0.001  0.00  0.00    +0.001 A 
ATOM     11  C   UNL     1       3.635   3.385  -0.015  0.00  0.00    +0.001 A 
ATOM     12  C   UNL     1       3.659   2.003  -0.022  0.00  0.00    +0.021 A 
ATOM     13  C   UNL     1       2.476   1.289  -0.009  0.00  0.00    +0.053 A 
ATOM     14  C   UNL     1       1.255   1.968   0.001  0.00  0.00    +0.056 A 
ATOM     15  C   UNL     1       1.240   3.364   0.008  0.00  0.00    +0.014 A 
ATOM     16 CL   UNL     1       2.507  -0.447  -0.011  0.00  0.00    -0.083 Cl
ENDBRANCH   6  14
ENDBRANCH   2   8
ENDBRANCH   1   3
BRANCH   1  17
ATOM     17  S   UNL     1      -6.260   2.199   0.044  0.00  0.00    -0.142 S 
BRANCH  17  18
ATOM     18  C   UNL     1      -7.723   1.127   0.045  0.00  0.00    +0.100 C 
ATOM     19  C   UNL     1      -8.984   1.994  -0.166  0.00  0.00    +0.190 C 
ATOM     20  S   UNL     1      -9.463   2.265   1.591  0.00  0.00    -0.001 S 
ATOM     21  O   UNL     1     -10.853   2.042   1.781  0.00  0.00    -0.169 OA
ATOM     22  O   UNL     1      -8.815   3.410   2.127  0.00  0.00    -0.169 OA
ATOM     23  C   UNL     1      -8.642   0.860   2.313  0.00  0.00    +0.095 A 
ATOM     24  C   UNL     1      -7.777   0.369   1.349  0.00  0.00    -0.008 A 
ATOM     25  C   UNL     1      -7.039  -0.774   1.677  0.00  0.00    +0.009 A 
ATOM     26  C   UNL     1      -7.162  -1.370   2.910  0.00  0.00    +0.033 A 
ATOM     27  C   UNL     1      -8.021  -0.852   3.861  0.00  0.00    +0.128 A 
ATOM     28  C   UNL     1      -8.764   0.274   3.551  0.00  0.00    +0.060 A 
BRANCH  27  29
ATOM     29  N   UNL     1      -8.145  -1.490   5.191  0.00  0.00    +0.056 N 
ATOM     30  O   UNL     1      -8.904  -1.025   6.022  0.00  0.00    -0.126 OA
ATOM     31  O   UNL     1      -7.486  -2.481   5.454  0.00  0.00    -0.126 OA
ENDBRANCH  27  29
ENDBRANCH  17  18
ENDBRANCH   1  17
TORSDOF 6
