REMARK  Name = ZINC41081197
REMARK  3 active torsions:
REMARK  status: ('A' for Active; 'I' for Inactive)
REMARK    1  A    between atoms: N_9  and  C_11
REMARK    2  A    between atoms: C_14  and  N_20
REMARK    3  A    between atoms: C_15  and  C_17
REMARK                            x       y       z     vdW  Elec       q    Type
REMARK                         _______ _______ _______ _____ _____    ______ ____
ROOT
ATOM      1  C   UNL     1       4.352  -2.950   1.039  0.00  0.00    +0.031 A 
ATOM      2  C   UNL     1       4.043  -4.097   1.763  0.00  0.00    +0.025 A 
ATOM      3  C   UNL     1       4.950  -4.619   2.662  0.00  0.00    +0.025 A 
ATOM      4  C   UNL     1       6.180  -4.001   2.851  0.00  0.00    +0.037 A 
ATOM      5  C   UNL     1       6.497  -2.843   2.124  0.00  0.00    +0.059 A 
ATOM      6  C   UNL     1       5.574  -2.325   1.212  0.00  0.00    +0.038 A 
ENDROOT
BRANCH   1  15
ATOM      7  C   UNL     1       0.170   1.304  -0.579  0.00  0.00    +0.000 A 
ATOM      8  C   UNL     1       1.398   1.819  -0.952  0.00  0.00    +0.000 A 
ATOM      9  C   UNL     1       2.513   1.006  -0.936  0.00  0.00    +0.005 A 
ATOM     10  C   UNL     1       2.412  -0.322  -0.545  0.00  0.00    -0.027 A 
ATOM     11  C   UNL     1       1.192  -0.833  -0.164  0.00  0.00    -0.041 A 
ATOM     12  C   UNL     1       0.069  -0.015  -0.188  0.00  0.00    +0.004 A 
ATOM     13  C   UNL     1       1.011  -2.254   0.301  0.00  0.00    +0.054 C 
ATOM     14  C   UNL     1       2.167  -3.133  -0.172  0.00  0.00    +0.110 C 
ATOM     15  N   UNL     1       3.425  -2.428   0.128  0.00  0.00    -0.325 N 
ATOM     16  C   UNL     1       3.667  -1.158  -0.565  0.00  0.00    +0.140 C 
ENDBRANCH   1  15
BRANCH   5  17
ATOM     17  C   UNL     1       7.799  -2.180   2.319  0.00  0.00    +0.243 C 
ATOM     18  O   UNL     1       8.643  -2.693   3.029  0.00  0.00    -0.270 OA
ATOM     19  N   UNL     1       8.055  -1.005   1.710  0.00  0.00    -0.325 N 
ATOM     20  H   UNL     1       7.382  -0.596   1.144  0.00  0.00    +0.145 HD
ATOM     21  H   UNL     1       8.912  -0.569   1.838  0.00  0.00    +0.145 HD
ENDBRANCH   5  17
BRANCH   4  22
ATOM     22  N   UNL     1       7.093  -4.527   3.759  0.00  0.00    -0.357 N 
ATOM     23  H   UNL     1       7.050  -5.465   4.001  0.00  0.00    +0.142 HD
ATOM     24  H   UNL     1       7.773  -3.956   4.149  0.00  0.00    +0.142 HD
ENDBRANCH   4  22
TORSDOF 3
