REMARK  Name = ZINC66335180
REMARK  11 active torsions:
REMARK  status: ('A' for Active; 'I' for Inactive)
REMARK    1  A    between atoms: C_1  and  C_2
REMARK    2  A    between atoms: C_2  and  C_4
REMARK    3  A    between atoms: C_2  and  N_10
REMARK    4  A    between atoms: C_4  and  N_5
REMARK    5  A    between atoms: N_13  and  C_14
REMARK    6  A    between atoms: C_14  and  C_15
REMARK    7  A    between atoms: C_15  and  C_17
REMARK    8  A    between atoms: C_15  and  O_29
REMARK    9  A    between atoms: C_17  and  O_18
REMARK   10  A    between atoms: O_18  and  C_19
REMARK   11  A    between atoms: C_22  and  C_25
REMARK                            x       y       z     vdW  Elec       q    Type
REMARK                         _______ _______ _______ _____ _____    ______ ____
ROOT
ATOM      1  C   UNL     1      -4.006  -1.278   2.460  0.00  0.00    +0.140 C 
ENDROOT
BRANCH   1   5
ATOM      2  N   UNL     1      -1.372  -0.511   0.012  0.00  0.00    -0.295 N 
ATOM      3  C   UNL     1      -2.029  -0.655   1.181  0.00  0.00    +0.300 C 
ATOM      4  O   UNL     1      -1.480  -0.364   2.226  0.00  0.00    -0.253 OA
ATOM      5  N   UNL     1      -3.293  -1.122   1.190  0.00  0.00    -0.297 N 
ATOM      6  H   UNL     1      -1.810  -0.743  -0.822  0.00  0.00    +0.151 HD
ATOM      7  H   UNL     1      -3.731  -1.354   0.356  0.00  0.00    +0.150 HD
BRANCH   2   9
ATOM      8  C   UNL     1      -0.019   1.526   0.010  0.00  0.00    +0.029 C 
ATOM      9  C   UNL     1       0.002  -0.004   0.002  0.00  0.00    +0.091 C 
BRANCH   9  10
ATOM     10  C   UNL     1       0.718  -0.497  -1.257  0.00  0.00    +0.144 C 
BRANCH  10  11
ATOM     11  N   UNL     1       0.844  -1.956  -1.207  0.00  0.00    -0.337 N 
ATOM     12  C   UNL     1       1.881  -2.664  -0.662  0.00  0.00    +0.104 A 
ATOM     13  C   UNL     1       1.593  -3.969  -0.830  0.00  0.00    +0.101 A 
ATOM     14  N   UNL     1       0.412  -4.055  -1.461  0.00  0.00    -0.352 N 
ATOM     15  C   UNL     1      -0.045  -2.854  -1.685  0.00  0.00    +0.173 A 
ATOM     16  H   UNL     1      -0.034  -4.881  -1.708  0.00  0.00    +0.166 HD
ENDBRANCH  10  11
ENDBRANCH   9  10
ENDBRANCH   2   9
ENDBRANCH   1   5
BRANCH   1  17
ATOM     17  C   UNL     1      -5.412  -1.820   2.192  0.00  0.00    +0.169 C 
BRANCH  17  18
ATOM     18  O   UNL     1      -6.123  -0.906   1.356  0.00  0.00    -0.387 OA
ATOM     19  H   UNL     1      -6.226  -0.023   1.736  0.00  0.00    +0.210 HD
ENDBRANCH  17  18
BRANCH  17  20
ATOM     20  C   UNL     1      -6.157  -1.984   3.518  0.00  0.00    +0.261 C 
BRANCH  20  21
ATOM     21  O   UNL     1      -7.425  -2.598   3.280  0.00  0.00    -0.489 OA
BRANCH  21  22
ATOM     22  C   UNL     1      -8.218  -2.817   4.362  0.00  0.00    +0.121 A 
ATOM     23  C   UNL     1      -7.787  -2.442   5.626  0.00  0.00    +0.046 A 
ATOM     24  C   UNL     1      -8.595  -2.665   6.724  0.00  0.00    +0.016 A 
ATOM     25  C   UNL     1      -9.832  -3.261   6.564  0.00  0.00    +0.055 A 
ATOM     26  C   UNL     1     -10.264  -3.635   5.305  0.00  0.00    +0.016 A 
ATOM     27  C   UNL     1      -9.462  -3.409   4.203  0.00  0.00    +0.046 A 
BRANCH  25  28
ATOM     28  C   UNL     1     -10.712  -3.503   7.763  0.00  0.00    +0.417 C 
ATOM     29  F   UNL     1     -11.535  -2.391   7.971  0.00  0.00    -0.166 F 
ATOM     30  F   UNL     1     -11.504  -4.634   7.540  0.00  0.00    -0.166 F 
ATOM     31  F   UNL     1      -9.913  -3.709   8.893  0.00  0.00    -0.166 F 
ENDBRANCH  25  28
ENDBRANCH  21  22
ENDBRANCH  20  21
ENDBRANCH  17  20
ENDBRANCH   1  17
TORSDOF 10
