REMARK  Name = ZINC64103437
REMARK  5 active torsions:
REMARK  status: ('A' for Active; 'I' for Inactive)
REMARK    1  A    between atoms: C_1  and  C_2
REMARK    2  A    between atoms: C_7  and  C_8
REMARK    3  A    between atoms: C_23  and  C_25
REMARK    4  A    between atoms: C_25  and  C_26
REMARK    5  A    between atoms: C_26  and  C_27
REMARK                            x       y       z     vdW  Elec       q    Type
REMARK                         _______ _______ _______ _____ _____    ______ ____
ROOT
ATOM      1  C   UNL     1       0.014   0.233   2.388  0.00  0.00    +0.133 C 
ATOM      2  C   UNL     1       1.391   0.886   2.549  0.00  0.00    +0.131 C 
ATOM      3  C   UNL     1       1.433   1.470   3.956  0.00  0.00    -0.035 C 
ATOM      4  C   UNL     1       1.717   2.760   3.818  0.00  0.00    -0.001 A 
ATOM      5  C   UNL     1       1.955   3.821   4.809  0.00  0.00    +0.010 A 
ATOM      6  C   UNL     1       2.215   5.059   4.311  0.00  0.00    +0.001 A 
ATOM      7  C   UNL     1       2.260   5.343   2.942  0.00  0.00    +0.002 A 
ATOM      8  C   UNL     1       2.058   4.428   1.961  0.00  0.00    +0.026 A 
ATOM      9  C   UNL     1       1.781   3.088   2.361  0.00  0.00    +0.043 A 
ATOM     10  N   UNL     1       1.573   2.009   1.628  0.00  0.00    -0.375 N 
ATOM     11  C   UNL     1       1.113   0.652   5.183  0.00  0.00    +0.052 C 
ATOM     12  C   UNL     1      -0.234  -0.043   4.913  0.00  0.00    +0.113 C 
ATOM     13  N   UNL     1      -0.225  -0.618   3.564  0.00  0.00    -0.292 N 
ATOM     14  C   UNL     1      -0.435  -1.939   3.400  0.00  0.00    +0.217 C 
ATOM     15  O   UNL     1      -0.323  -2.439   2.300  0.00  0.00    -0.276 OA
ATOM     16  H   UNL     1       1.540   1.959   0.660  0.00  0.00    +0.160 HD
ENDROOT
BRANCH   1  23
ATOM     17  C   UNL     1      -2.510  -0.535   1.209  0.00  0.00    +0.044 C 
ATOM     18  C   UNL     1      -1.216  -0.975   0.573  0.00  0.00    -0.045 A 
ATOM     19  C   UNL     1      -1.237  -1.741  -0.578  0.00  0.00    +0.004 A 
ATOM     20  C   UNL     1      -0.050  -2.143  -1.161  0.00  0.00    +0.000 A 
ATOM     21  C   UNL     1       1.157  -1.780  -0.595  0.00  0.00    +0.000 A 
ATOM     22  C   UNL     1       1.178  -1.013   0.555  0.00  0.00    +0.006 A 
ATOM     23  C   UNL     1      -0.009  -0.607   1.137  0.00  0.00    -0.022 A 
ENDBRANCH   1  23
BRANCH  14  24
ATOM     24  C   UNL     1      -0.810  -2.795   4.582  0.00  0.00    +0.103 C 
BRANCH  24  25
ATOM     25  C   UNL     1      -0.989  -4.244   4.126  0.00  0.00    +0.083 C 
BRANCH  25  26
ATOM     26  C   UNL     1      -1.364  -5.100   5.309  0.00  0.00    +0.105 A 
ATOM     27  C   UNL     1      -2.616  -5.359   5.727  0.00  0.00    +0.044 A 
ATOM     28  C   UNL     1      -2.504  -6.197   6.860  0.00  0.00    +0.041 A 
ATOM     29  C   UNL     1      -1.191  -6.401   7.066  0.00  0.00    +0.195 A 
ATOM     30  O   UNL     1      -0.505  -5.739   6.120  0.00  0.00    -0.468 OA
ENDBRANCH  25  26
ENDBRANCH  24  25
ENDBRANCH  14  24
TORSDOF 4
