REMARK  Name = ZINC32217805
REMARK  6 active torsions:
REMARK  status: ('A' for Active; 'I' for Inactive)
REMARK    1  A    between atoms: C_1  and  C_2
REMARK    2  A    between atoms: C_14  and  C_15
REMARK    3  A    between atoms: N_17  and  C_18
REMARK    4  A    between atoms: C_18  and  C_19
REMARK    5  A    between atoms: C_19  and  C_21
REMARK    6  A    between atoms: C_19  and  N_26
REMARK                            x       y       z     vdW  Elec       q    Type
REMARK                         _______ _______ _______ _____ _____    ______ ____
ROOT
ATOM      1  C   UNL     1       1.137   8.657   0.042  0.00  0.00    +0.280 C 
ATOM      2  O   UNL     1       0.526   9.699   0.183  0.00  0.00    -0.267 OA
ATOM      3  N   UNL     1       2.484   8.667  -0.011  0.00  0.00    -0.310 N 
ATOM      4  H   UNL     1       3.037   7.725  -0.138  0.00  0.00    +0.149 HD
ENDROOT
BRANCH   1  18
ATOM      5  C   UNL     1      -1.954   8.355   0.134  0.00  0.00    +0.048 C 
ATOM      6  C   UNL     1      -0.944   7.249  -0.031  0.00  0.00    +0.008 A 
ATOM      7  C   UNL     1      -1.221   5.866  -0.174  0.00  0.00    +0.024 A 
ATOM      8  C   UNL     1      -2.417   5.120  -0.209  0.00  0.00    +0.012 A 
ATOM      9  C   UNL     1      -2.390   3.776  -0.361  0.00  0.00    +0.009 A 
ATOM     10  C   UNL     1      -1.159   3.097  -0.485  0.00  0.00    -0.014 A 
ATOM     11  C   UNL     1      -1.119   1.703  -0.649  0.00  0.00    +0.008 A 
ATOM     12  C   UNL     1       0.082   1.070  -0.763  0.00  0.00    +0.001 A 
ATOM     13  C   UNL     1       1.275   1.786  -0.730  0.00  0.00    +0.001 A 
ATOM     14  C   UNL     1       1.273   3.141  -0.579  0.00  0.00    +0.012 A 
ATOM     15  C   UNL     1       0.055   3.825  -0.453  0.00  0.00    +0.025 A 
ATOM     16  C   UNL     1       0.018   5.227  -0.295  0.00  0.00    +0.144 A 
ATOM     17  O   UNL     1       0.974   6.171  -0.228  0.00  0.00    -0.449 OA
ATOM     18  C   UNL     1       0.408   7.386  -0.070  0.00  0.00    +0.193 A 
ENDBRANCH   1  18
BRANCH   3  19
ATOM     19  C   UNL     1       3.211   9.934   0.101  0.00  0.00    +0.094 C 
BRANCH  19  20
ATOM     20  C   UNL     1       4.716   9.657   0.130  0.00  0.00    -0.013 C 
BRANCH  20  21
ATOM     21  N   UNL     1       5.440  10.913   0.369  0.00  0.00    +0.386 N 
ATOM     22  C   UNL     1       5.030  11.526   1.659  0.00  0.00    -0.078 C 
ATOM     23  C   UNL     1       6.207  12.479   1.988  0.00  0.00    -0.020 C 
ATOM     24  C   UNL     1       7.442  11.681   1.508  0.00  0.00    -0.020 C 
ATOM     25  C   UNL     1       6.895  10.672   0.481  0.00  0.00    -0.078 C 
ATOM     26  H   UNL     1       5.204  11.562  -0.486  0.00  0.00    -0.081 HD
ENDBRANCH  20  21
BRANCH  20  27
ATOM     27  C   UNL     1       5.145   9.074  -1.191  0.00  0.00    -0.022 A 
ATOM     28  C   UNL     1       5.378   7.779  -1.517  0.00  0.00    +0.009 A 
ATOM     29  C   UNL     1       5.767   7.472  -2.808  0.00  0.00    +0.008 A 
ATOM     30  C   UNL     1       5.904   8.475  -3.709  0.00  0.00    +0.045 A 
ATOM     31  S   UNL     1       5.471   9.908  -2.736  0.00  0.00    -0.103 S 
ENDBRANCH  20  27
ENDBRANCH  19  20
ENDBRANCH   3  19
TORSDOF 5
