REMARK  Name = ZINC39595072
REMARK  6 active torsions:
REMARK  status: ('A' for Active; 'I' for Inactive)
REMARK    1  A    between atoms: C_3  and  C_7
REMARK    2  A    between atoms: C_7  and  C_9
REMARK    3  A    between atoms: C_7  and  N_33
REMARK    4  A    between atoms: C_9  and  N_10
REMARK    5  A    between atoms: C_11  and  C_13
REMARK    6  A    between atoms: C_24  and  C_26
REMARK                            x       y       z     vdW  Elec       q    Type
REMARK                         _______ _______ _______ _____ _____    ______ ____
ROOT
ATOM      1  C   UNL     1       7.838   3.537   1.732  0.00  0.00    +0.100 C 
ATOM      2  C   UNL     1       8.838   2.629   0.982  0.00  0.00    +0.121 C 
ATOM      3  N   UNL     1      10.087   2.711   1.776  0.00  0.00    -0.300 N 
ATOM      4  C   UNL     1       9.627   2.713   3.186  0.00  0.00    +0.115 C 
ATOM      5  C   UNL     1       8.359   3.589   3.178  0.00  0.00    -0.004 C 
ATOM      6  C   UNL     1       7.318   3.018   4.136  0.00  0.00    -0.010 C 
ATOM      7  C   UNL     1       7.834   3.134   5.572  0.00  0.00    -0.082 C 
ATOM      8  N   UNL     1       8.097   4.543   5.888  0.00  0.00    +0.379 N 
ATOM      9  C   UNL     1       9.166   5.058   5.024  0.00  0.00    -0.082 C 
ATOM     10  C   UNL     1       8.706   5.024   3.564  0.00  0.00    -0.010 C 
ATOM     11  C   UNL     1      11.353   2.771   1.320  0.00  0.00    +0.219 C 
ATOM     12  O   UNL     1      11.566   2.843   0.128  0.00  0.00    -0.275 OA
ATOM     13  H   UNL     1       7.257   5.082   5.739  0.00  0.00    -0.086 HD
ATOM     14  H   UNL     1       8.379   4.623   6.853  0.00  0.00    -0.086 HD
ENDROOT
BRANCH  11  15
ATOM     15  C   UNL     1      12.506   2.750   2.291  0.00  0.00    +0.079 C 
ATOM     16  C   UNL     1      13.819   2.994   1.537  0.00  0.00    +0.017 C 
ATOM     17  C   UNL     1      14.945   3.145   2.563  0.00  0.00    +0.027 C 
ATOM     18  C   UNL     1      14.898   2.018   3.552  0.00  0.00    -0.031 C 
ATOM     19  C   UNL     1      13.869   1.252   3.731  0.00  0.00    -0.030 C 
ATOM     20  C   UNL     1      12.580   1.382   2.971  0.00  0.00    +0.039 C 
ENDBRANCH  11  15
BRANCH   1  22
ATOM     21  N   UNL     1       5.376   3.724   1.886  0.00  0.00    -0.316 N 
ATOM     22  C   UNL     1       6.455   2.939   1.694  0.00  0.00    +0.218 C 
ATOM     23  O   UNL     1       6.314   1.752   1.489  0.00  0.00    -0.275 OA
ATOM     24  H   UNL     1       5.490   4.673   2.049  0.00  0.00    +0.149 HD
BRANCH  21  25
ATOM     25  C   UNL     1       4.032   3.142   1.849  0.00  0.00    +0.093 C 
BRANCH  25  26
ATOM     26  C   UNL     1       2.991   4.256   1.973  0.00  0.00    -0.019 C 
BRANCH  26  29
ATOM     27  C   UNL     1       3.893   6.699   4.704  0.00  0.00    +0.020 A 
ATOM     28  C   UNL     1       3.797   6.125   3.446  0.00  0.00    +0.005 A 
ATOM     29  C   UNL     1       3.123   4.920   3.320  0.00  0.00    -0.041 A 
ATOM     30  C   UNL     1       2.575   4.334   4.445  0.00  0.00    +0.112 A 
ATOM     31  N   UNL     1       2.686   4.909   5.627  0.00  0.00    -0.263 NA
ATOM     32  C   UNL     1       3.320   6.054   5.784  0.00  0.00    +0.111 A 
ENDBRANCH  26  29
BRANCH  26  33
ATOM     33  N   UNL     1       1.644   3.685   1.839  0.00  0.00    +0.385 N 
ATOM     34  C   UNL     1       0.630   4.770   1.792  0.00  0.00    -0.078 C 
ATOM     35  C   UNL     1      -0.582   4.092   1.104  0.00  0.00    -0.020 C 
ATOM     36  C   UNL     1       0.085   3.181   0.048  0.00  0.00    -0.020 C 
ATOM     37  C   UNL     1       1.522   2.963   0.554  0.00  0.00    -0.078 C 
ATOM     38  H   UNL     1       1.452   3.062   2.608  0.00  0.00    -0.081 HD
ENDBRANCH  26  33
ENDBRANCH  25  26
ENDBRANCH  21  25
ENDBRANCH   1  22
TORSDOF 6
