REMARK  Name = ZINC39394436
REMARK  8 active torsions:
REMARK  status: ('A' for Active; 'I' for Inactive)
REMARK    1  A    between atoms: C_1  and  N_2
REMARK    2  A    between atoms: N_2  and  C_3
REMARK    3  A    between atoms: C_3  and  C_4
REMARK    4  A    between atoms: C_14  and  C_16
REMARK    5  A    between atoms: C_16  and  C_17
REMARK    6  A    between atoms: N_24  and  C_25
REMARK    7  A    between atoms: C_25  and  C_26
REMARK    8  A    between atoms: C_27  and  C_28
REMARK                            x       y       z     vdW  Elec       q    Type
REMARK                         _______ _______ _______ _____ _____    ______ ____
ROOT
ATOM      1  C   UNL     1      -0.096  -0.814  -3.687  0.00  0.00    +0.152 C 
ATOM      2  C   UNL     1      -0.192   0.026  -4.929  0.00  0.00    +0.231 C 
ATOM      3  O   UNL     1      -0.912   1.002  -4.917  0.00  0.00    -0.274 OA
ATOM      4  N   UNL     1       0.485  -0.256  -6.047  0.00  0.00    -0.313 N 
ATOM      5  C   UNL     1       1.405  -1.385  -6.154  0.00  0.00    +0.119 C 
ATOM      6  C   UNL     1       1.133  -2.391  -5.035  0.00  0.00    +0.104 C 
ATOM      7  N   UNL     1       1.096  -1.670  -3.753  0.00  0.00    -0.286 NA
ATOM      8  H   UNL     1       0.358   0.314  -6.822  0.00  0.00    +0.149 HD
ENDROOT
BRANCH   1   9
ATOM      9  C   UNL     1       0.001   0.098  -2.463  0.00  0.00    +0.124 C 
BRANCH   9  12
ATOM     10  C   UNL     1       0.539   2.124  -0.555  0.00  0.00    +0.132 C 
ATOM     11  N   UNL     1       1.501   1.882  -1.633  0.00  0.00    -0.302 N 
ATOM     12  C   UNL     1       1.260   0.922  -2.548  0.00  0.00    +0.217 C 
ATOM     13  O   UNL     1       2.056   0.722  -3.441  0.00  0.00    -0.276 OA
BRANCH  11  14
ATOM     14  C   UNL     1       2.724   2.682  -1.717  0.00  0.00    +0.140 C 
BRANCH  14  15
ATOM     15  C   UNL     1       3.836   1.999  -0.918  0.00  0.00    +0.173 C 
ATOM     16  C   UNL     1       5.155   2.696  -1.133  0.00  0.00    -0.019 C 
ATOM     17  C   UNL     1       5.945   1.774  -1.693  0.00  0.00    +0.065 C 
ATOM     18  C   UNL     1       7.380   2.047  -2.085  0.00  0.00    +0.057 C 
ATOM     19  C   UNL     1       7.589   3.564  -2.143  0.00  0.00    +0.006 C 
ATOM     20  C   UNL     1       7.078   4.206  -0.850  0.00  0.00    +0.005 C 
ATOM     21  C   UNL     1       5.547   4.108  -0.808  0.00  0.00    +0.035 C 
ATOM     22  N   UNL     1       5.268   0.614  -1.839  0.00  0.00    -0.158 NA
ATOM     23  N   UNL     1       4.096   0.642  -1.437  0.00  0.00    -0.178 NA
ENDBRANCH  14  15
ENDBRANCH  11  14
ENDBRANCH   9  12
ENDBRANCH   1   9
BRANCH   7  24
ATOM     24  C   UNL     1       1.134  -2.608  -2.623  0.00  0.00    +0.112 C 
BRANCH  24  25
ATOM     25  C   UNL     1       2.518  -3.191  -2.500  0.00  0.00    -0.011 C 
ATOM     26  C   UNL     1       3.176  -3.100  -1.353  0.00  0.00    +0.005 C 
BRANCH  26  27
ATOM     27  C   UNL     1       4.534  -3.672  -1.233  0.00  0.00    -0.025 A 
ATOM     28  C   UNL     1       5.128  -4.303  -2.326  0.00  0.00    +0.008 A 
ATOM     29  C   UNL     1       6.395  -4.835  -2.208  0.00  0.00    +0.001 A 
ATOM     30  C   UNL     1       7.077  -4.744  -1.007  0.00  0.00    +0.000 A 
ATOM     31  C   UNL     1       6.494  -4.120   0.081  0.00  0.00    +0.001 A 
ATOM     32  C   UNL     1       5.229  -3.578  -0.027  0.00  0.00    +0.008 A 
ENDBRANCH  26  27
ENDBRANCH  24  25
ENDBRANCH   7  24
TORSDOF 7
