REMARK  Name = ZINC36595154
REMARK  13 active torsions:
REMARK  status: ('A' for Active; 'I' for Inactive)
REMARK    1  A    between atoms: C_1  and  C_2
REMARK    2  A    between atoms: C_2  and  C_3
REMARK    3  A    between atoms: C_3  and  C_4
REMARK    4  A    between atoms: C_4  and  N_5
REMARK    5  A    between atoms: C_6  and  C_8
REMARK    6  A    between atoms: C_8  and  C_10
REMARK    7  A    between atoms: C_8  and  N_17
REMARK    8  A    between atoms: C_13  and  O_16
REMARK    9  A    between atoms: N_17  and  C_18
REMARK   10  A    between atoms: C_18  and  C_19
REMARK   11  A    between atoms: C_22  and  C_24
REMARK   12  A    between atoms: C_25  and  C_27
REMARK   13  A    between atoms: C_27  and  C_28
REMARK                            x       y       z     vdW  Elec       q    Type
REMARK                         _______ _______ _______ _____ _____    ______ ____
ROOT
ATOM      1  N   UNL     1       2.173  -5.522   3.853  0.00  0.00    -0.278 N 
ATOM      2  C   UNL     1       1.748  -6.115   4.986  0.00  0.00    +0.221 C 
ATOM      3  O   UNL     1       1.106  -5.483   5.798  0.00  0.00    -0.275 OA
ENDROOT
BRANCH   1   4
ATOM      4  C   UNL     1       1.859  -4.113   3.603  0.00  0.00    +0.193 C 
BRANCH   4   5
ATOM      5  C   UNL     1       2.325  -3.280   4.769  0.00  0.00    -0.018 A 
ATOM      6  C   UNL     1       3.558  -3.526   5.345  0.00  0.00    +0.009 A 
ATOM      7  C   UNL     1       3.986  -2.763   6.414  0.00  0.00    +0.046 A 
ATOM      8  C   UNL     1       3.179  -1.750   6.910  0.00  0.00    +0.117 A 
ATOM      9  C   UNL     1       1.942  -1.505   6.331  0.00  0.00    +0.046 A 
ATOM     10  C   UNL     1       1.520  -2.267   5.258  0.00  0.00    +0.009 A 
BRANCH   8  11
ATOM     11  O   UNL     1       3.598  -1.000   7.963  0.00  0.00    -0.507 OA
ATOM     12  H   UNL     1       4.095  -0.210   7.709  0.00  0.00    +0.292 HD
ENDBRANCH   8  11
ENDBRANCH   4   5
BRANCH   4  14
ATOM     13  N   UNL     1       1.873  -3.003   1.392  0.00  0.00    -0.313 N 
ATOM     14  C   UNL     1       2.560  -3.657   2.349  0.00  0.00    +0.238 C 
ATOM     15  O   UNL     1       3.743  -3.880   2.201  0.00  0.00    -0.273 OA
ATOM     16  H   UNL     1       0.926  -2.825   1.511  0.00  0.00    +0.149 HD
BRANCH  13  17
ATOM     17  C   UNL     1       2.554  -2.560   0.173  0.00  0.00    +0.104 C 
BRANCH  17  18
ATOM     18  C   UNL     1       1.554  -1.849  -0.741  0.00  0.00    +0.018 C 
BRANCH  18  20
ATOM     19  C   UNL     1       1.266  -0.676  -2.928  0.00  0.00    +0.004 C 
ATOM     20  C   UNL     1       2.266  -1.387  -2.014  0.00  0.00    -0.002 C 
ENDBRANCH  18  20
ENDBRANCH  17  18
ENDBRANCH  13  17
ENDBRANCH   4  14
ENDBRANCH   1   4
BRANCH   1  21
ATOM     21  C   UNL     1       2.948  -6.285   2.872  0.00  0.00    +0.183 C 
BRANCH  21  22
ATOM     22  C   UNL     1       4.390  -6.345   3.308  0.00  0.00    +0.122 A 
ATOM     23  C   UNL     1       4.971  -7.364   3.965  0.00  0.00    +0.046 A 
ATOM     24  C   UNL     1       6.322  -7.002   4.170  0.00  0.00    +0.045 A 
ATOM     25  C   UNL     1       6.485  -5.782   3.627  0.00  0.00    +0.102 A 
ATOM     26  O   UNL     1       5.313  -5.391   3.101  0.00  0.00    -0.463 OA
ATOM     27  C   UNL     1       7.767  -4.990   3.608  0.00  0.00    +0.086 C 
ENDBRANCH  21  22
ENDBRANCH   1  21
BRANCH   2  28
ATOM     28  C   UNL     1       2.071  -7.565   5.244  0.00  0.00    +0.131 C 
BRANCH  28  29
ATOM     29  C   UNL     1       1.485  -7.982   6.568  0.00  0.00    -0.039 A 
ATOM     30  C   UNL     1       2.228  -7.845   7.726  0.00  0.00    +0.005 A 
ATOM     31  C   UNL     1       1.692  -8.226   8.941  0.00  0.00    +0.015 A 
ATOM     32  C   UNL     1       0.411  -8.746   8.999  0.00  0.00    +0.018 A 
ATOM     33  C   UNL     1      -0.332  -8.883   7.840  0.00  0.00    +0.015 A 
ATOM     34  C   UNL     1       0.203  -8.496   6.626  0.00  0.00    +0.005 A 
ATOM     35 BR   UNL     1      -0.323  -9.270  10.661  0.00  0.00    -0.050 Br
ENDBRANCH  28  29
ENDBRANCH   2  28
TORSDOF 11
