REMARK  Name = ZINC39509302
REMARK  6 active torsions:
REMARK  status: ('A' for Active; 'I' for Inactive)
REMARK    1  A    between atoms: C_1  and  C_2
REMARK    2  A    between atoms: C_2  and  C_33
REMARK    3  A    between atoms: C_4  and  N_21
REMARK    4  A    between atoms: N_10  and  C_14
REMARK    5  A    between atoms: N_21  and  C_22
REMARK    6  A    between atoms: C_22  and  C_23
REMARK                            x       y       z     vdW  Elec       q    Type
REMARK                         _______ _______ _______ _____ _____    ______ ____
ROOT
ATOM      1  C   UNL     1      -0.060   1.580   0.017  0.00  0.00    +0.011 C 
ATOM      2  C   UNL     1      -0.051   0.050  -0.022  0.00  0.00    -0.035 C 
ATOM      3  C   UNL     1      -1.490  -0.476   0.032  0.00  0.00    -0.009 C 
ATOM      4  C   UNL     1      -2.167   0.088   1.278  0.00  0.00    -0.065 C 
ATOM      5  C   UNL     1      -1.457  -0.385   2.547  0.00  0.00    +0.012 C 
ATOM      6  C   UNL     1      -1.867   0.613   3.676  0.00  0.00    +0.106 C 
ATOM      7  N   UNL     1      -0.982   1.774   3.432  0.00  0.00    -0.240 NA
ATOM      8  N   UNL     1       0.127   1.375   2.733  0.00  0.00    -0.264 N 
ATOM      9  C   UNL     1       0.054  -0.086   2.475  0.00  0.00    +0.094 C 
ATOM     10  C   UNL     1       0.702  -0.492   1.193  0.00  0.00    +0.030 C 
ATOM     11  C   UNL     1       0.628  -0.430  -1.306  0.00  0.00    +0.011 C 
ATOM     12  H   UNL     1      -1.474   2.507   2.943  0.00  0.00    +0.144 HD
ENDROOT
BRANCH   8  13
ATOM     13  C   UNL     1       1.168   2.213   2.321  0.00  0.00    +0.045 A 
ATOM     14  C   UNL     1       0.895   3.511   1.909  0.00  0.00    +0.027 A 
ATOM     15  C   UNL     1       1.926   4.337   1.503  0.00  0.00    +0.040 A 
ATOM     16  C   UNL     1       3.230   3.871   1.506  0.00  0.00    +0.124 A 
ATOM     17  C   UNL     1       3.504   2.577   1.916  0.00  0.00    +0.040 A 
ATOM     18  C   UNL     1       2.478   1.750   2.328  0.00  0.00    +0.027 A 
ATOM     19  F   UNL     1       4.236   4.680   1.108  0.00  0.00    -0.205 F 
ENDBRANCH   8  13
BRANCH   4  20
ATOM     20  N   UNL     1      -3.565  -0.360   1.312  0.00  0.00    +0.385 N 
ATOM     21  H   UNL     1      -3.597  -1.367   1.256  0.00  0.00    -0.085 HD
ATOM     22  H   UNL     1      -3.994  -0.058   2.175  0.00  0.00    -0.085 HD
BRANCH  20  23
ATOM     23  C   UNL     1      -4.293   0.218   0.175  0.00  0.00    -0.028 C 
BRANCH  23  24
ATOM     24  C   UNL     1      -5.728  -0.241   0.210  0.00  0.00    -0.000 A 
ATOM     25  H   UNL     1      -5.642  -2.077  -0.770  0.00  0.00    +0.166 HD
ATOM     26  C   UNL     1      -6.743   0.444   0.760  0.00  0.00    +0.029 A 
ATOM     27  C   UNL     1      -7.953  -0.360   0.574  0.00  0.00    -0.000 A 
ATOM     28  C   UNL     1      -9.295  -0.189   0.918  0.00  0.00    +0.010 A 
ATOM     29  C   UNL     1     -10.207  -1.152   0.592  0.00  0.00    +0.001 A 
ATOM     30  C   UNL     1      -9.811  -2.301  -0.079  0.00  0.00    +0.002 A 
ATOM     31  C   UNL     1      -8.492  -2.490  -0.429  0.00  0.00    +0.026 A 
ATOM     32  C   UNL     1      -7.546  -1.523  -0.107  0.00  0.00    +0.047 A 
ATOM     33  N   UNL     1      -6.189  -1.416  -0.318  0.00  0.00    -0.360 N 
ENDBRANCH  23  24
ENDBRANCH  20  23
ENDBRANCH   4  20
TORSDOF 4
