REMARK  Name = ZINC39448611
REMARK  8 active torsions:
REMARK  status: ('A' for Active; 'I' for Inactive)
REMARK    1  A    between atoms: C_1  and  C_2
REMARK    2  A    between atoms: C_2  and  C_4
REMARK    3  A    between atoms: C_2  and  O_26
REMARK    4  A    between atoms: C_14  and  C_17
REMARK    5  A    between atoms: N_15  and  O_16
REMARK    6  A    between atoms: C_17  and  C_20
REMARK    7  A    between atoms: N_18  and  O_19
REMARK    8  A    between atoms: O_26  and  C_27
REMARK                            x       y       z     vdW  Elec       q    Type
REMARK                         _______ _______ _______ _____ _____    ______ ____
ROOT
ATOM      1  C   UNL     1      -0.459  -1.084  -2.311  0.00  0.00    +0.088 A 
ATOM      2  C   UNL     1       0.462  -2.036  -2.615  0.00  0.00    +0.047 A 
ATOM      3  C   UNL     1       0.582  -2.473  -3.939  0.00  0.00    +0.116 A 
ATOM      4  N   UNL     1      -0.188  -1.968  -4.876  0.00  0.00    -0.219 NA
ATOM      5  C   UNL     1      -1.097  -1.030  -4.586  0.00  0.00    +0.255 A 
ATOM      6  N   UNL     1      -1.243  -0.586  -3.302  0.00  0.00    -0.195 N 
ATOM      7  N   UNL     1      -2.264   0.373  -3.327  0.00  0.00    -0.127 NA
ATOM      8  C   UNL     1      -2.680   0.461  -4.574  0.00  0.00    +0.242 A 
ATOM      9  N   UNL     1      -1.977  -0.374  -5.335  0.00  0.00    -0.176 NA
ATOM     10  N   UNL     1      -3.692   1.305  -5.028  0.00  0.00    -0.263 N 
ATOM     11  C   UNL     1      -4.043   1.309  -6.370  0.00  0.00    +0.193 C 
ATOM     12  N   UNL     1      -3.428   0.524  -7.204  0.00  0.00    -0.069 NA
ATOM     13  H   UNL     1      -4.151   1.891  -4.405  0.00  0.00    +0.157 HD
ENDROOT
BRANCH   1  15
ATOM     14  C   UNL     1      -0.226   0.885  -0.823  0.00  0.00    +0.059 C 
ATOM     15  C   UNL     1      -0.613  -0.594  -0.895  0.00  0.00    +0.219 C 
BRANCH  15  16
ATOM     16  O   UNL     1      -1.971  -0.751  -0.481  0.00  0.00    -0.483 OA
BRANCH  16  17
ATOM     17  C   UNL     1      -2.200  -0.864   0.854  0.00  0.00    +0.121 A 
ATOM     18  C   UNL     1      -3.479  -1.131   1.319  0.00  0.00    +0.045 A 
ATOM     19  C   UNL     1      -3.710  -1.246   2.677  0.00  0.00    +0.004 A 
ATOM     20  C   UNL     1      -2.666  -1.094   3.571  0.00  0.00    +0.000 A 
ATOM     21  C   UNL     1      -1.390  -0.827   3.110  0.00  0.00    +0.004 A 
ATOM     22  C   UNL     1      -1.154  -0.718   1.754  0.00  0.00    +0.045 A 
ENDBRANCH  16  17
ENDBRANCH  15  16
ENDBRANCH   1  15
BRANCH  12  23
ATOM     23  O   UNL     1      -3.700   0.613  -8.591  0.00  0.00    -0.408 OA
ATOM     24  H   UNL     1      -3.141   0.044  -9.139  0.00  0.00    +0.328 HD
ENDBRANCH  12  23
BRANCH  11  25
ATOM     25  C   UNL     1      -5.117   2.205  -6.851  0.00  0.00    +0.153 C 
ATOM     26  N   UNL     1      -5.687   3.038  -6.029  0.00  0.00    -0.083 NA
BRANCH  25  27
ATOM     27  C   UNL     1      -5.544   2.155  -8.269  0.00  0.00    +0.007 A 
ATOM     28  C   UNL     1      -6.520   1.245  -8.675  0.00  0.00    +0.010 A 
ATOM     29  C   UNL     1      -6.913   1.204  -9.997  0.00  0.00    +0.001 A 
ATOM     30  C   UNL     1      -6.341   2.061 -10.919  0.00  0.00    +0.000 A 
ATOM     31  C   UNL     1      -5.372   2.966 -10.523  0.00  0.00    +0.001 A 
ATOM     32  C   UNL     1      -4.975   3.021  -9.203  0.00  0.00    +0.010 A 
ENDBRANCH  25  27
BRANCH  26  33
ATOM     33  O   UNL     1      -6.787   3.818  -6.461  0.00  0.00    -0.409 OA
ATOM     34  H   UNL     1      -7.143   4.407  -5.781  0.00  0.00    +0.328 HD
ENDBRANCH  26  33
ENDBRANCH  11  25
TORSDOF 7
