REMARK  Name = ZINC18203123
REMARK  7 active torsions:
REMARK  status: ('A' for Active; 'I' for Inactive)
REMARK    1  A    between atoms: C_1  and  O_2
REMARK    2  A    between atoms: O_2  and  C_3
REMARK    3  A    between atoms: C_5  and  C_10
REMARK    4  A    between atoms: C_8  and  O_9
REMARK    5  A    between atoms: N_18  and  C_21
REMARK    6  A    between atoms: C_26  and  C_27
REMARK    7  A    between atoms: N_32  and  C_33
REMARK                            x       y       z     vdW  Elec       q    Type
REMARK                         _______ _______ _______ _____ _____    ______ ____
ROOT
ATOM      1  C   UNL     1       2.462   0.334   4.204  0.00  0.00    +0.157 C 
ATOM      2  C   UNL     1       3.981   0.299   4.100  0.00  0.00    +0.145 C 
ATOM      3  C   UNL     1       4.212  -0.995   4.969  0.00  0.00    +0.249 C 
ATOM      4  C   UNL     1       5.556  -1.371   4.578  0.00  0.00    +0.259 C 
ATOM      5  O   UNL     1       6.402  -1.898   5.268  0.00  0.00    -0.272 OA
ATOM      6  N   UNL     1       5.667  -1.004   3.263  0.00  0.00    -0.207 N 
ATOM      7  C   UNL     1       4.649  -0.173   2.846  0.00  0.00    +0.235 C 
ATOM      8  O   UNL     1       4.347   0.113   1.708  0.00  0.00    -0.274 OA
ATOM      9  O   UNL     1       3.458  -0.750   6.083  0.00  0.00    -0.257 OA
ATOM     10  N   UNL     1       2.186  -0.273   5.539  0.00  0.00    -0.244 N 
ENDROOT
BRANCH   1  13
ATOM     11  C   UNL     1       0.830  -0.633   0.937  0.00  0.00    +0.162 A 
ATOM     12  C   UNL     1       1.405   0.123   1.946  0.00  0.00    +0.055 A 
ATOM     13  C   UNL     1       1.836  -0.490   3.108  0.00  0.00    -0.018 A 
ATOM     14  C   UNL     1       1.694  -1.856   3.267  0.00  0.00    +0.009 A 
ATOM     15  C   UNL     1       1.121  -2.615   2.264  0.00  0.00    +0.049 A 
ATOM     16  C   UNL     1       0.682  -2.007   1.099  0.00  0.00    +0.158 A 
BRANCH  11  18
ATOM     17  C   UNL     1       0.590   1.382  -0.304  0.00  0.00    +0.277 C 
ATOM     18  O   UNL     1       0.405  -0.032  -0.207  0.00  0.00    -0.491 OA
ENDBRANCH  11  18
BRANCH  16  19
ATOM     19  O   UNL     1       0.112  -2.752   0.114  0.00  0.00    -0.503 OA
ATOM     20  H   UNL     1       0.743  -3.096  -0.534  0.00  0.00    +0.292 HD
ENDBRANCH  16  19
ENDBRANCH   1  13
BRANCH   6  21
ATOM     21  C   UNL     1       6.714  -1.417   2.427  0.00  0.00    +0.056 A 
ATOM     22  C   UNL     1       6.592  -2.584   1.685  0.00  0.00    +0.024 A 
ATOM     23  C   UNL     1       7.625  -2.989   0.862  0.00  0.00    +0.002 A 
ATOM     24  C   UNL     1       8.780  -2.233   0.778  0.00  0.00    +0.001 A 
ATOM     25  C   UNL     1       8.904  -1.070   1.516  0.00  0.00    +0.014 A 
ATOM     26  C   UNL     1       7.872  -0.657   2.336  0.00  0.00    +0.077 A 
BRANCH  26  27
ATOM     27  C   UNL     1       8.006   0.613   3.135  0.00  0.00    +0.419 C 
ATOM     28  F   UNL     1       9.251   1.197   2.878  0.00  0.00    -0.166 F 
ATOM     29  F   UNL     1       6.989   1.502   2.771  0.00  0.00    -0.166 F 
ATOM     30  F   UNL     1       7.901   0.319   4.499  0.00  0.00    -0.166 F 
ENDBRANCH  26  27
ENDBRANCH   6  21
BRANCH  10  31
ATOM     31  C   UNL     1       0.938  -0.360   6.159  0.00  0.00    +0.065 A 
ATOM     32  C   UNL     1      -0.191   0.141   5.524  0.00  0.00    +0.028 A 
ATOM     33  C   UNL     1      -1.424   0.053   6.140  0.00  0.00    +0.002 A 
ATOM     34  C   UNL     1      -1.536  -0.532   7.388  0.00  0.00    +0.000 A 
ATOM     35  C   UNL     1      -0.413  -1.033   8.023  0.00  0.00    +0.002 A 
ATOM     36  C   UNL     1       0.822  -0.953   7.410  0.00  0.00    +0.028 A 
ENDBRANCH  10  31
TORSDOF 6
