REMARK  Name = ZINC12506550
REMARK  15 active torsions:
REMARK  status: ('A' for Active; 'I' for Inactive)
REMARK    1  A    between atoms: C_1  and  C_2
REMARK    2  A    between atoms: C_6  and  C_37
REMARK    3  A    between atoms: C_8  and  O_11
REMARK    4  A    between atoms: O_11  and  P_12
REMARK    5  A    between atoms: P_12  and  C_14
REMARK    6  A    between atoms: P_12  and  O_23
REMARK    7  A    between atoms: C_14  and  C_16
REMARK    8  A    between atoms: C_14  and  O_22
REMARK    9  A    between atoms: O_23  and  C_24
REMARK   10  A    between atoms: C_27  and  C_36
REMARK   11  A    between atoms: C_31  and  C_33
REMARK   12  A    between atoms: C_33  and  C_34
REMARK   13  A    between atoms: C_33  and  C_35
REMARK   14  A    between atoms: C_37  and  C_38
REMARK   15  A    between atoms: C_37  and  C_39
REMARK                            x       y       z     vdW  Elec       q    Type
REMARK                         _______ _______ _______ _____ _____    ______ ____
ROOT
ATOM      1  P   UNL     1      -3.753   0.628  -0.519  0.00  0.00    +0.366 P 
ATOM      2  O   UNL     1      -2.536  -0.171  -0.788  0.00  0.00    -0.255 OA
ENDROOT
BRANCH   1   3
ATOM      3  O   UNL     1      -4.791  -0.250   0.344  0.00  0.00    -0.302 OA
BRANCH   3   9
ATOM      4  C   UNL     1      -4.714  -3.760  -3.096  0.00  0.00    +0.007 C 
ATOM      5  C   UNL     1      -4.992  -3.444  -1.625  0.00  0.00    -0.012 C 
ATOM      6  C   UNL     1      -6.448  -3.782  -1.297  0.00  0.00    +0.004 C 
ATOM      7  C   UNL     1      -6.726  -3.466   0.174  0.00  0.00    +0.006 C 
ATOM      8  C   UNL     1      -6.478  -1.978   0.431  0.00  0.00    +0.021 C 
ATOM      9  C   UNL     1      -5.022  -1.640   0.103  0.00  0.00    +0.132 C 
ATOM     10  C   UNL     1      -4.744  -1.956  -1.368  0.00  0.00    +0.035 C 
BRANCH   8  11
ATOM     11  C   UNL     1      -6.756  -1.662   1.902  0.00  0.00    -0.012 C 
ATOM     12  C   UNL     1      -8.218  -1.979   2.224  0.00  0.00    +0.007 C 
ATOM     13  C   UNL     1      -5.843  -2.511   2.788  0.00  0.00    +0.007 C 
ENDBRANCH   8  11
ENDBRANCH   3   9
ENDBRANCH   1   3
BRANCH   1  14
ATOM     14  C   UNL     1      -4.527   1.107  -2.098  0.00  0.00    +0.258 C 
BRANCH  14  15
ATOM     15  C   UNL     1      -5.894   1.683  -1.832  0.00  0.00    -0.007 A 
ATOM     16  C   UNL     1      -6.997   0.852  -1.786  0.00  0.00    +0.007 A 
ATOM     17  C   UNL     1      -8.251   1.380  -1.538  0.00  0.00    +0.000 A 
ATOM     18  C   UNL     1      -8.402   2.740  -1.345  0.00  0.00    +0.000 A 
ATOM     19  C   UNL     1      -7.299   3.573  -1.397  0.00  0.00    +0.000 A 
ATOM     20  C   UNL     1      -6.045   3.044  -1.640  0.00  0.00    +0.007 A 
ENDBRANCH  14  15
BRANCH  14  21
ATOM     21  O   UNL     1      -3.716   2.087  -2.748  0.00  0.00    -0.375 OA
ATOM     22  H   UNL     1      -3.589   2.897  -2.235  0.00  0.00    +0.211 HD
ENDBRANCH  14  21
ENDBRANCH   1  14
BRANCH   1  23
ATOM     23  O   UNL     1      -3.353   1.951   0.307  0.00  0.00    -0.302 OA
BRANCH  23  24
ATOM     24  C   UNL     1      -2.707   1.908   1.581  0.00  0.00    +0.132 C 
ATOM     25  C   UNL     1      -3.662   2.432   2.655  0.00  0.00    +0.035 C 
ATOM     26  C   UNL     1      -2.970   2.386   4.019  0.00  0.00    -0.012 C 
ATOM     27  C   UNL     1      -1.714   3.259   3.983  0.00  0.00    +0.004 C 
ATOM     28  C   UNL     1      -0.759   2.736   2.909  0.00  0.00    +0.006 C 
ATOM     29  C   UNL     1      -1.451   2.782   1.545  0.00  0.00    +0.021 C 
ATOM     30  C   UNL     1      -3.925   2.909   5.094  0.00  0.00    +0.007 C 
BRANCH  29  31
ATOM     31  C   UNL     1      -0.496   2.258   0.470  0.00  0.00    -0.012 C 
ATOM     32  C   UNL     1       0.021   0.877   0.877  0.00  0.00    +0.007 C 
ATOM     33  C   UNL     1       0.683   3.221   0.324  0.00  0.00    +0.007 C 
ENDBRANCH  29  31
ENDBRANCH  23  24
ENDBRANCH   1  23
TORSDOF 9
