REMARK  Name = ZINC36207309
REMARK  16 active torsions:
REMARK  status: ('A' for Active; 'I' for Inactive)
REMARK    1  A    between atoms: C_1  and  C_2
REMARK    2  A    between atoms: C_2  and  C_3
REMARK    3  A    between atoms: C_9  and  C_18
REMARK    4  A    between atoms: C_13  and  C_14
REMARK    5  A    between atoms: C_14  and  O_16
REMARK    6  A    between atoms: O_16  and  C_17
REMARK    7  A    between atoms: C_18  and  N_19
REMARK    8  A    between atoms: N_19  and  C_20
REMARK    9  A    between atoms: N_19  and  C_33
REMARK   10  A    between atoms: C_20  and  C_21
REMARK   11  A    between atoms: C_21  and  C_23
REMARK   12  A    between atoms: C_21  and  O_32
REMARK   13  A    between atoms: C_23  and  O_24
REMARK   14  A    between atoms: O_24  and  C_25
REMARK   15  A    between atoms: C_33  and  C_34
REMARK   16  A    between atoms: C_33  and  C_35
REMARK                            x       y       z     vdW  Elec       q    Type
REMARK                         _______ _______ _______ _____ _____    ______ ____
ROOT
ATOM      1  C   UNL     1      -1.617  -1.446  -6.217  0.00  0.00    -0.003 C 
ENDROOT
BRANCH   1   8
ATOM      2  C   UNL     1       1.464   0.490  -1.894  0.00  0.00    -0.012 A 
ATOM      3  C   UNL     1       0.583   0.044  -2.880  0.00  0.00    +0.076 A 
ATOM      4  C   UNL     1      -0.898   0.013  -2.867  0.00  0.00    +0.260 A 
ATOM      5  O   UNL     1      -1.523   0.413  -1.901  0.00  0.00    -0.267 OA
ATOM      6  N   UNL     1      -1.536  -0.469  -3.951  0.00  0.00    -0.312 N 
ATOM      7  H   UNL     1      -2.505  -0.496  -3.959  0.00  0.00    +0.170 HD
ATOM      8  C   UNL     1      -0.851  -0.917  -5.032  0.00  0.00    +0.094 A 
ATOM      9  N   UNL     1       0.454  -0.904  -5.077  0.00  0.00    -0.229 NA
ATOM     10  C   UNL     1       1.180  -0.450  -4.063  0.00  0.00    +0.116 A 
ATOM     11  S   UNL     1       2.917  -0.271  -3.748  0.00  0.00    -0.062 S 
ATOM     12  C   UNL     1       2.811   0.436  -2.112  0.00  0.00    +0.102 A 
BRANCH   2  14
ATOM     13  C   UNL     1       0.711   2.543  -0.726  0.00  0.00    +0.009 C 
ATOM     14  C   UNL     1       0.931   1.035  -0.594  0.00  0.00    +0.034 C 
ENDBRANCH   2  14
BRANCH  12  15
ATOM     15  C   UNL     1       3.898   0.853  -1.224  0.00  0.00    +0.346 C 
ATOM     16  O   UNL     1       3.644   1.318  -0.129  0.00  0.00    -0.244 OA
BRANCH  15  17
ATOM     17  O   UNL     1       5.181   0.720  -1.620  0.00  0.00    -0.464 OA
ATOM     18  C   UNL     1       6.190   1.147  -0.703  0.00  0.00    +0.280 C 
ENDBRANCH  15  17
ENDBRANCH  12  15
ENDBRANCH   1   8
BRANCH   1  19
ATOM     19  N   UNL     1      -0.681  -2.039  -7.181  0.00  0.00    +0.388 N 
ATOM     20  H   UNL     1       0.173  -1.502  -7.194  0.00  0.00    -0.081 HD
BRANCH  19  21
ATOM     21  C   UNL     1      -0.384  -3.423  -6.787  0.00  0.00    -0.074 C 
ATOM     22  C   UNL     1       0.152  -3.441  -5.355  0.00  0.00    -0.014 C 
ATOM     23  C   UNL     1      -1.662  -4.260  -6.864  0.00  0.00    -0.014 C 
ENDBRANCH  19  21
BRANCH  19  24
ATOM     24  C   UNL     1      -1.286  -2.030  -8.520  0.00  0.00    -0.043 C 
BRANCH  24  25
ATOM     25  C   UNL     1      -0.249  -2.481  -9.551  0.00  0.00    +0.135 C 
BRANCH  25  26
ATOM     26  O   UNL     1       0.055  -3.862  -9.347  0.00  0.00    -0.390 OA
ATOM     27  H   UNL     1      -0.689  -4.457  -9.512  0.00  0.00    +0.210 HD
ENDBRANCH  25  26
BRANCH  25  28
ATOM     28  C   UNL     1      -0.812  -2.285 -10.960  0.00  0.00    +0.258 C 
BRANCH  28  29
ATOM     29  O   UNL     1       0.196  -2.596 -11.923  0.00  0.00    -0.489 OA
BRANCH  29  30
ATOM     30  C   UNL     1      -0.143  -2.473 -13.234  0.00  0.00    +0.121 A 
ATOM     31  C   UNL     1      -1.419  -2.055 -13.584  0.00  0.00    +0.047 A 
ATOM     32  C   UNL     1      -1.762  -1.930 -14.917  0.00  0.00    +0.023 A 
ATOM     33  C   UNL     1      -0.834  -2.221 -15.901  0.00  0.00    +0.041 A 
ATOM     34  C   UNL     1       0.439  -2.639 -15.553  0.00  0.00    +0.023 A 
ATOM     35  C   UNL     1       0.787  -2.758 -14.222  0.00  0.00    +0.047 A 
ATOM     36 CL   UNL     1      -1.268  -2.064 -17.575  0.00  0.00    -0.084 Cl
ENDBRANCH  29  30
ENDBRANCH  28  29
ENDBRANCH  25  28
ENDBRANCH  24  25
ENDBRANCH  19  24
ENDBRANCH   1  19
TORSDOF 12
