REMARK  Name = ZINC01758175
REMARK  20 active torsions:
REMARK  status: ('A' for Active; 'I' for Inactive)
REMARK    1  A    between atoms: C_1  and  C_2
REMARK    2  A    between atoms: C_2  and  C_3
REMARK    3  A    between atoms: C_2  and  S_4
REMARK    4  A    between atoms: S_4  and  C_7
REMARK    5  A    between atoms: C_7  and  C_8
REMARK    6  A    between atoms: C_8  and  C_9
REMARK    7  A    between atoms: C_8  and  C_16
REMARK    8  A    between atoms: C_8  and  C_23
REMARK    9  A    between atoms: C_9  and  S_10
REMARK   10  A    between atoms: S_10  and  C_13
REMARK   11  A    between atoms: C_13  and  C_14
REMARK   12  A    between atoms: C_13  and  C_15
REMARK   13  A    between atoms: C_16  and  S_17
REMARK   14  A    between atoms: S_17  and  C_20
REMARK   15  A    between atoms: C_20  and  C_21
REMARK   16  A    between atoms: C_20  and  C_22
REMARK   17  A    between atoms: C_23  and  S_24
REMARK   18  A    between atoms: S_24  and  C_27
REMARK   19  A    between atoms: C_27  and  C_28
REMARK   20  A    between atoms: C_27  and  C_29
REMARK                            x       y       z     vdW  Elec       q    Type
REMARK                         _______ _______ _______ _____ _____    ______ ____
ROOT
ATOM      1  C   UNL     1      -0.272   1.562   2.729  0.00  0.00    +0.048 C 
ENDROOT
BRANCH   1   2
ATOM      2  C   UNL     1      -0.987   1.970   1.440  0.00  0.00    +0.177 C 
BRANCH   2   3
ATOM      3  S   UNL     1      -0.017   1.417   0.010  0.00  0.00    -0.028 S 
ATOM      4  O   UNL     1       0.002  -0.004   0.002  0.00  0.00    -0.174 OA
ATOM      5  O   UNL     1       1.215   2.125   0.002  0.00  0.00    -0.174 OA
BRANCH   3   7
ATOM      6  C   UNL     1      -1.162   3.506  -1.334  0.00  0.00    +0.031 C 
ATOM      7  C   UNL     1      -1.014   1.985  -1.395  0.00  0.00    +0.124 C 
ATOM      8  C   UNL     1      -0.324   1.591  -2.703  0.00  0.00    +0.031 C 
ENDBRANCH   3   7
ENDBRANCH   2   3
ENDBRANCH   1   2
BRANCH   1   9
ATOM      9  C   UNL     1      -1.091   2.029   3.935  0.00  0.00    +0.177 C 
BRANCH   9  10
ATOM     10  S   UNL     1      -0.243   1.546   5.464  0.00  0.00    -0.028 S 
ATOM     11  O   UNL     1      -0.227   0.127   5.541  0.00  0.00    -0.174 OA
ATOM     12  O   UNL     1       0.986   2.256   5.541  0.00  0.00    -0.174 OA
BRANCH  10  13
ATOM     13  C   UNL     1      -1.351   2.177   6.754  0.00  0.00    +0.124 C 
ATOM     14  C   UNL     1      -2.727   1.523   6.609  0.00  0.00    +0.031 C 
ATOM     15  C   UNL     1      -0.772   1.847   8.131  0.00  0.00    +0.031 C 
ENDBRANCH  10  13
ENDBRANCH   9  10
ENDBRANCH   1   9
BRANCH   1  16
ATOM     16  C   UNL     1      -0.124   0.040   2.771  0.00  0.00    +0.177 C 
BRANCH  16  17
ATOM     17  S   UNL     1      -1.766  -0.729   2.722  0.00  0.00    -0.028 S 
ATOM     18  O   UNL     1      -2.462  -0.381   3.911  0.00  0.00    -0.174 OA
ATOM     19  O   UNL     1      -2.361  -0.439   1.464  0.00  0.00    -0.174 OA
BRANCH  17  20
ATOM     20  C   UNL     1      -1.381  -2.501   2.780  0.00  0.00    +0.124 C 
ATOM     21  C   UNL     1      -0.620  -2.815   4.069  0.00  0.00    +0.031 C 
ATOM     22  C   UNL     1      -2.681  -3.307   2.745  0.00  0.00    +0.031 C 
ENDBRANCH  17  20
ENDBRANCH  16  17
ENDBRANCH   1  16
BRANCH   1  23
ATOM     23  C   UNL     1       1.113   2.211   2.771  0.00  0.00    +0.177 C 
BRANCH  23  24
ATOM     24  S   UNL     1       0.937   4.016   2.721  0.00  0.00    -0.028 S 
ATOM     25  O   UNL     1       0.385   4.379   1.464  0.00  0.00    -0.174 OA
ATOM     26  O   UNL     1       0.283   4.437   3.911  0.00  0.00    -0.174 OA
BRANCH  24  27
ATOM     27  C   UNL     1       2.658   4.588   2.779  0.00  0.00    +0.124 C 
ATOM     28  C   UNL     1       2.685   6.115   2.870  0.00  0.00    +0.031 C 
ATOM     29  C   UNL     1       3.353   3.991   4.005  0.00  0.00    +0.031 C 
ENDBRANCH  24  27
ENDBRANCH  23  24
ENDBRANCH   1  23
TORSDOF 12
