REMARK  Name = ZINC35706634
REMARK  10 active torsions:
REMARK  status: ('A' for Active; 'I' for Inactive)
REMARK    1  A    between atoms: C_4  and  C_7
REMARK    2  A    between atoms: C_7  and  C_8
REMARK    3  A    between atoms: C_8  and  C_10
REMARK    4  A    between atoms: C_8  and  N_16
REMARK    5  A    between atoms: C_17  and  C_19
REMARK    6  A    between atoms: C_22  and  C_24
REMARK    7  A    between atoms: C_24  and  N_25
REMARK    8  A    between atoms: N_25  and  C_26
REMARK    9  A    between atoms: N_25  and  C_34
REMARK   10  A    between atoms: C_26  and  C_27
REMARK                            x       y       z     vdW  Elec       q    Type
REMARK                         _______ _______ _______ _____ _____    ______ ____
ROOT
ATOM      1  C   UNL     1       3.527   2.593   4.264  0.00  0.00    +0.189 A 
ATOM      2  C   UNL     1       3.673   2.687   5.619  0.00  0.00    +0.055 A 
ATOM      3  C   UNL     1       4.413   3.854   5.865  0.00  0.00    +0.043 A 
ATOM      4  C   UNL     1       4.682   4.414   4.665  0.00  0.00    +0.090 A 
ATOM      5  O   UNL     1       4.151   3.649   3.703  0.00  0.00    -0.457 OA
ENDROOT
BRANCH   1   7
ATOM      6  N   UNL     1       2.754   1.551   2.200  0.00  0.00    -0.302 N 
ATOM      7  C   UNL     1       2.820   1.527   3.546  0.00  0.00    +0.280 C 
ATOM      8  O   UNL     1       2.293   0.622   4.165  0.00  0.00    -0.267 OA
ATOM      9  H   UNL     1       3.174   2.273   1.706  0.00  0.00    +0.150 HD
BRANCH   6  10
ATOM     10  C   UNL     1       2.049   0.486   1.482  0.00  0.00    +0.108 C 
BRANCH  10  11
ATOM     11  C   UNL     1       2.979  -0.680   1.272  0.00  0.00    -0.027 A 
ATOM     12  C   UNL     1       4.303  -0.458   0.942  0.00  0.00    +0.005 A 
ATOM     13  C   UNL     1       5.156  -1.528   0.749  0.00  0.00    +0.000 A 
ATOM     14  C   UNL     1       4.686  -2.821   0.887  0.00  0.00    +0.000 A 
ATOM     15  C   UNL     1       3.363  -3.043   1.218  0.00  0.00    +0.000 A 
ATOM     16  C   UNL     1       2.510  -1.973   1.415  0.00  0.00    +0.005 A 
ENDBRANCH  10  11
BRANCH  10  17
ATOM     17  C   UNL     1       1.576   1.013   0.126  0.00  0.00    +0.062 C 
BRANCH  17  21
ATOM     18  C   UNL     1      -1.327   4.089   0.722  0.00  0.00    +0.000 A 
ATOM     19  C   UNL     1       0.015   4.411   0.641  0.00  0.00    +0.000 A 
ATOM     20  C   UNL     1       0.954   3.416   0.448  0.00  0.00    +0.004 A 
ATOM     21  C   UNL     1       0.552   2.098   0.337  0.00  0.00    -0.045 A 
ATOM     22  C   UNL     1      -0.790   1.776   0.419  0.00  0.00    +0.004 A 
ATOM     23  C   UNL     1      -1.729   2.772   0.610  0.00  0.00    +0.000 A 
ENDBRANCH  17  21
ENDBRANCH  10  17
ENDBRANCH   6  10
ENDBRANCH   1   7
BRANCH   4  24
ATOM     24  C   UNL     1       5.457   5.688   4.445  0.00  0.00    -0.002 C 
BRANCH  24  25
ATOM     25  N   UNL     1       6.897   5.399   4.488  0.00  0.00    +0.389 N 
ATOM     26  H   UNL     1       7.116   4.909   5.342  0.00  0.00    -0.080 HD
BRANCH  25  27
ATOM     27  C   UNL     1       7.263   4.564   3.336  0.00  0.00    -0.068 C 
ATOM     28  C   UNL     1       6.463   5.008   2.110  0.00  0.00    -0.015 C 
ATOM     29  C   UNL     1       6.845   4.138   0.910  0.00  0.00    -0.002 C 
ATOM     30  C   UNL     1       6.531   2.673   1.221  0.00  0.00    -0.000 C 
ATOM     31  C   UNL     1       7.330   2.230   2.448  0.00  0.00    -0.002 C 
ATOM     32  C   UNL     1       6.949   3.099   3.647  0.00  0.00    -0.015 C 
ENDBRANCH  25  27
BRANCH  25  33
ATOM     33  C   UNL     1       7.651   6.659   4.439  0.00  0.00    -0.041 C 
BRANCH  33  34
ATOM     34  C   UNL     1       9.116   6.376   4.652  0.00  0.00    -0.046 A 
ATOM     35  C   UNL     1       9.609   6.214   5.933  0.00  0.00    +0.003 A 
ATOM     36  C   UNL     1      10.953   5.954   6.128  0.00  0.00    +0.000 A 
ATOM     37  C   UNL     1      11.804   5.857   5.043  0.00  0.00    +0.001 A 
ATOM     38  C   UNL     1      11.311   6.020   3.762  0.00  0.00    +0.020 A 
ATOM     39  C   UNL     1       9.966   6.274   3.565  0.00  0.00    +0.042 A 
ATOM     40 CL   UNL     1       9.345   6.471   1.956  0.00  0.00    -0.083 Cl
ENDBRANCH  33  34
ENDBRANCH  25  33
ENDBRANCH  24  25
ENDBRANCH   4  24
TORSDOF 10
