REMARK  Name = ZINC35070161
REMARK  13 active torsions:
REMARK  status: ('A' for Active; 'I' for Inactive)
REMARK    1  A    between atoms: C_1  and  C_2
REMARK    2  A    between atoms: C_2  and  C_3
REMARK    3  A    between atoms: C_3  and  C_5
REMARK    4  A    between atoms: C_3  and  N_23
REMARK    5  A    between atoms: N_15  and  C_16
REMARK    6  A    between atoms: N_23  and  C_24
REMARK    7  A    between atoms: C_24  and  C_25
REMARK    8  A    between atoms: C_25  and  O_26
REMARK    9  A    between atoms: O_26  and  C_27
REMARK   10  A    between atoms: N_30  and  C_31
REMARK   11  A    between atoms: C_31  and  C_32
REMARK   12  A    between atoms: C_31  and  C_33
REMARK   13  A    between atoms: C_31  and  C_34
REMARK                            x       y       z     vdW  Elec       q    Type
REMARK                         _______ _______ _______ _____ _____    ______ ____
ROOT
ATOM      1  C   UNL     1       0.925  -2.103   1.609  0.00  0.00    +0.138 A 
ATOM      2  N   UNL     1       1.366  -2.868   0.658  0.00  0.00    -0.231 NA
ATOM      3  C   UNL     1       0.883  -4.121   0.470  0.00  0.00    +0.078 A 
ATOM      4  C   UNL     1       1.358  -4.944  -0.553  0.00  0.00    +0.028 A 
ATOM      5  C   UNL     1       0.839  -6.210  -0.707  0.00  0.00    +0.002 A 
ATOM      6  C   UNL     1      -0.154  -6.680   0.144  0.00  0.00    +0.001 A 
ATOM      7  C   UNL     1      -0.639  -5.887   1.160  0.00  0.00    +0.015 A 
ATOM      8  C   UNL     1      -0.126  -4.603   1.333  0.00  0.00    +0.065 A 
ATOM      9  C   UNL     1      -0.605  -3.713   2.401  0.00  0.00    +0.266 A 
ATOM     10  O   UNL     1      -1.472  -4.067   3.179  0.00  0.00    -0.267 OA
ATOM     11  N   UNL     1      -0.040  -2.486   2.489  0.00  0.00    -0.263 N 
ENDROOT
BRANCH  11  12
ATOM     12  C   UNL     1      -0.456  -1.600   3.491  0.00  0.00    +0.051 A 
ATOM     13  C   UNL     1      -1.473  -0.689   3.236  0.00  0.00    +0.027 A 
ATOM     14  C   UNL     1      -1.881   0.183   4.226  0.00  0.00    +0.017 A 
ATOM     15  C   UNL     1      -1.279   0.150   5.471  0.00  0.00    +0.018 A 
ATOM     16  C   UNL     1      -0.265  -0.757   5.728  0.00  0.00    +0.017 A 
ATOM     17  C   UNL     1       0.143  -1.635   4.744  0.00  0.00    +0.027 A 
ATOM     18 BR   UNL     1      -1.840   1.345   6.824  0.00  0.00    -0.050 Br
ENDBRANCH  11  12
BRANCH   1  19
ATOM     19  C   UNL     1       1.515  -0.724   1.751  0.00  0.00    +0.144 C 
BRANCH  19  20
ATOM     20  N   UNL     1       2.930  -0.833   2.113  0.00  0.00    -0.273 N 
ATOM     21  C   UNL     1       3.375  -0.295   3.266  0.00  0.00    +0.303 C 
ATOM     22  O   UNL     1       2.601   0.282   4.005  0.00  0.00    -0.253 OA
ATOM     23  N   UNL     1       4.677  -0.395   3.599  0.00  0.00    -0.294 N 
ATOM     24  H   UNL     1       5.294  -0.855   3.009  0.00  0.00    +0.151 HD
BRANCH  23  25
ATOM     25  C   UNL     1       5.160   0.190   4.852  0.00  0.00    +0.028 C 
ATOM     26  C   UNL     1       4.426  -0.453   6.031  0.00  0.00    +0.031 C 
ATOM     27  C   UNL     1       6.662  -0.063   4.987  0.00  0.00    +0.031 C 
ATOM     28  C   UNL     1       4.895   1.697   4.846  0.00  0.00    +0.031 C 
ENDBRANCH  23  25
BRANCH  20  29
ATOM     29  C   UNL     1       3.863  -1.528   1.222  0.00  0.00    +0.138 C 
BRANCH  29  30
ATOM     30  C   UNL     1       4.458  -0.528   0.227  0.00  0.00    +0.178 C 
BRANCH  30  31
ATOM     31  O   UNL     1       5.251   0.429   0.932  0.00  0.00    -0.381 OA
ATOM     32  C   UNL     1       5.856   1.414   0.091  0.00  0.00    +0.194 C 
ENDBRANCH  30  31
ENDBRANCH  29  30
ENDBRANCH  20  29
ENDBRANCH  19  20
BRANCH  19  34
ATOM     33  C   UNL     1       1.851   1.471   0.605  0.00  0.00    +0.006 C 
ATOM     34  C   UNL     1       1.385   0.025   0.423  0.00  0.00    +0.027 C 
ENDBRANCH  19  34
ENDBRANCH   1  19
TORSDOF 8
