REMARK  Name = ZINC65792843
REMARK  7 active torsions:
REMARK  status: ('A' for Active; 'I' for Inactive)
REMARK    1  A    between atoms: C_1  and  C_2
REMARK    2  A    between atoms: C_2  and  C_3
REMARK    3  A    between atoms: C_2  and  N_9
REMARK    4  A    between atoms: C_12  and  N_14
REMARK    5  A    between atoms: N_14  and  S_15
REMARK    6  A    between atoms: S_15  and  C_18
REMARK    7  A    between atoms: C_22  and  N_24
REMARK                            x       y       z     vdW  Elec       q    Type
REMARK                         _______ _______ _______ _____ _____    ______ ____
ROOT
ATOM      1  N   UNL     1       4.188  -1.193  -1.693  0.00  0.00    -0.189 NA
ATOM      2  H   UNL     1       4.371  -1.184  -0.740  0.00  0.00    +0.148 HD
ENDROOT
BRANCH   1   6
ATOM      3  N   UNL     1       0.690  -0.478  -1.207  0.00  0.00    +0.385 N 
ATOM      4  C   UNL     1       0.834  -1.956  -1.177  0.00  0.00    -0.076 C 
ATOM      5  C   UNL     1       2.003  -2.253  -2.139  0.00  0.00    -0.000 C 
ATOM      6  C   UNL     1       2.829  -0.950  -2.181  0.00  0.00    +0.058 C 
ATOM      7  C   UNL     1       2.087   0.024  -1.240  0.00  0.00    -0.058 C 
ATOM      8  H   UNL     1       0.190  -0.187  -2.034  0.00  0.00    -0.081 HD
BRANCH   3  10
ATOM      9  C   UNL     1      -0.019   1.526   0.010  0.00  0.00    -0.008 C 
ATOM     10  C   UNL     1       0.002  -0.004   0.002  0.00  0.00    -0.041 C 
BRANCH  10  11
ATOM     11  C   UNL     1      -1.412  -0.526   0.013  0.00  0.00    -0.061 A 
ATOM     12  C   UNL     1      -2.141  -0.569  -1.161  0.00  0.00    +0.002 A 
ATOM     13  C   UNL     1      -3.438  -1.047  -1.151  0.00  0.00    +0.000 A 
ATOM     14  C   UNL     1      -4.005  -1.483   0.032  0.00  0.00    +0.000 A 
ATOM     15  C   UNL     1      -3.275  -1.441   1.205  0.00  0.00    +0.000 A 
ATOM     16  C   UNL     1      -1.977  -0.966   1.195  0.00  0.00    +0.002 A 
ENDBRANCH  10  11
ENDBRANCH   3  10
ENDBRANCH   1   6
BRANCH   1  17
ATOM     17  S   UNL     1       5.414  -1.484  -2.768  0.00  0.00    +0.059 S 
ATOM     18  O   UNL     1       6.597  -1.651  -1.999  0.00  0.00    -0.153 OA
ATOM     19  O   UNL     1       4.940  -2.479  -3.664  0.00  0.00    -0.153 OA
BRANCH  17  20
ATOM     20  C   UNL     1       5.634  -0.015  -3.717  0.00  0.00    +0.107 A 
ATOM     21  C   UNL     1       4.919   0.165  -4.887  0.00  0.00    +0.028 A 
ATOM     22  C   UNL     1       5.088   1.315  -5.634  0.00  0.00    +0.004 A 
ATOM     23  C   UNL     1       5.973   2.289  -5.214  0.00  0.00    +0.028 A 
ATOM     24  C   UNL     1       6.692   2.111  -4.040  0.00  0.00    +0.071 A 
ATOM     25  C   UNL     1       6.516   0.957  -3.289  0.00  0.00    +0.056 A 
BRANCH  24  26
ATOM     26  N   UNL     1       7.592   3.099  -3.610  0.00  0.00    -0.200 N 
ATOM     27  C   UNL     1       7.802   4.313  -4.163  0.00  0.00    +0.250 A 
ATOM     28  N   UNL     1       8.721   4.910  -3.450  0.00  0.00    -0.116 NA
ATOM     29  N   UNL     1       9.106   4.156  -2.485  0.00  0.00    -0.023 NA
ATOM     30  N   UNL     1       8.463   3.038  -2.509  0.00  0.00    -0.039 NA
ENDBRANCH  24  26
ENDBRANCH  17  20
ENDBRANCH   1  17
TORSDOF 6
