REMARK  Name = ZINC39623764
REMARK  7 active torsions:
REMARK  status: ('A' for Active; 'I' for Inactive)
REMARK    1  A    between atoms: C_4  and  C_7
REMARK    2  A    between atoms: C_7  and  C_8
REMARK    3  A    between atoms: C_8  and  C_9
REMARK    4  A    between atoms: C_9  and  N_10
REMARK    5  A    between atoms: C_11  and  C_13
REMARK    6  A    between atoms: C_24  and  C_26
REMARK    7  A    between atoms: C_29  and  C_31
REMARK                            x       y       z     vdW  Elec       q    Type
REMARK                         _______ _______ _______ _____ _____    ______ ____
ROOT
ATOM      1  C   UNL     1       7.559  -2.856   4.402  0.00  0.00    +0.100 C 
ATOM      2  C   UNL     1       7.931  -1.525   5.094  0.00  0.00    +0.121 C 
ATOM      3  N   UNL     1       9.106  -1.855   5.935  0.00  0.00    -0.294 N 
ATOM      4  C   UNL     1       9.905  -2.787   5.103  0.00  0.00    +0.115 C 
ATOM      5  C   UNL     1       8.857  -3.681   4.410  0.00  0.00    -0.004 C 
ATOM      6  C   UNL     1       9.293  -3.993   2.982  0.00  0.00    -0.010 C 
ATOM      7  C   UNL     1      10.553  -4.863   3.016  0.00  0.00    -0.082 C 
ATOM      8  N   UNL     1      10.272  -6.106   3.745  0.00  0.00    +0.379 N 
ATOM      9  C   UNL     1       9.944  -5.802   5.144  0.00  0.00    -0.082 C 
ATOM     10  C   UNL     1       8.659  -4.971   5.199  0.00  0.00    -0.010 C 
ATOM     11  C   UNL     1       9.384  -1.410   7.176  0.00  0.00    +0.282 C 
ATOM     12  O   UNL     1      10.399  -1.776   7.741  0.00  0.00    -0.267 OA
ATOM     13  H   UNL     1       9.492  -6.579   3.314  0.00  0.00    -0.086 HD
ATOM     14  H   UNL     1      11.084  -6.703   3.714  0.00  0.00    -0.086 HD
ENDROOT
BRANCH  11  15
ATOM     15  C   UNL     1       8.466  -0.485   7.846  0.00  0.00    +0.190 A 
ATOM     16  C   UNL     1       8.632   0.049   9.105  0.00  0.00    +0.055 A 
ATOM     17  C   UNL     1       7.527   0.874   9.342  0.00  0.00    +0.050 A 
ATOM     18  C   UNL     1       6.736   0.814   8.231  0.00  0.00    +0.136 A 
ATOM     19  O   UNL     1       7.314  -0.003   7.334  0.00  0.00    -0.450 OA
BRANCH  18  20
ATOM     20  C   UNL     1       5.459   1.532   8.044  0.00  0.00    +0.017 A 
ATOM     21  C   UNL     1       4.968   2.364   9.052  0.00  0.00    +0.011 A 
ATOM     22  C   UNL     1       3.775   3.032   8.870  0.00  0.00    +0.001 A 
ATOM     23  C   UNL     1       3.065   2.879   7.692  0.00  0.00    +0.000 A 
ATOM     24  C   UNL     1       3.546   2.056   6.689  0.00  0.00    +0.001 A 
ATOM     25  C   UNL     1       4.740   1.386   6.855  0.00  0.00    +0.011 A 
ENDBRANCH  18  20
ENDBRANCH  11  15
BRANCH   1  27
ATOM     26  N   UNL     1       6.229  -3.442   2.401  0.00  0.00    -0.315 N 
ATOM     27  C   UNL     1       7.106  -2.603   2.988  0.00  0.00    +0.218 C 
ATOM     28  O   UNL     1       7.530  -1.645   2.377  0.00  0.00    -0.275 OA
ATOM     29  H   UNL     1       5.890  -4.209   2.890  0.00  0.00    +0.149 HD
BRANCH  26  30
ATOM     30  C   UNL     1       5.789  -3.197   1.026  0.00  0.00    +0.104 C 
BRANCH  30  31
ATOM     31  C   UNL     1       4.803  -4.288   0.604  0.00  0.00    +0.023 C 
BRANCH  31  32
ATOM     32  C   UNL     1       4.342  -4.032  -0.833  0.00  0.00    +0.036 C 
BRANCH  32  36
ATOM     33  C   UNL     1       1.588  -7.077  -2.012  0.00  0.00    +0.000 A 
ATOM     34  C   UNL     1       1.125  -5.921  -1.411  0.00  0.00    +0.000 A 
ATOM     35  C   UNL     1       2.017  -4.936  -1.029  0.00  0.00    +0.003 A 
ATOM     36  C   UNL     1       3.371  -5.107  -1.248  0.00  0.00    -0.047 A 
ATOM     37  C   UNL     1       3.834  -6.263  -1.848  0.00  0.00    +0.003 A 
ATOM     38  C   UNL     1       2.943  -7.247  -2.232  0.00  0.00    +0.000 A 
ENDBRANCH  32  36
ENDBRANCH  31  32
ENDBRANCH  30  31
ENDBRANCH  26  30
ENDBRANCH   1  27
TORSDOF 7
