REMARK  Name = ZINC39578407
REMARK  7 active torsions:
REMARK  status: ('A' for Active; 'I' for Inactive)
REMARK    1  A    between atoms: C_1  and  C_2
REMARK    2  A    between atoms: C_2  and  C_3
REMARK    3  A    between atoms: C_10  and  C_15
REMARK    4  A    between atoms: C_15  and  S_16
REMARK    5  A    between atoms: S_16  and  C_17
REMARK    6  A    between atoms: C_20  and  C_23
REMARK    7  A    between atoms: N_21  and  N_22
REMARK                            x       y       z     vdW  Elec       q    Type
REMARK                         _______ _______ _______ _____ _____    ______ ____
ROOT
ATOM      1  C   UNL     1      -6.194  -2.059   1.308  0.00  0.00    +0.113 C 
ENDROOT
BRANCH   1   9
ATOM      2  C   UNL     1      -1.412  -0.526   0.013  0.00  0.00    -0.026 A 
ATOM      3  C   UNL     1      -1.990  -0.956  -1.163  0.00  0.00    +0.052 A 
ATOM      4  C   UNL     1      -3.292  -1.438  -1.161  0.00  0.00    +0.140 A 
ATOM      5  C   UNL     1      -4.011  -1.482   0.047  0.00  0.00    +0.023 A 
ATOM      6  C   UNL     1      -3.413  -1.042   1.232  0.00  0.00    +0.032 A 
ATOM      7  C   UNL     1      -2.118  -0.573   1.207  0.00  0.00    +0.045 A 
ATOM      8 CL   UNL     1      -1.367  -0.033   2.676  0.00  0.00    -0.083 Cl
ATOM      9  C   UNL     1      -5.385  -1.992   0.038  0.00  0.00    -0.020 A 
ATOM     10  C   UNL     1      -5.908  -2.404  -1.145  0.00  0.00    +0.097 A 
ATOM     11  C   UNL     1      -5.129  -2.332  -2.320  0.00  0.00    +0.338 A 
ATOM     12  O   UNL     1      -5.611  -2.703  -3.374  0.00  0.00    -0.245 OA
ATOM     13  O   UNL     1      -3.872  -1.863  -2.304  0.00  0.00    -0.422 OA
BRANCH   2  15
ATOM     14  C   UNL     1      -0.019   1.526   0.010  0.00  0.00    +0.009 C 
ATOM     15  C   UNL     1       0.002  -0.004   0.002  0.00  0.00    +0.033 C 
ENDBRANCH   2  15
ENDBRANCH   1   9
BRANCH   1  16
ATOM     16  S   UNL     1      -5.612  -3.444   2.324  0.00  0.00    -0.080 S 
BRANCH  16  17
ATOM     17  C   UNL     1      -6.643  -3.388   3.752  0.00  0.00    +0.209 A 
ATOM     18  N   UNL     1      -7.606  -2.528   3.986  0.00  0.00    -0.121 NA
ATOM     19  N   UNL     1      -8.150  -2.780   5.122  0.00  0.00    -0.132 NA
ATOM     20  C   UNL     1      -7.572  -3.807   5.677  0.00  0.00    +0.154 A 
ATOM     21  N   UNL     1      -6.595  -4.235   4.821  0.00  0.00    -0.228 N 
BRANCH  20  22
ATOM     22  C   UNL     1      -7.919  -4.415   7.012  0.00  0.00    +0.059 C 
ATOM     23  C   UNL     1      -9.373  -4.891   6.992  0.00  0.00    +0.011 C 
ATOM     24  C   UNL     1      -9.726  -5.508   8.347  0.00  0.00    +0.001 C 
ATOM     25  C   UNL     1      -9.547  -4.459   9.447  0.00  0.00    +0.000 C 
ATOM     26  C   UNL     1      -8.093  -3.983   9.466  0.00  0.00    +0.001 C 
ATOM     27  C   UNL     1      -7.741  -3.366   8.112  0.00  0.00    +0.011 C 
ENDBRANCH  20  22
BRANCH  21  28
ATOM     28  N   UNL     1      -5.745  -5.290   5.001  0.00  0.00    -0.295 N 
ATOM     29  H   UNL     1      -4.902  -4.998   5.473  0.00  0.00    +0.163 HD
ATOM     30  H   UNL     1      -6.199  -6.039   5.502  0.00  0.00    +0.163 HD
ENDBRANCH  21  28
ENDBRANCH  16  17
ENDBRANCH   1  16
TORSDOF 6
