REMARK  Name = ZINC03438481
REMARK  8 active torsions:
REMARK  status: ('A' for Active; 'I' for Inactive)
REMARK    1  A    between atoms: C_1  and  C_2
REMARK    2  A    between atoms: C_2  and  C_3
REMARK    3  A    between atoms: C_2  and  N_4
REMARK    4  A    between atoms: N_4  and  C_5
REMARK    5  A    between atoms: C_5  and  C_6
REMARK    6  A    between atoms: C_16  and  C_18
REMARK    7  A    between atoms: C_18  and  S_19
REMARK    8  A    between atoms: S_19  and  C_20
REMARK                            x       y       z     vdW  Elec       q    Type
REMARK                         _______ _______ _______ _____ _____    ______ ____
ROOT
ATOM      1  N   UNL     1      -0.720   4.397  -0.825  0.00  0.00    -0.303 N 
ATOM      2  C   UNL     1       0.623   4.436  -0.499  0.00  0.00    +0.134 A 
ATOM      3  C   UNL     1       1.271   3.356   0.168  0.00  0.00    +0.051 A 
ATOM      4  C   UNL     1       0.673   2.102   0.594  0.00  0.00    -0.025 A 
ATOM      5  C   UNL     1       1.490   1.219   1.211  0.00  0.00    -0.004 A 
ATOM      6  S   UNL     1       3.081   2.005   1.255  0.00  0.00    -0.073 S 
ATOM      7  C   UNL     1       2.652   3.514   0.448  0.00  0.00    +0.114 A 
ATOM      8  N   UNL     1       3.338   4.592   0.125  0.00  0.00    -0.224 NA
ATOM      9  C   UNL     1       2.674   5.561  -0.493  0.00  0.00    +0.142 A 
ATOM     10  N   UNL     1       1.391   5.484  -0.787  0.00  0.00    -0.216 NA
ATOM     11  C   UNL     1       1.128  -0.134   1.742  0.00  0.00    +0.043 C 
ATOM     12  C   UNL     1      -0.402  -0.234   1.817  0.00  0.00    +0.005 C 
ATOM     13  C   UNL     1      -0.991   0.257   0.491  0.00  0.00    +0.005 C 
ATOM     14  C   UNL     1      -0.800   1.769   0.368  0.00  0.00    +0.037 C 
ENDROOT
BRANCH   1  16
ATOM     15  C   UNL     1      -0.208   5.644  -2.870  0.00  0.00    +0.028 C 
ATOM     16  C   UNL     1      -0.908   4.417  -2.282  0.00  0.00    +0.069 C 
ATOM     17  C   UNL     1      -0.310   3.147  -2.891  0.00  0.00    +0.028 C 
ENDBRANCH   1  16
BRANCH   1  18
ATOM     18  C   UNL     1      -1.450   5.500  -0.185  0.00  0.00    +0.202 C 
BRANCH  18  19
ATOM     19  C   UNL     1      -2.929   5.214  -0.225  0.00  0.00    +0.228 C 
ATOM     20  O   UNL     1      -3.335   4.192  -0.735  0.00  0.00    -0.274 OA
ATOM     21  N   UNL     1      -3.800   6.094   0.308  0.00  0.00    -0.328 N 
ATOM     22  H   UNL     1      -3.475   6.912   0.716  0.00  0.00    +0.145 HD
ATOM     23  H   UNL     1      -4.752   5.910   0.283  0.00  0.00    +0.145 HD
ENDBRANCH  18  19
ENDBRANCH   1  18
BRANCH   9  24
ATOM     24  C   UNL     1       3.424   6.809  -0.880  0.00  0.00    +0.150 C 
BRANCH  24  25
ATOM     25  S   UNL     1       4.112   6.611  -2.546  0.00  0.00    -0.117 S 
BRANCH  25  26
ATOM     26  C   UNL     1       4.947   8.133  -2.847  0.00  0.00    +0.008 A 
ATOM     27  C   UNL     1       4.944   9.131  -1.881  0.00  0.00    +0.016 A 
ATOM     28  C   UNL     1       5.604  10.321  -2.118  0.00  0.00    +0.016 A 
ATOM     29  C   UNL     1       6.258  10.524  -3.320  0.00  0.00    +0.018 A 
ATOM     30  C   UNL     1       6.258   9.534  -4.287  0.00  0.00    +0.016 A 
ATOM     31  C   UNL     1       5.605   8.339  -4.054  0.00  0.00    +0.016 A 
ATOM     32 BR   UNL     1       7.153  12.158  -3.643  0.00  0.00    -0.050 Br
ENDBRANCH  25  26
ENDBRANCH  24  25
ENDBRANCH   9  24
TORSDOF 6
