REMARK  Name = ZINC40730254
REMARK  9 active torsions:
REMARK  status: ('A' for Active; 'I' for Inactive)
REMARK    1  A    between atoms: C_1  and  C_2
REMARK    2  A    between atoms: C_2  and  C_3
REMARK    3  A    between atoms: C_3  and  C_4
REMARK    4  A    between atoms: C_4  and  N_5
REMARK    5  A    between atoms: N_5  and  C_6
REMARK    6  A    between atoms: C_8  and  N_25
REMARK    7  A    between atoms: C_9  and  N_13
REMARK    8  A    between atoms: N_13  and  C_14
REMARK    9  A    between atoms: C_21  and  C_24
REMARK                            x       y       z     vdW  Elec       q    Type
REMARK                         _______ _______ _______ _____ _____    ______ ____
ROOT
ATOM      1  N   UNL     1       1.461  -2.572   2.397  0.00  0.00    -0.317 N 
ATOM      2  C   UNL     1       0.917  -1.274   2.800  0.00  0.00    +0.130 C 
ATOM      3  C   UNL     1       2.836  -2.768   2.357  0.00  0.00    +0.147 A 
ATOM      4  C   UNL     1       3.505  -3.328   3.448  0.00  0.00    +0.106 A 
ATOM      5  C   UNL     1       4.887  -3.502   3.356  0.00  0.00    +0.149 A 
ATOM      6  N   UNL     1       5.510  -3.130   2.239  0.00  0.00    -0.219 NA
ATOM      7  C   UNL     1       4.841  -2.605   1.233  0.00  0.00    +0.225 A 
ATOM      8  N   UNL     1       3.536  -2.428   1.278  0.00  0.00    -0.219 NA
ENDROOT
BRANCH   4   9
ATOM      9  N   UNL     1       2.806  -3.705   4.606  0.00  0.00    -0.353 N 
ATOM     10  H   UNL     1       1.838  -3.645   4.630  0.00  0.00    +0.143 HD
ATOM     11  H   UNL     1       3.291  -4.025   5.383  0.00  0.00    +0.143 HD
ENDBRANCH   4   9
BRANCH   5  12
ATOM     12  N   UNL     1       5.601  -4.054   4.413  0.00  0.00    -0.296 N 
ATOM     13  H   UNL     1       5.155  -4.242   5.253  0.00  0.00    +0.154 HD
BRANCH  12  14
ATOM     14  C   UNL     1       6.958  -4.339   4.264  0.00  0.00    +0.059 A 
ATOM     15  C   UNL     1       7.487  -4.568   3.012  0.00  0.00    +0.025 A 
ATOM     16  C   UNL     1       8.839  -4.853   2.850  0.00  0.00    +0.003 A 
ATOM     17  C   UNL     1       9.676  -4.914   3.922  0.00  0.00    +0.010 A 
ATOM     18  C   UNL     1       9.176  -4.686   5.215  0.00  0.00    +0.002 A 
ATOM     19  C   UNL     1       7.803  -4.389   5.395  0.00  0.00    +0.092 A 
ATOM     20  N   UNL     1       7.325  -4.168   6.622  0.00  0.00    -0.250 NA
ATOM     21  C   UNL     1       8.104  -4.214   7.675  0.00  0.00    +0.039 A 
ATOM     22  C   UNL     1       9.464  -4.494   7.569  0.00  0.00    +0.023 A 
ATOM     23  C   UNL     1      10.015  -4.741   6.344  0.00  0.00    +0.012 A 
ATOM     24  C   UNL     1       7.512  -3.955   9.037  0.00  0.00    +0.065 C 
ENDBRANCH  12  14
ENDBRANCH   5  12
BRANCH   1  25
ATOM     25  C   UNL     1       0.555  -3.666   2.035  0.00  0.00    +0.106 C 
BRANCH  25  26
ATOM     26  C   UNL     1       0.263  -3.610   0.535  0.00  0.00    +0.019 C 
BRANCH  26  28
ATOM     27  C   UNL     1      -0.976  -4.697  -1.344  0.00  0.00    +0.004 C 
ATOM     28  C   UNL     1      -0.683  -4.752   0.157  0.00  0.00    -0.002 C 
ENDBRANCH  26  28
ENDBRANCH  25  26
ENDBRANCH   1  25
TORSDOF 6
