REMARK  Name = ZINC16886772
REMARK  7 active torsions:
REMARK  status: ('A' for Active; 'I' for Inactive)
REMARK    1  A    between atoms: C_5  and  C_7
REMARK    2  A    between atoms: N_9  and  C_10
REMARK    3  A    between atoms: C_10  and  C_21
REMARK    4  A    between atoms: C_11  and  C_12
REMARK    5  A    between atoms: C_16  and  N_18
REMARK    6  A    between atoms: N_23  and  C_24
REMARK    7  A    between atoms: C_24  and  C_25
REMARK                            x       y       z     vdW  Elec       q    Type
REMARK                         _______ _______ _______ _____ _____    ______ ____
ROOT
ATOM      1  C   UNL     1      -1.255   5.994  -0.070  0.00  0.00    +0.097 C 
ATOM      2  C   UNL     1      -0.084   5.347   0.128  0.00  0.00    +0.036 C 
ENDROOT
BRANCH   2   3
ATOM      3  C   UNL     1      -0.085   3.929   0.522  0.00  0.00    -0.021 A 
ATOM      4  C   UNL     1      -1.206   3.374   1.150  0.00  0.00    +0.008 A 
ATOM      5  C   UNL     1      -1.201   2.044   1.510  0.00  0.00    +0.003 A 
ATOM      6  C   UNL     1      -0.088   1.260   1.262  0.00  0.00    +0.033 A 
ATOM      7  C   UNL     1       1.024   1.801   0.641  0.00  0.00    +0.127 A 
ATOM      8  C   UNL     1       1.033   3.129   0.269  0.00  0.00    +0.040 A 
BRANCH   7   9
ATOM      9  N   UNL     1       2.207   0.952   0.374  0.00  0.00    +0.056 N 
ATOM     10  O   UNL     1       2.201  -0.222   0.702  0.00  0.00    -0.126 OA
ATOM     11  O   UNL     1       3.187   1.426  -0.172  0.00  0.00    -0.126 OA
ENDBRANCH   7   9
ENDBRANCH   2   3
BRANCH   1  14
ATOM     12  C   UNL     1      -3.442   5.630   0.788  0.00  0.00    +0.250 C 
ATOM     13  O   UNL     1      -3.253   6.503   1.613  0.00  0.00    -0.270 OA
ATOM     14  N   UNL     1      -2.458   5.282  -0.064  0.00  0.00    -0.277 N 
ATOM     15  H   UNL     1      -2.584   4.537  -0.673  0.00  0.00    +0.155 HD
BRANCH  12  20
ATOM     16  C   UNL     1      -6.160   3.232  -0.196  0.00  0.00    +0.001 A 
ATOM     17  C   UNL     1      -7.209   3.675   0.592  0.00  0.00    +0.001 A 
ATOM     18  C   UNL     1      -7.037   4.751   1.443  0.00  0.00    +0.021 A 
ATOM     19  C   UNL     1      -5.815   5.392   1.512  0.00  0.00    +0.053 A 
ATOM     20  C   UNL     1      -4.752   4.950   0.720  0.00  0.00    +0.055 A 
ATOM     21  C   UNL     1      -4.936   3.865  -0.141  0.00  0.00    +0.014 A 
ATOM     22 CL   UNL     1      -5.600   6.743   2.581  0.00  0.00    -0.083 Cl
ENDBRANCH  12  20
ENDBRANCH   1  14
BRANCH   1  23
ATOM     23  C   UNL     1      -1.263   7.448  -0.292  0.00  0.00    +0.259 C 
ATOM     24  O   UNL     1      -2.316   8.030  -0.470  0.00  0.00    -0.269 OA
ATOM     25  N   UNL     1      -0.103   8.135  -0.298  0.00  0.00    -0.303 N 
ATOM     26  H   UNL     1       0.736   7.670  -0.156  0.00  0.00    +0.149 HD
BRANCH  25  27
ATOM     27  C   UNL     1      -0.111   9.583  -0.519  0.00  0.00    +0.179 C 
BRANCH  27  28
ATOM     28  C   UNL     1       1.302  10.105  -0.479  0.00  0.00    +0.122 A 
ATOM     29  C   UNL     1       2.131  10.214  -1.532  0.00  0.00    +0.046 A 
ATOM     30  C   UNL     1       3.347  10.745  -1.044  0.00  0.00    +0.041 A 
ATOM     31  C   UNL     1       3.188  10.930   0.279  0.00  0.00    +0.195 A 
ATOM     32  O   UNL     1       1.945  10.546   0.615  0.00  0.00    -0.466 OA
ENDBRANCH  27  28
ENDBRANCH  25  27
ENDBRANCH   1  23
TORSDOF 7
