REMARK  Name = ZINC38786611
REMARK  12 active torsions:
REMARK  status: ('A' for Active; 'I' for Inactive)
REMARK    1  A    between atoms: C_1  and  C_2
REMARK    2  A    between atoms: C_2  and  S_3
REMARK    3  A    between atoms: S_3  and  C_4
REMARK    4  A    between atoms: C_10  and  C_12
REMARK    5  A    between atoms: C_12  and  S_13
REMARK    6  A    between atoms: S_13  and  C_14
REMARK    7  A    between atoms: N_17  and  C_21
REMARK    8  A    between atoms: C_21  and  C_22
REMARK    9  A    between atoms: C_22  and  C_23
REMARK   10  A    between atoms: C_23  and  N_24
REMARK   11  A    between atoms: N_24  and  C_25
REMARK   12  A    between atoms: N_24  and  C_26
REMARK                            x       y       z     vdW  Elec       q    Type
REMARK                         _______ _______ _______ _____ _____    ______ ____
ROOT
ATOM      1  C   UNL     1       0.198 -11.351  -0.140  0.00  0.00    +0.108 A 
ATOM      2  C   UNL     1      -0.281 -12.382   0.704  0.00  0.00    +0.004 A 
ATOM      3  C   UNL     1      -0.070 -13.662   0.348  0.00  0.00    +0.029 A 
ATOM      4  N   UNL     1       0.610 -13.926  -0.811  0.00  0.00    -0.296 N 
ATOM      5  C   UNL     1       1.054 -12.926  -1.591  0.00  0.00    +0.350 A 
ATOM      6  O   UNL     1       1.654 -13.187  -2.620  0.00  0.00    -0.244 OA
ATOM      7  N   UNL     1       0.842 -11.655  -1.258  0.00  0.00    -0.186 NA
ATOM      8  C   UNL     1      -0.558 -14.830   1.163  0.00  0.00    +0.054 C 
ATOM      9  C   UNL     1      -0.890 -14.390   2.588  0.00  0.00    +0.006 C 
ATOM     10  C   UNL     1      -1.809 -13.164   2.512  0.00  0.00    +0.005 C 
ATOM     11  C   UNL     1      -0.999 -11.990   1.967  0.00  0.00    +0.039 C 
ENDROOT
BRANCH   1  12
ATOM     12  S   UNL     1      -0.068  -9.663   0.292  0.00  0.00    -0.096 S 
BRANCH  12  13
ATOM     13  C   UNL     1       0.699  -8.736  -1.065  0.00  0.00    +0.172 C 
BRANCH  13  20
ATOM     14  C   UNL     1       0.792  -2.345  -1.354  0.00  0.00    +0.160 A 
ATOM     15  N   UNL     1       0.261  -3.108  -0.410  0.00  0.00    -0.133 NA
ATOM     16  N   UNL     1       0.307  -4.368  -0.467  0.00  0.00    -0.125 NA
ATOM     17  C   UNL     1       0.889  -5.003  -1.471  0.00  0.00    +0.189 A 
ATOM     18  S   UNL     1       1.427  -3.607  -2.454  0.00  0.00    -0.024 S 
ATOM     19  N   UNL     1       1.036  -6.369  -1.700  0.00  0.00    -0.263 N 
ATOM     20  C   UNL     1       0.540  -7.258  -0.817  0.00  0.00    +0.229 C 
ATOM     21  O   UNL     1      -0.035  -6.869   0.178  0.00  0.00    -0.275 OA
ATOM     22  H   UNL     1       1.495  -6.681  -2.496  0.00  0.00    +0.157 HD
BRANCH  14  23
ATOM     23  S   UNL     1       0.851  -0.589  -1.490  0.00  0.00    -0.097 S 
BRANCH  23  25
ATOM     24  C   UNL     1      -0.019   1.526   0.010  0.00  0.00    +0.016 C 
ATOM     25  C   UNL     1       0.002  -0.004   0.002  0.00  0.00    +0.073 C 
ENDBRANCH  23  25
ENDBRANCH  14  23
ENDBRANCH  13  20
ENDBRANCH  12  13
ENDBRANCH   1  12
BRANCH   4  26
ATOM     26  C   UNL     1       0.857 -15.316  -1.205  0.00  0.00    +0.125 C 
BRANCH  26  27
ATOM     27  C   UNL     1      -0.302 -15.814  -2.070  0.00  0.00    +0.003 C 
BRANCH  27  28
ATOM     28  C   UNL     1      -0.044 -17.265  -2.482  0.00  0.00    -0.078 C 
BRANCH  28  29
ATOM     29  N   UNL     1      -1.157 -17.744  -3.312  0.00  0.00    +0.376 N 
ATOM     30  C   UNL     1      -0.854 -19.094  -3.805  0.00  0.00    -0.097 C 
ATOM     31  C   UNL     1      -2.386 -17.781  -2.508  0.00  0.00    -0.097 C 
ATOM     32  H   UNL     1      -1.285 -17.121  -4.095  0.00  0.00    -0.083 HD
ENDBRANCH  28  29
ENDBRANCH  27  28
ENDBRANCH  26  27
ENDBRANCH   4  26
TORSDOF 9
