REMARK  Name = ZINC46890990
REMARK  13 active torsions:
REMARK  status: ('A' for Active; 'I' for Inactive)
REMARK    1  A    between atoms: C_1  and  C_2
REMARK    2  A    between atoms: C_7  and  N_8
REMARK    3  A    between atoms: C_9  and  C_11
REMARK    4  A    between atoms: C_11  and  N_12
REMARK    5  A    between atoms: N_12  and  C_13
REMARK    6  A    between atoms: C_14  and  C_16
REMARK    7  A    between atoms: C_18  and  C_25
REMARK    8  A    between atoms: N_19  and  C_21
REMARK    9  A    between atoms: C_21  and  C_22
REMARK   10  A    between atoms: C_21  and  C_23
REMARK   11  A    between atoms: C_21  and  C_24
REMARK   12  A    between atoms: C_25  and  C_26
REMARK   13  A    between atoms: C_25  and  C_27
REMARK                            x       y       z     vdW  Elec       q    Type
REMARK                         _______ _______ _______ _____ _____    ______ ____
ROOT
ATOM      1  N   UNL     1      -0.087  -0.497   6.575  0.00  0.00    -0.290 N 
ATOM      2  C   UNL     1       0.909  -0.909   7.567  0.00  0.00    +0.133 C 
ATOM      3  C   UNL     1      -1.306  -1.071   6.565  0.00  0.00    +0.267 C 
ATOM      4  O   UNL     1      -2.156  -0.680   5.790  0.00  0.00    -0.268 OA
ENDROOT
BRANCH   3   5
ATOM      5  C   UNL     1      -1.609  -2.177   7.497  0.00  0.00    +0.148 A 
ATOM      6  C   UNL     1      -2.791  -2.955   7.524  0.00  0.00    +0.058 A 
ATOM      7  C   UNL     1      -2.620  -3.837   8.536  0.00  0.00    +0.043 A 
ATOM      8  N   UNL     1      -1.406  -3.596   9.076  0.00  0.00    -0.262 N 
ATOM      9  N   UNL     1      -0.829  -2.630   8.457  0.00  0.00    -0.166 NA
BRANCH   8  10
ATOM     10  C   UNL     1      -0.829  -4.332  10.204  0.00  0.00    +0.056 C 
ATOM     11  C   UNL     1      -0.823  -5.829   9.885  0.00  0.00    +0.036 C 
ATOM     12  C   UNL     1       0.605  -3.856  10.444  0.00  0.00    +0.036 C 
ATOM     13  C   UNL     1      -1.667  -4.082  11.459  0.00  0.00    +0.036 C 
ENDBRANCH   8  10
BRANCH   7  14
ATOM     14  C   UNL     1      -3.601  -4.893   8.977  0.00  0.00    +0.031 C 
ATOM     15  C   UNL     1      -5.007  -4.293   9.028  0.00  0.00    +0.014 C 
ATOM     16  C   UNL     1      -3.579  -6.057   7.985  0.00  0.00    +0.014 C 
ENDBRANCH   7  14
ENDBRANCH   3   5
BRANCH   1  17
ATOM     17  C   UNL     1       0.242   0.540   5.594  0.00  0.00    +0.203 C 
BRANCH  17  19
ATOM     18  N   UNL     1       1.213   0.663   3.322  0.00  0.00    -0.284 N 
ATOM     19  C   UNL     1       0.832  -0.102   4.364  0.00  0.00    +0.235 C 
ATOM     20  O   UNL     1       0.964  -1.306   4.313  0.00  0.00    -0.274 OA
ATOM     21  H   UNL     1       1.168   1.630   3.388  0.00  0.00    +0.155 HD
BRANCH  18  28
ATOM     22  C   UNL     1       0.601   1.923   0.845  0.00  0.00    +0.046 C 
ATOM     23  C   UNL     1       1.396   0.644   0.914  0.00  0.00    -0.028 A 
ATOM     24  C   UNL     1       1.855   0.053  -0.247  0.00  0.00    +0.020 A 
ATOM     25  C   UNL     1       2.585  -1.121  -0.184  0.00  0.00    +0.018 A 
ATOM     26  C   UNL     1       2.856  -1.706   1.040  0.00  0.00    +0.017 A 
ATOM     27  C   UNL     1       2.400  -1.119   2.203  0.00  0.00    +0.024 A 
ATOM     28  C   UNL     1       1.672   0.063   2.144  0.00  0.00    +0.036 A 
ATOM     29 BR   UNL     1       3.212  -1.928  -1.775  0.00  0.00    -0.050 Br
ENDBRANCH  18  28
ENDBRANCH  17  19
ENDBRANCH   1  17
TORSDOF 6
