REMARK  Name = ZINC11878668
REMARK  7 active torsions:
REMARK  status: ('A' for Active; 'I' for Inactive)
REMARK    1  A    between atoms: C_1  and  O_2
REMARK    2  A    between atoms: O_2  and  C_3
REMARK    3  A    between atoms: C_8  and  C_9
REMARK    4  A    between atoms: C_10  and  C_11
REMARK    5  A    between atoms: C_11  and  N_60
REMARK    6  A    between atoms: C_17  and  C_19
REMARK    7  A    between atoms: C_19  and  C_20
REMARK                            x       y       z     vdW  Elec       q    Type
REMARK                         _______ _______ _______ _____ _____    ______ ____
ROOT
ATOM      1  C   UNL     1       3.055   4.708  -4.690  0.00  0.00    -0.058 C 
ATOM      2  C   UNL     1       1.971   4.836  -5.762  0.00  0.00    +0.085 C 
ATOM      3  N   UNL     1       1.200   3.599  -5.845  0.00  0.00    -0.318 N 
ATOM      4  C   UNL     1       1.192   2.681  -4.872  0.00  0.00    +0.200 C 
ATOM      5  O   UNL     1       0.499   1.696  -5.009  0.00  0.00    -0.278 OA
ATOM      6  C   UNL     1       2.007   2.820  -3.617  0.00  0.00    +0.028 C 
ATOM      7  H   UNL     1       0.670   3.436  -6.640  0.00  0.00    +0.149 HD
ATOM      8  N   UNL     1       2.416   4.227  -3.449  0.00  0.00    +0.391 N 
ATOM      9  H   UNL     1       1.585   4.798  -3.257  0.00  0.00    -0.080 HD
ENDROOT
BRANCH   8  10
ATOM     10  C   UNL     1       3.358   4.348  -2.313  0.00  0.00    -0.050 C 
BRANCH  10  12
ATOM     11  C   UNL     1       3.703   6.457  -1.103  0.00  0.00    +0.005 C 
ATOM     12  C   UNL     1       3.849   5.771  -2.229  0.00  0.00    -0.045 C 
BRANCH  11  18
ATOM     13  C   UNL     1       4.033   8.579   0.166  0.00  0.00    +0.127 A 
ATOM     14  C   UNL     1       4.487   9.886   0.233  0.00  0.00    +0.046 A 
ATOM     15  C   UNL     1       5.088  10.468  -0.867  0.00  0.00    +0.004 A 
ATOM     16  C   UNL     1       5.240   9.752  -2.042  0.00  0.00    +0.001 A 
ATOM     17  C   UNL     1       4.797   8.448  -2.123  0.00  0.00    +0.011 A 
ATOM     18  C   UNL     1       4.184   7.851  -1.021  0.00  0.00    +0.016 A 
BRANCH  13  20
ATOM     19  C   UNL     1       3.321   8.809   2.422  0.00  0.00    +0.277 C 
ATOM     20  O   UNL     1       3.442   8.006   1.246  0.00  0.00    -0.495 OA
ENDBRANCH  13  20
ENDBRANCH  11  18
ENDBRANCH  10  12
ENDBRANCH   8  10
BRANCH   6  21
ATOM     21  C   UNL     1       1.160   2.401  -2.414  0.00  0.00    +0.090 C 
BRANCH  21  22
ATOM     22  C   UNL     1      -0.031   3.317  -2.295  0.00  0.00    +0.215 C 
ATOM     23  O   UNL     1      -0.135   4.275  -3.030  0.00  0.00    -0.276 OA
ATOM     24  N   UNL     1      -0.981   3.071  -1.370  0.00  0.00    -0.300 N 
ATOM     25  C   UNL     1      -2.117   3.913  -1.231  0.00  0.00    +0.109 C 
ATOM     26  C   UNL     1      -1.883   5.180  -0.345  0.00  0.00    +0.038 C 
ATOM     27  C   UNL     1      -0.957   4.755   0.840  0.00  0.00    +0.109 C 
ATOM     28  N   UNL     1      -1.217   3.457   1.358  0.00  0.00    -0.302 N 
ATOM     29  C   UNL     1      -0.379   2.344   0.844  0.00  0.00    +0.126 C 
ATOM     30  C   UNL     1      -0.886   1.906  -0.452  0.00  0.00    +0.126 C 
ATOM     31  C   UNL     1      -2.181   3.246   2.276  0.00  0.00    +0.328 C 
ATOM     32  O   UNL     1      -2.381   2.127   2.699  0.00  0.00    -0.279 OA
ENDBRANCH  21  22
ENDBRANCH   6  21
TORSDOF 6
