REMARK  Name = ZINC13141444
REMARK  9 active torsions:
REMARK  status: ('A' for Active; 'I' for Inactive)
REMARK    1  A    between atoms: C_1  and  C_2
REMARK    2  A    between atoms: C_9  and  N_13
REMARK    3  A    between atoms: C_10  and  C_11
REMARK    4  A    between atoms: C_14  and  C_16
REMARK    5  A    between atoms: C_16  and  N_17
REMARK    6  A    between atoms: C_20  and  C_24
REMARK    7  A    between atoms: C_20  and  C_25
REMARK    8  A    between atoms: C_25  and  C_26
REMARK    9  A    between atoms: C_26  and  C_27
REMARK                            x       y       z     vdW  Elec       q    Type
REMARK                         _______ _______ _______ _____ _____    ______ ____
ROOT
ATOM      1  C   UNL     1      -6.932   4.276  -3.974  0.00  0.00    +0.214 C 
ENDROOT
BRANCH   1   2
ATOM      2  N   UNL     1      -6.063   4.378  -2.799  0.00  0.00    -0.215 N 
ATOM      3  C   UNL     1      -4.885   5.032  -2.783  0.00  0.00    +0.247 C 
ATOM      4  O   UNL     1      -4.365   5.626  -3.703  0.00  0.00    -0.273 OA
ATOM      5  C   UNL     1      -4.346   4.872  -1.375  0.00  0.00    +0.110 C 
ATOM      6  N   UNL     1      -5.380   4.071  -0.698  0.00  0.00    -0.285 N 
ATOM      7  C   UNL     1      -6.340   3.832  -1.609  0.00  0.00    +0.310 C 
ATOM      8  O   UNL     1      -7.347   3.192  -1.378  0.00  0.00    -0.252 OA
ATOM      9  C   UNL     1      -4.190   6.236  -0.700  0.00  0.00    +0.041 C 
ATOM     10  H   UNL     1      -5.370   3.773   0.225  0.00  0.00    +0.151 HD
BRANCH   5  11
ATOM     11  C   UNL     1      -3.011   4.125  -1.391  0.00  0.00    +0.039 C 
BRANCH  11  12
ATOM     12  C   UNL     1      -2.553   3.869   0.045  0.00  0.00    +0.037 C 
BRANCH  12  13
ATOM     13  C   UNL     1      -1.238   3.133   0.029  0.00  0.00    -0.047 A 
ATOM     14  C   UNL     1      -1.219   1.751   0.017  0.00  0.00    +0.003 A 
ATOM     15  C   UNL     1      -0.013   1.076   0.008  0.00  0.00    +0.000 A 
ATOM     16  C   UNL     1       1.175   1.783   0.000  0.00  0.00    +0.000 A 
ATOM     17  C   UNL     1       1.156   3.165   0.008  0.00  0.00    +0.000 A 
ATOM     18  C   UNL     1      -0.050   3.840   0.022  0.00  0.00    +0.003 A 
ENDBRANCH  12  13
ENDBRANCH  11  12
ENDBRANCH   5  11
ENDBRANCH   1   2
BRANCH   1  20
ATOM     19  N   UNL     1      -7.232   2.750  -5.897  0.00  0.00    -0.278 N 
ATOM     20  C   UNL     1      -6.562   3.049  -4.767  0.00  0.00    +0.236 C 
ATOM     21  O   UNL     1      -5.662   2.330  -4.388  0.00  0.00    -0.274 OA
ATOM     22  H   UNL     1      -7.953   3.324  -6.200  0.00  0.00    +0.155 HD
BRANCH  19  30
ATOM     23  C   UNL     1      -5.072  -3.755  -9.669  0.00  0.00    +0.008 C 
ATOM     24  C   UNL     1      -5.942  -2.644  -9.078  0.00  0.00    -0.009 C 
ATOM     25  C   UNL     1      -6.362  -1.673 -10.185  0.00  0.00    +0.008 C 
ATOM     26  C   UNL     1      -7.426  -0.710  -9.657  0.00  0.00    +0.037 C 
ATOM     27  C   UNL     1      -6.913  -0.070  -8.372  0.00  0.00    -0.018 A 
ATOM     28  C   UNL     1      -5.894  -0.623  -7.678  0.00  0.00    -0.004 A 
ATOM     29  S   UNL     1      -5.656   0.452  -6.292  0.00  0.00    -0.077 S 
ATOM     30  C   UNL     1      -6.892   1.620  -6.628  0.00  0.00    +0.090 A 
ATOM     31  C   UNL     1      -7.462   1.147  -7.801  0.00  0.00    +0.084 A 
ATOM     32  C   UNL     1      -5.142  -1.872  -8.019  0.00  0.00    +0.046 C 
BRANCH  31  33
ATOM     33  C   UNL     1      -8.550   1.837  -8.427  0.00  0.00    +0.102 C 
ATOM     34  N   UNL     1      -9.413   2.384  -8.924  0.00  0.00    -0.191 NA
ENDBRANCH  31  33
ENDBRANCH  19  30
ENDBRANCH   1  20
TORSDOF 7
