REMARK  Name = ZINC12489446
REMARK  11 active torsions:
REMARK  status: ('A' for Active; 'I' for Inactive)
REMARK    1  A    between atoms: C_1  and  C_2
REMARK    2  A    between atoms: C_5  and  C_38
REMARK    3  A    between atoms: C_6  and  N_8
REMARK    4  A    between atoms: N_8  and  C_9
REMARK    5  A    between atoms: C_9  and  C_11
REMARK    6  A    between atoms: C_9  and  C_17
REMARK    7  A    between atoms: N_19  and  C_20
REMARK    8  A    between atoms: C_20  and  C_21
REMARK    9  A    between atoms: C_27  and  C_29
REMARK   10  A    between atoms: C_29  and  N_30
REMARK   11  A    between atoms: C_31  and  C_33
REMARK                            x       y       z     vdW  Elec       q    Type
REMARK                         _______ _______ _______ _____ _____    ______ ____
ROOT
ATOM      1  N   UNL     1      -0.998   3.443   0.117  0.00  0.00    -0.254 N 
ATOM      2  C   UNL     1      -1.698   4.170   1.010  0.00  0.00    +0.238 C 
ATOM      3  O   UNL     1      -2.289   3.615   1.913  0.00  0.00    -0.274 OA
ENDROOT
BRANCH   1   9
ATOM      4  C   UNL     1      -1.101   5.751  -4.223  0.00  0.00    +0.044 C 
ATOM      5  C   UNL     1      -0.340   5.210  -3.040  0.00  0.00    -0.049 A 
ATOM      6  C   UNL     1       1.035   5.347  -2.982  0.00  0.00    +0.004 A 
ATOM      7  C   UNL     1       1.736   4.852  -1.897  0.00  0.00    +0.005 A 
ATOM      8  C   UNL     1       1.065   4.225  -0.866  0.00  0.00    -0.029 A 
ATOM      9  C   UNL     1      -0.315   4.082  -0.924  0.00  0.00    +0.041 A 
ATOM     10  C   UNL     1      -1.017   4.580  -2.014  0.00  0.00    +0.027 A 
ATOM     11  C   UNL     1       1.829   3.692   0.318  0.00  0.00    +0.045 C 
ENDBRANCH   1   9
BRANCH   1  12
ATOM     12  C   UNL     1      -0.953   1.983   0.235  0.00  0.00    +0.197 C 
BRANCH  12  13
ATOM     13  C   UNL     1      -2.324   1.415  -0.027  0.00  0.00    -0.018 A 
ATOM     14  C   UNL     1      -3.060   1.857  -1.110  0.00  0.00    +0.006 A 
ATOM     15  C   UNL     1      -4.316   1.333  -1.352  0.00  0.00    +0.000 A 
ATOM     16  C   UNL     1      -4.839   0.373  -0.506  0.00  0.00    +0.000 A 
ATOM     17  C   UNL     1      -4.105  -0.065   0.580  0.00  0.00    +0.000 A 
ATOM     18  C   UNL     1      -2.847   0.456   0.820  0.00  0.00    +0.006 A 
ENDBRANCH  12  13
BRANCH  12  19
ATOM     19  C   UNL     1       0.022   1.428  -0.772  0.00  0.00    +0.239 C 
ATOM     20  O   UNL     1       0.125   1.945  -1.864  0.00  0.00    -0.273 OA
ATOM     21  N   UNL     1       0.773   0.354  -0.461  0.00  0.00    -0.311 N 
ATOM     22  H   UNL     1       0.691  -0.060   0.413  0.00  0.00    +0.149 HD
BRANCH  21  23
ATOM     23  C   UNL     1       1.716  -0.190  -1.442  0.00  0.00    +0.135 C 
BRANCH  23  24
ATOM     24  C   UNL     1       2.438  -1.398  -0.841  0.00  0.00    +0.135 C 
ATOM     25  C   UNL     1       3.499  -1.935  -1.826  0.00  0.00    +0.035 C 
ATOM     26  C   UNL     1       3.435  -3.469  -1.648  0.00  0.00    +0.031 C 
ATOM     27  C   UNL     1       2.342  -3.676  -0.577  0.00  0.00    +0.160 C 
ATOM     28  O   UNL     1       1.515  -2.493  -0.655  0.00  0.00    -0.375 OA
ENDBRANCH  23  24
ENDBRANCH  21  23
ENDBRANCH  12  19
ENDBRANCH   1  12
BRANCH   2  29
ATOM     29  C   UNL     1      -1.744   5.671   0.889  0.00  0.00    +0.201 C 
BRANCH  29  30
ATOM     30  N   UNL     1      -2.562   6.223   1.972  0.00  0.00    -0.302 N 
ATOM     31  C   UNL     1      -2.747   7.555   2.065  0.00  0.00    +0.251 C 
ATOM     32  O   UNL     1      -2.234   8.299   1.250  0.00  0.00    -0.270 OA
ATOM     33  H   UNL     1      -2.972   5.630   2.621  0.00  0.00    +0.150 HD
BRANCH  31  34
ATOM     34  C   UNL     1      -3.565   8.107   3.148  0.00  0.00    +0.074 A 
ATOM     35  C   UNL     1      -3.876   9.430   3.421  0.00  0.00    +0.021 A 
ATOM     36  C   UNL     1      -4.674   9.673   4.511  0.00  0.00    +0.008 A 
ATOM     37  C   UNL     1      -5.113   8.627   5.259  0.00  0.00    +0.046 A 
ATOM     38  S   UNL     1      -4.428   7.252   4.455  0.00  0.00    -0.092 S 
ENDBRANCH  31  34
ENDBRANCH  29  30
ENDBRANCH   2  29
TORSDOF 9
