REMARK  Name = ZINC40019664
REMARK  16 active torsions:
REMARK  status: ('A' for Active; 'I' for Inactive)
REMARK    1  A    between atoms: C_1  and  C_2
REMARK    2  A    between atoms: C_2  and  C_3
REMARK    3  A    between atoms: C_3  and  C_4
REMARK    4  A    between atoms: C_4  and  N_5
REMARK    5  A    between atoms: N_5  and  C_6
REMARK    6  A    between atoms: N_5  and  C_10
REMARK    7  A    between atoms: C_6  and  C_7
REMARK    8  A    between atoms: C_7  and  C_8
REMARK    9  A    between atoms: C_8  and  C_9
REMARK   10  A    between atoms: C_10  and  C_11
REMARK   11  A    between atoms: C_11  and  C_12
REMARK   12  A    between atoms: C_12  and  N_13
REMARK   13  A    between atoms: C_14  and  C_33
REMARK   14  A    between atoms: C_16  and  C_21
REMARK   15  A    between atoms: C_21  and  C_23
REMARK   16  A    between atoms: C_37  and  O_39
REMARK                            x       y       z     vdW  Elec       q    Type
REMARK                         _______ _______ _______ _____ _____    ______ ____
ROOT
ATOM      1  N   UNL     1      -2.490  -6.449  -3.713  0.00  0.00    -0.284 N 
ATOM      2  C   UNL     1      -3.610  -6.742  -2.811  0.00  0.00    +0.145 C 
ATOM      3  C   UNL     1      -4.767  -7.149  -3.694  0.00  0.00    +0.076 C 
ATOM      4  C   UNL     1      -4.324  -7.085  -4.971  0.00  0.00    +0.249 C 
ATOM      5  C   UNL     1      -2.913  -6.645  -4.975  0.00  0.00    +0.288 C 
ATOM      6  O   UNL     1      -2.235  -6.486  -5.971  0.00  0.00    -0.266 OA
ATOM      7  O   UNL     1      -5.059  -7.373  -6.071  0.00  0.00    -0.282 OA
ENDROOT
BRANCH   2   8
ATOM      8  C   UNL     1      -3.970  -5.514  -2.016  0.00  0.00    -0.019 A 
ATOM      9  C   UNL     1      -4.171  -4.308  -2.661  0.00  0.00    +0.006 A 
ATOM     10  C   UNL     1      -4.501  -3.179  -1.934  0.00  0.00    +0.004 A 
ATOM     11  C   UNL     1      -4.630  -3.254  -0.560  0.00  0.00    +0.045 A 
ATOM     12  C   UNL     1      -4.429  -4.463   0.089  0.00  0.00    +0.117 A 
ATOM     13  C   UNL     1      -4.104  -5.596  -0.643  0.00  0.00    +0.051 A 
BRANCH  12  14
ATOM     14  O   UNL     1      -4.556  -4.540   1.440  0.00  0.00    -0.507 OA
ATOM     15  H   UNL     1      -5.450  -4.754   1.740  0.00  0.00    +0.292 HD
ENDBRANCH  12  14
ENDBRANCH   2   8
BRANCH   3  16
ATOM     16  C   UNL     1      -6.110  -7.537  -3.252  0.00  0.00    +0.195 C 
ATOM     17  O   UNL     1      -7.066  -6.835  -3.522  0.00  0.00    -0.287 OA
BRANCH  16  18
ATOM     18  C   UNL     1      -6.301  -8.780  -2.479  0.00  0.00    +0.026 A 
ATOM     19  C   UNL     1      -5.210  -9.608  -2.200  0.00  0.00    +0.015 A 
ATOM     20  C   UNL     1      -5.392 -10.767  -1.480  0.00  0.00    +0.050 A 
ATOM     21  C   UNL     1      -6.658 -11.119  -1.026  0.00  0.00    +0.162 A 
ATOM     22  C   UNL     1      -7.750 -10.297  -1.298  0.00  0.00    +0.163 A 
ATOM     23  C   UNL     1      -7.573  -9.130  -2.018  0.00  0.00    +0.061 A 
ATOM     24  O   UNL     1      -8.995 -10.623  -0.854  0.00  0.00    -0.485 OA
ATOM     25  C   UNL     1      -9.198 -11.982  -0.451  0.00  0.00    +0.270 C 
ATOM     26  C   UNL     1      -8.021 -12.400   0.440  0.00  0.00    +0.270 C 
ATOM     27  O   UNL     1      -6.815 -12.270  -0.320  0.00  0.00    -0.485 OA
ENDBRANCH  16  18
ENDBRANCH   3  16
BRANCH   1  28
ATOM     28  C   UNL     1      -1.150  -6.014  -3.312  0.00  0.00    +0.107 C 
BRANCH  28  29
ATOM     29  C   UNL     1      -1.109  -4.486  -3.243  0.00  0.00    +0.000 C 
BRANCH  29  30
ATOM     30  C   UNL     1       0.290  -4.032  -2.823  0.00  0.00    -0.077 C 
BRANCH  30  31
ATOM     31  N   UNL     1       0.329  -2.564  -2.757  0.00  0.00    +0.380 N 
ATOM     32  H   UNL     1       0.029  -2.180  -3.640  0.00  0.00    -0.082 HD
BRANCH  31  33
ATOM     33  C   UNL     1      -0.567  -2.098  -1.691  0.00  0.00    -0.079 C 
BRANCH  33  34
ATOM     34  C   UNL     1      -0.635  -0.570  -1.714  0.00  0.00    -0.019 C 
BRANCH  34  36
ATOM     35  C   UNL     1      -1.736   1.438  -0.715  0.00  0.00    +0.004 C 
ATOM     36  C   UNL     1      -1.668  -0.090  -0.692  0.00  0.00    -0.005 C 
ENDBRANCH  34  36
ENDBRANCH  33  34
ENDBRANCH  31  33
BRANCH  31  37
ATOM     37  C   UNL     1       1.701  -2.124  -2.471  0.00  0.00    -0.079 C 
BRANCH  37  38
ATOM     38  C   UNL     1       2.608  -2.483  -3.650  0.00  0.00    -0.019 C 
BRANCH  38  39
ATOM     39  C   UNL     1       4.006  -1.910  -3.411  0.00  0.00    -0.005 C 
ATOM     40  C   UNL     1       4.913  -2.269  -4.589  0.00  0.00    +0.004 C 
ENDBRANCH  38  39
ENDBRANCH  37  38
ENDBRANCH  31  37
ENDBRANCH  30  31
ENDBRANCH  29  30
ENDBRANCH  28  29
ENDBRANCH   1  28
TORSDOF 14
