REMARK  Name = ZINC09440814
REMARK  6 active torsions:
REMARK  status: ('A' for Active; 'I' for Inactive)
REMARK    1  A    between atoms: C_3  and  C_11
REMARK    2  A    between atoms: C_6  and  N_7
REMARK    3  A    between atoms: N_13  and  C_14
REMARK    4  A    between atoms: C_14  and  N_16
REMARK    5  A    between atoms: N_16  and  C_17
REMARK    6  A    between atoms: C_18  and  C_27
REMARK                            x       y       z     vdW  Elec       q    Type
REMARK                         _______ _______ _______ _____ _____    ______ ____
ROOT
ATOM      1  C   UNL     1      -6.204   6.019   0.066  0.00  0.00    +0.141 C 
ATOM      2  S   UNL     1      -7.676   5.145   0.067  0.00  0.00    -0.018 S 
ENDROOT
BRANCH   1   5
ATOM      3  C   UNL     1      -5.011   4.013   0.049  0.00  0.00    +0.251 C 
ATOM      4  O   UNL     1      -6.056   3.392   0.050  0.00  0.00    -0.270 OA
ATOM      5  N   UNL     1      -5.028   5.361   0.056  0.00  0.00    -0.264 N 
ATOM      6  H   UNL     1      -4.194   5.856   0.056  0.00  0.00    +0.157 HD
BRANCH   3   9
ATOM      7  C   UNL     1      -1.321   3.320   0.032  0.00  0.00    +0.033 A 
ATOM      8  C   UNL     1      -2.521   4.001   0.037  0.00  0.00    +0.017 A 
ATOM      9  C   UNL     1      -3.723   3.291   0.038  0.00  0.00    +0.055 A 
ATOM     10  C   UNL     1      -3.701   1.893   0.030  0.00  0.00    +0.055 A 
ATOM     11  C   UNL     1      -2.493   1.225   0.021  0.00  0.00    +0.053 A 
ATOM     12  C   UNL     1      -1.306   1.936   0.019  0.00  0.00    +0.128 A 
ATOM     13 CL   UNL     1      -5.190   1.000   0.032  0.00  0.00    -0.083 Cl
BRANCH  12  14
ATOM     14  N   UNL     1      -0.014   1.214   0.009  0.00  0.00    +0.056 N 
ATOM     15  O   UNL     1       0.002  -0.004   0.002  0.00  0.00    -0.126 OA
ATOM     16  O   UNL     1       1.032   1.837   0.002  0.00  0.00    -0.126 OA
ENDBRANCH  12  14
ENDBRANCH   3   9
ENDBRANCH   1   5
BRANCH   1  17
ATOM     17  N   UNL     1      -6.221   7.367   0.073  0.00  0.00    -0.290 N 
ATOM     18  H   UNL     1      -5.387   7.863   0.072  0.00  0.00    +0.154 HD
BRANCH  17  19
ATOM     19  C   UNL     1      -7.431   8.045   0.083  0.00  0.00    +0.089 A 
ATOM     20  C   UNL     1      -7.651   9.413   0.097  0.00  0.00    +0.084 A 
ATOM     21  C   UNL     1      -9.032   9.877   0.098  0.00  0.00    -0.018 A 
ATOM     22  C   UNL     1      -9.962   8.898   0.101  0.00  0.00    -0.004 A 
ATOM     23  S   UNL     1      -9.033   7.388   0.087  0.00  0.00    -0.077 S 
ATOM     24  C   UNL     1     -11.451   9.050   0.127  0.00  0.00    +0.043 C 
ATOM     25  C   UNL     1     -11.875  10.064  -0.944  0.00  0.00    +0.005 C 
ATOM     26  C   UNL     1     -11.869  11.455  -0.319  0.00  0.00    +0.001 C 
ATOM     27  C   UNL     1     -10.768  11.554   0.735  0.00  0.00    +0.005 C 
ATOM     28  C   UNL     1      -9.399  11.356   0.094  0.00  0.00    +0.037 C 
BRANCH  20  29
ATOM     29  C   UNL     1      -6.559  10.339   0.108  0.00  0.00    +0.102 C 
ATOM     30  N   UNL     1      -5.692  11.073   0.117  0.00  0.00    -0.191 NA
ENDBRANCH  20  29
ENDBRANCH  17  19
ENDBRANCH   1  17
TORSDOF 6
