REMARK  Name = ZINC65970907
REMARK  11 active torsions:
REMARK  status: ('A' for Active; 'I' for Inactive)
REMARK    1  A    between atoms: C_1  and  C_2
REMARK    2  A    between atoms: C_2  and  N_3
REMARK    3  A    between atoms: N_3  and  C_4
REMARK    4  A    between atoms: N_3  and  C_5
REMARK    5  A    between atoms: C_5  and  C_6
REMARK    6  A    between atoms: C_10  and  C_12
REMARK    7  A    between atoms: C_12  and  N_13
REMARK    8  A    between atoms: N_13  and  S_14
REMARK    9  A    between atoms: S_14  and  C_17
REMARK   10  A    between atoms: C_20  and  S_23
REMARK   11  A    between atoms: S_23  and  N_26
REMARK                            x       y       z     vdW  Elec       q    Type
REMARK                         _______ _______ _______ _____ _____    ______ ____
ROOT
ATOM      1  N   UNL     1       5.320  -2.309  -4.287  0.00  0.00    -0.186 NA
ATOM      2  H   UNL     1       4.859  -1.537  -4.652  0.00  0.00    +0.148 HD
ENDROOT
BRANCH   1   3
ATOM      3  S   UNL     1       6.964  -2.276  -4.090  0.00  0.00    +0.059 S 
ATOM      4  O   UNL     1       7.404  -1.010  -4.562  0.00  0.00    -0.153 OA
ATOM      5  O   UNL     1       7.223  -2.727  -2.767  0.00  0.00    -0.153 OA
BRANCH   3   6
ATOM      6  C   UNL     1       7.644  -3.484  -5.177  0.00  0.00    +0.105 A 
ATOM      7  C   UNL     1       7.819  -4.784  -4.742  0.00  0.00    +0.030 A 
ATOM      8  C   UNL     1       8.353  -5.732  -5.596  0.00  0.00    +0.030 A 
ATOM      9  C   UNL     1       8.711  -5.379  -6.883  0.00  0.00    +0.105 A 
ATOM     10  C   UNL     1       8.536  -4.079  -7.318  0.00  0.00    +0.030 A 
ATOM     11  C   UNL     1       7.998  -3.132  -6.466  0.00  0.00    +0.030 A 
BRANCH   9  12
ATOM     12  S   UNL     1       9.393  -6.587  -7.970  0.00  0.00    +0.056 S 
ATOM     13  O   UNL     1      10.151  -5.878  -8.941  0.00  0.00    -0.153 OA
ATOM     14  O   UNL     1       9.961  -7.598  -7.149  0.00  0.00    -0.153 OA
BRANCH  12  15
ATOM     15  N   UNL     1       8.129  -7.288  -8.777  0.00  0.00    -0.204 NA
ATOM     16  H   UNL     1       7.220  -7.001  -8.598  0.00  0.00    +0.144 HD
ATOM     17  H   UNL     1       8.297  -7.986  -9.429  0.00  0.00    +0.144 HD
ENDBRANCH  12  15
ENDBRANCH   9  12
ENDBRANCH   3   6
ENDBRANCH   1   3
BRANCH   1  18
ATOM     18  C   UNL     1       4.561  -3.505  -3.913  0.00  0.00    +0.141 C 
BRANCH  18  23
ATOM     19  C   UNL     1       1.202  -2.420  -2.575  0.00  0.00    -0.064 A 
ATOM     20  C   UNL     1       0.404  -2.547  -3.696  0.00  0.00    +0.002 A 
ATOM     21  C   UNL     1       0.952  -2.984  -4.888  0.00  0.00    +0.001 A 
ATOM     22  C   UNL     1       2.297  -3.294  -4.958  0.00  0.00    +0.005 A 
ATOM     23  C   UNL     1       3.095  -3.167  -3.836  0.00  0.00    -0.032 A 
ATOM     24  C   UNL     1       2.548  -2.725  -2.646  0.00  0.00    +0.006 A 
BRANCH  19  25
ATOM     25  C   UNL     1       0.605  -1.943  -1.276  0.00  0.00    -0.043 C 
BRANCH  25  26
ATOM     26  N   UNL     1       0.690  -0.478  -1.207  0.00  0.00    +0.380 N 
ATOM     27  C   UNL     1       2.100  -0.070  -1.159  0.00  0.00    -0.096 C 
ATOM     28  H   UNL     1       0.251  -0.077  -2.022  0.00  0.00    -0.082 HD
BRANCH  26  30
ATOM     29  C   UNL     1      -0.019   1.526   0.010  0.00  0.00    -0.017 C 
ATOM     30  C   UNL     1       0.002  -0.004   0.002  0.00  0.00    -0.082 C 
ENDBRANCH  26  30
ENDBRANCH  25  26
ENDBRANCH  19  25
ENDBRANCH  18  23
ENDBRANCH   1  18
TORSDOF 9
