REMARK  Name = ZINC45417178
REMARK  10 active torsions:
REMARK  status: ('A' for Active; 'I' for Inactive)
REMARK    1  A    between atoms: C_1  and  C_2
REMARK    2  A    between atoms: C_6  and  C_26
REMARK    3  A    between atoms: C_16  and  C_17
REMARK    4  A    between atoms: C_20  and  O_23
REMARK    5  A    between atoms: O_23  and  C_24
REMARK    6  A    between atoms: C_26  and  O_28
REMARK    7  A    between atoms: O_28  and  C_29
REMARK    8  A    between atoms: C_29  and  C_31
REMARK    9  A    between atoms: C_29  and  C_32
REMARK   10  A    between atoms: N_34  and  C_35
REMARK                            x       y       z     vdW  Elec       q    Type
REMARK                         _______ _______ _______ _____ _____    ______ ____
ROOT
ATOM      1  C   UNL     1      -0.073   1.347  -0.376  0.00  0.00    +0.008 C 
ATOM      2  C   UNL     1      -0.095  -0.166  -0.145  0.00  0.00    -0.005 C 
ATOM      3  C   UNL     1      -1.527  -0.619   0.129  0.00  0.00    +0.041 C 
ATOM      4  C   UNL     1      -1.577  -2.076   0.493  0.00  0.00    -0.007 A 
ATOM      5  C   UNL     1      -2.768  -2.770   0.317  0.00  0.00    +0.073 A 
ATOM      6  C   UNL     1      -2.790  -4.185   0.686  0.00  0.00    +0.015 A 
ATOM      7  C   UNL     1      -3.944  -4.962   0.543  0.00  0.00    +0.011 A 
ATOM      8  C   UNL     1      -3.920  -6.278   0.899  0.00  0.00    +0.001 A 
ATOM      9  C   UNL     1      -2.759  -6.859   1.405  0.00  0.00    +0.002 A 
ATOM     10  C   UNL     1      -1.619  -6.133   1.558  0.00  0.00    +0.028 A 
ATOM     11  C   UNL     1      -1.605  -4.771   1.200  0.00  0.00    +0.072 A 
ATOM     12  N   UNL     1      -0.504  -4.034   1.337  0.00  0.00    -0.247 NA
ATOM     13  C   UNL     1      -0.457  -2.753   1.008  0.00  0.00    +0.072 A 
ATOM     14  C   UNL     1       0.817  -2.022   1.183  0.00  0.00    -0.021 C 
ATOM     15  C   UNL     1       1.963  -2.675   1.443  0.00  0.00    +0.013 C 
ATOM     16  C   UNL     1       0.786  -0.513   1.061  0.00  0.00    +0.041 C 
ENDROOT
BRANCH  15  17
ATOM     17  C   UNL     1       3.180  -1.919   1.782  0.00  0.00    -0.024 A 
ATOM     18  C   UNL     1       3.085  -0.717   2.491  0.00  0.00    +0.011 A 
ATOM     19  C   UNL     1       4.227  -0.014   2.806  0.00  0.00    +0.046 A 
ATOM     20  C   UNL     1       5.471  -0.496   2.420  0.00  0.00    +0.120 A 
ATOM     21  C   UNL     1       5.571  -1.689   1.715  0.00  0.00    +0.046 A 
ATOM     22  C   UNL     1       4.436  -2.403   1.400  0.00  0.00    +0.011 A 
BRANCH  20  23
ATOM     23  O   UNL     1       6.594   0.202   2.732  0.00  0.00    -0.495 OA
ATOM     24  C   UNL     1       7.841  -0.351   2.305  0.00  0.00    +0.277 C 
ENDBRANCH  20  23
ENDBRANCH  15  17
BRANCH   5  25
ATOM     25  C   UNL     1      -3.970  -2.101  -0.223  0.00  0.00    +0.341 C 
ATOM     26  O   UNL     1      -4.169  -2.086  -1.421  0.00  0.00    -0.245 OA
BRANCH  25  27
ATOM     27  O   UNL     1      -4.846  -1.510   0.613  0.00  0.00    -0.449 OA
BRANCH  27  28
ATOM     28  C   UNL     1      -5.985  -0.883   0.021  0.00  0.00    +0.259 C 
ATOM     29  C   UNL     1      -5.657   0.578  -0.296  0.00  0.00    +0.062 C 
BRANCH  28  30
ATOM     30  C   UNL     1      -7.145  -0.940   0.982  0.00  0.00    +0.253 C 
ATOM     31  O   UNL     1      -6.986  -1.383   2.099  0.00  0.00    -0.272 OA
ATOM     32  N   UNL     1      -8.359  -0.498   0.599  0.00  0.00    -0.315 N 
ATOM     33  C   UNL     1      -9.487  -0.553   1.532  0.00  0.00    +0.128 C 
ATOM     34  H   UNL     1      -8.487  -0.143  -0.295  0.00  0.00    +0.148 HD
ENDBRANCH  28  30
ENDBRANCH  27  28
ENDBRANCH  25  27
ENDBRANCH   5  25
TORSDOF 6
