REMARK  Name = ZINC65488386
REMARK  11 active torsions:
REMARK  status: ('A' for Active; 'I' for Inactive)
REMARK    1  A    between atoms: C_1  and  C_2
REMARK    2  A    between atoms: C_3  and  C_25
REMARK    3  A    between atoms: C_7  and  N_14
REMARK    4  A    between atoms: C_9  and  C_11
REMARK    5  A    between atoms: C_11  and  C_12
REMARK    6  A    between atoms: C_12  and  N_13
REMARK    7  A    between atoms: N_14  and  C_15
REMARK    8  A    between atoms: N_14  and  C_16
REMARK    9  A    between atoms: C_16  and  C_17
REMARK   10  A    between atoms: C_17  and  C_23
REMARK   11  A    between atoms: C_23  and  O_24
REMARK                            x       y       z     vdW  Elec       q    Type
REMARK                         _______ _______ _______ _____ _____    ______ ____
ROOT
ATOM      1  C   UNL     1      -2.644   1.850   3.344  0.00  0.00    +0.045 C 
ATOM      2  C   UNL     1      -2.834   0.462   2.787  0.00  0.00    -0.028 A 
ATOM      3  C   UNL     1      -4.044  -0.116   2.805  0.00  0.00    -0.008 A 
ATOM      4  S   UNL     1      -3.756  -1.708   2.055  0.00  0.00    -0.074 S 
ATOM      5  C   UNL     1      -2.018  -1.554   1.739  0.00  0.00    +0.114 A 
ATOM      6  C   UNL     1      -1.710  -0.262   2.221  0.00  0.00    +0.051 A 
ATOM      7  C   UNL     1      -0.350   0.131   2.084  0.00  0.00    +0.133 A 
ATOM      8  N   UNL     1       0.511  -0.707   1.529  0.00  0.00    -0.217 NA
ATOM      9  C   UNL     1       0.150  -1.901   1.095  0.00  0.00    +0.131 A 
ATOM     10  N   UNL     1      -1.094  -2.326   1.203  0.00  0.00    -0.225 NA
ATOM     11  C   UNL     1      -5.339   0.446   3.333  0.00  0.00    +0.052 C 
ENDROOT
BRANCH   7  12
ATOM     12  N   UNL     1       0.067   1.373   2.526  0.00  0.00    -0.317 N 
ATOM     13  C   UNL     1       0.133   2.499   1.591  0.00  0.00    +0.130 C 
BRANCH  12  14
ATOM     14  C   UNL     1       0.444   1.563   3.929  0.00  0.00    +0.115 C 
BRANCH  14  15
ATOM     15  C   UNL     1       1.954   1.370   4.083  0.00  0.00    +0.014 C 
ATOM     16  C   UNL     1       2.316  -0.088   3.783  0.00  0.00    +0.039 C 
ATOM     17  C   UNL     1       1.636  -0.996   4.811  0.00  0.00    +0.160 C 
ATOM     18  O   UNL     1       2.042  -0.612   6.127  0.00  0.00    -0.380 OA
ATOM     19  C   UNL     1       1.687   0.726   6.479  0.00  0.00    +0.160 C 
ATOM     20  C   UNL     1       2.370   1.704   5.519  0.00  0.00    +0.039 C 
BRANCH  15  21
ATOM     21  C   UNL     1       2.690   2.292   3.109  0.00  0.00    +0.164 C 
BRANCH  21  22
ATOM     22  O   UNL     1       4.100   2.110   3.254  0.00  0.00    -0.394 OA
ATOM     23  H   UNL     1       4.630   2.665   2.666  0.00  0.00    +0.209 HD
ENDBRANCH  21  22
ENDBRANCH  15  21
ENDBRANCH  14  15
ENDBRANCH  12  14
ENDBRANCH   7  12
BRANCH   9  24
ATOM     24  C   UNL     1       1.185  -2.802   0.472  0.00  0.00    +0.057 C 
BRANCH  24  25
ATOM     25  C   UNL     1       1.828  -3.667   1.559  0.00  0.00    -0.079 C 
BRANCH  25  26
ATOM     26  N   UNL     1       2.837  -4.546   0.952  0.00  0.00    +0.378 N 
ATOM     27  H   UNL     1       2.397  -5.140   0.266  0.00  0.00    -0.090 HD
ATOM     28  H   UNL     1       3.547  -3.985   0.505  0.00  0.00    -0.090 HD
ATOM     29  H   UNL     1       3.261  -5.116   1.669  0.00  0.00    -0.090 HD
ENDBRANCH  25  26
ENDBRANCH  24  25
ENDBRANCH   9  24
TORSDOF 8
