REMARK  Name = ZINC66704472
REMARK  6 active torsions:
REMARK  status: ('A' for Active; 'I' for Inactive)
REMARK    1  A    between atoms: C_3  and  C_6
REMARK    2  A    between atoms: C_8  and  C_12
REMARK    3  A    between atoms: C_12  and  N_13
REMARK    4  A    between atoms: N_16  and  C_17
REMARK    5  A    between atoms: C_17  and  C_19
REMARK    6  A    between atoms: C_17  and  C_26
REMARK                            x       y       z     vdW  Elec       q    Type
REMARK                         _______ _______ _______ _____ _____    ______ ____
ROOT
ATOM      1  N   UNL     1       7.773   1.057   1.298  0.00  0.00    -0.292 N 
ATOM      2  C   UNL     1       9.024   0.611   1.526  0.00  0.00    +0.300 C 
ATOM      3  O   UNL     1       9.788   0.443   0.595  0.00  0.00    -0.253 OA
ATOM      4  N   UNL     1       9.429   0.350   2.785  0.00  0.00    -0.292 N 
ATOM      5  H   UNL     1       7.164   1.191   2.041  0.00  0.00    +0.151 HD
ATOM      6  H   UNL     1       8.819   0.484   3.527  0.00  0.00    +0.151 HD
ENDROOT
BRANCH   1   7
ATOM      7  C   UNL     1       7.333   1.339  -0.070  0.00  0.00    +0.181 C 
BRANCH   7  10
ATOM      8  C   UNL     1       3.740   1.825  -0.024  0.00  0.00    +0.188 A 
ATOM      9  N   UNL     1       4.842   1.062  -0.044  0.00  0.00    -0.209 NA
ATOM     10  C   UNL     1       5.906   1.821  -0.050  0.00  0.00    +0.143 A 
ATOM     11  N   UNL     1       5.508   3.106  -0.033  0.00  0.00    -0.261 N 
ATOM     12  H   UNL     1       6.080   3.890  -0.033  0.00  0.00    +0.190 HD
ATOM     13  N   UNL     1       4.104   3.091  -0.022  0.00  0.00    -0.152 NA
BRANCH   8  16
ATOM     14  C   UNL     1      -0.016   1.353   0.009  0.00  0.00    +0.008 A 
ATOM     15  C   UNL     1       1.178   2.041   0.002  0.00  0.00    +0.019 A 
ATOM     16  C   UNL     1       2.347   1.329  -0.013  0.00  0.00    +0.058 A 
ATOM     17  S   UNL     1       1.752  -0.354  -0.017  0.00  0.00    -0.093 S 
ATOM     18  C   UNL     1       0.002  -0.004   0.002  0.00  0.00    +0.046 A 
ENDBRANCH   8  16
ENDBRANCH   7  10
ENDBRANCH   1   7
BRANCH   4  19
ATOM     19  C   UNL     1      10.789  -0.135   3.032  0.00  0.00    +0.108 C 
BRANCH  19  20
ATOM     20  C   UNL     1      10.819  -0.908   4.325  0.00  0.00    -0.027 A 
ATOM     21  C   UNL     1      10.093  -0.462   5.413  0.00  0.00    +0.008 A 
ATOM     22  C   UNL     1      10.120  -1.171   6.599  0.00  0.00    +0.038 A 
ATOM     23  C   UNL     1      10.875  -2.328   6.697  0.00  0.00    +0.123 A 
ATOM     24  C   UNL     1      11.601  -2.773   5.606  0.00  0.00    +0.038 A 
ATOM     25  C   UNL     1      11.569  -2.066   4.420  0.00  0.00    +0.008 A 
ATOM     26  F   UNL     1      10.902  -3.021   7.856  0.00  0.00    -0.205 F 
ENDBRANCH  19  20
BRANCH  19  27
ATOM     27  C   UNL     1      11.745   1.056   3.127  0.00  0.00    +0.014 C 
ATOM     28  C   UNL     1      11.130   2.456   3.160  0.00  0.00    +0.006 C 
ATOM     29  C   UNL     1      11.858   1.971   1.906  0.00  0.00    +0.006 C 
ENDBRANCH  19  27
ENDBRANCH   4  19
TORSDOF 6
