REMARK  Name = ZINC61532895
REMARK  6 active torsions:
REMARK  status: ('A' for Active; 'I' for Inactive)
REMARK    1  A    between atoms: C_1  and  C_2
REMARK    2  A    between atoms: C_2  and  N_3
REMARK    3  A    between atoms: C_4  and  C_6
REMARK    4  A    between atoms: C_12  and  C_14
REMARK    5  A    between atoms: C_18  and  N_21
REMARK    6  A    between atoms: C_19  and  N_20
REMARK                            x       y       z     vdW  Elec       q    Type
REMARK                         _______ _______ _______ _____ _____    ______ ____
ROOT
ATOM      1  C   UNL     1      -3.011  -2.390   0.043  0.00  0.00    +0.092 C 
ATOM      2  C   UNL     1      -2.996  -3.920   0.021  0.00  0.00    +0.016 C 
ATOM      3  C   UNL     1      -4.432  -4.447   0.067  0.00  0.00    +0.020 C 
ATOM      4  C   UNL     1      -5.192  -3.954  -1.169  0.00  0.00    +0.108 C 
ATOM      5  N   UNL     1      -5.088  -2.489  -1.234  0.00  0.00    -0.297 N 
ATOM      6  C   UNL     1      -3.755  -1.873  -1.192  0.00  0.00    +0.120 C 
ATOM      7  C   UNL     1      -6.195  -1.726  -1.330  0.00  0.00    +0.249 C 
ATOM      8  O   UNL     1      -6.105  -0.515  -1.275  0.00  0.00    -0.270 OA
ENDROOT
BRANCH   7   9
ATOM      9  C   UNL     1      -7.515  -2.360  -1.503  0.00  0.00    +0.062 A 
ATOM     10  C   UNL     1      -7.727  -3.271  -2.541  0.00  0.00    +0.053 A 
ATOM     11  C   UNL     1      -8.964  -3.861  -2.697  0.00  0.00    +0.126 A 
ATOM     12  C   UNL     1     -10.001  -3.553  -1.827  0.00  0.00    +0.073 A 
ATOM     13  C   UNL     1      -9.806  -2.654  -0.799  0.00  0.00    +0.150 A 
ATOM     14  C   UNL     1      -8.564  -2.056  -0.622  0.00  0.00    +0.068 A 
ATOM     15  F   UNL     1      -9.168  -4.742  -3.701  0.00  0.00    -0.205 F 
BRANCH  14  16
ATOM     16  N   UNL     1      -8.364  -1.156   0.418  0.00  0.00    -0.356 N 
ATOM     17  H   UNL     1      -9.087  -0.575   0.702  0.00  0.00    +0.142 HD
ATOM     18  H   UNL     1      -7.502  -1.109   0.860  0.00  0.00    +0.142 HD
ENDBRANCH  14  16
BRANCH  13  19
ATOM     19  N   UNL     1     -10.919  -2.332   0.122  0.00  0.00    +0.058 N 
ATOM     20  O   UNL     1     -11.971  -2.920   0.028  0.00  0.00    -0.126 OA
ATOM     21  O   UNL     1     -10.776  -1.481   0.969  0.00  0.00    -0.126 OA
ENDBRANCH  13  19
ENDBRANCH   7   9
BRANCH   1  23
ATOM     22  N   UNL     1      -1.364  -0.545   0.044  0.00  0.00    -0.315 N 
ATOM     23  C   UNL     1      -1.596  -1.873   0.031  0.00  0.00    +0.218 C 
ATOM     24  O   UNL     1      -0.666  -2.651   0.011  0.00  0.00    -0.275 OA
ATOM     25  H   UNL     1      -2.108   0.077   0.060  0.00  0.00    +0.149 HD
BRANCH  22  27
ATOM     26  C   UNL     1      -0.004   1.487   0.050  0.00  0.00    +0.024 C 
ATOM     27  C   UNL     1       0.012  -0.043   0.032  0.00  0.00    +0.101 C 
ENDBRANCH  22  27
ENDBRANCH   1  23
TORSDOF 5
