REMARK  Name = ZINC32716853
REMARK  7 active torsions:
REMARK  status: ('A' for Active; 'I' for Inactive)
REMARK    1  A    between atoms: C_1  and  N_2
REMARK    2  A    between atoms: N_2  and  C_3
REMARK    3  A    between atoms: C_3  and  C_4
REMARK    4  A    between atoms: C_7  and  C_9
REMARK    5  A    between atoms: C_16  and  C_18
REMARK    6  A    between atoms: C_18  and  C_19
REMARK    7  A    between atoms: C_19  and  C_20
REMARK                            x       y       z     vdW  Elec       q    Type
REMARK                         _______ _______ _______ _____ _____    ______ ____
ROOT
ATOM      1  C   UNL     1      -1.794   0.768  -1.771  0.00  0.00    +0.132 C 
ATOM      2  N   UNL     1      -0.721   1.571  -1.179  0.00  0.00    -0.297 N 
ATOM      3  C   UNL     1      -0.386   2.756  -1.726  0.00  0.00    +0.216 C 
ATOM      4  O   UNL     1       0.502   3.421  -1.236  0.00  0.00    -0.276 OA
ENDROOT
BRANCH   2   5
ATOM      5  C   UNL     1      -0.013   1.086   0.008  0.00  0.00    +0.181 C 
BRANCH   5   6
ATOM      6  C   UNL     1      -0.718   1.572   1.248  0.00  0.00    +0.123 A 
ATOM      7  C   UNL     1      -1.709   0.925   1.892  0.00  0.00    +0.047 A 
ATOM      8  C   UNL     1      -2.076   1.725   2.993  0.00  0.00    +0.050 A 
ATOM      9  C   UNL     1      -1.286   2.831   2.955  0.00  0.00    +0.135 A 
ATOM     10  O   UNL     1      -0.467   2.724   1.891  0.00  0.00    -0.458 OA
BRANCH   9  11
ATOM     11  C   UNL     1      -1.319   3.954   3.914  0.00  0.00    +0.017 A 
ATOM     12  C   UNL     1      -2.226   3.942   4.976  0.00  0.00    +0.013 A 
ATOM     13  C   UNL     1      -2.249   4.992   5.871  0.00  0.00    +0.021 A 
ATOM     14  C   UNL     1      -1.383   6.060   5.712  0.00  0.00    +0.041 A 
ATOM     15  C   UNL     1      -0.484   6.080   4.658  0.00  0.00    +0.021 A 
ATOM     16  C   UNL     1      -0.448   5.034   3.760  0.00  0.00    +0.013 A 
ATOM     17 CL   UNL     1      -1.422   7.380   6.839  0.00  0.00    -0.084 Cl
ENDBRANCH   9  11
ENDBRANCH   5   6
ENDBRANCH   2   5
BRANCH   3  18
ATOM     18  C   UNL     1      -1.115   3.256  -2.947  0.00  0.00    +0.098 C 
BRANCH  18  19
ATOM     19  C   UNL     1      -0.545   4.614  -3.361  0.00  0.00    +0.041 C 
BRANCH  19  20
ATOM     20  C   UNL     1      -1.285   5.120  -4.601  0.00  0.00    +0.161 C 
ATOM     21  C   UNL     1      -0.825   6.519  -4.962  0.00  0.00    +0.241 C 
ATOM     22  O   UNL     1      -0.918   7.519  -4.282  0.00  0.00    -0.273 OA
ATOM     23  N   UNL     1      -0.291   6.420  -6.195  0.00  0.00    -0.239 N 
ATOM     24  C   UNL     1      -0.349   5.166  -6.659  0.00  0.00    +0.307 C 
ATOM     25  O   UNL     1       0.069   4.829  -7.749  0.00  0.00    -0.252 OA
ATOM     26  N   UNL     1      -0.923   4.321  -5.784  0.00  0.00    -0.288 N 
ATOM     27  H   UNL     1       0.121   7.312  -6.689  0.00  0.00    +0.159 HD
ATOM     28  H   UNL     1      -1.142   3.243  -5.807  0.00  0.00    +0.151 HD
ENDBRANCH  19  20
ENDBRANCH  18  19
ENDBRANCH   3  18
TORSDOF 6
