REMARK  Name = ZINC03425880
REMARK  11 active torsions:
REMARK  status: ('A' for Active; 'I' for Inactive)
REMARK    1  A    between atoms: C_4  and  O_28
REMARK    2  A    between atoms: C_5  and  C_7
REMARK    3  A    between atoms: C_7  and  N_49
REMARK    4  A    between atoms: C_8  and  C_9
REMARK    5  A    between atoms: C_8  and  N_49
REMARK    6  A    between atoms: C_14  and  C_15
REMARK    7  A    between atoms: C_14  and  N_49
REMARK    8  A    between atoms: C_15  and  C_17
REMARK    9  A    between atoms: C_15  and  O_27
REMARK   10  A    between atoms: C_17  and  O_18
REMARK   11  A    between atoms: O_18  and  C_19
REMARK                            x       y       z     vdW  Elec       q    Type
REMARK                         _______ _______ _______ _____ _____    ______ ____
ROOT
ATOM      1  N   UNL     1      -5.037  -2.974  -0.142  0.00  0.00    +0.389 N 
ATOM      2  H   UNL     1      -5.738  -2.744   0.572  0.00  0.00    -0.081 HD
ENDROOT
BRANCH   1   3
ATOM      3  C   UNL     1      -4.698  -4.409  -0.036  0.00  0.00    -0.039 C 
BRANCH   3   8
ATOM      4  C   UNL     1      -3.202  -5.310   3.311  0.00  0.00    +0.000 A 
ATOM      5  C   UNL     1      -4.332  -5.430   4.099  0.00  0.00    +0.004 A 
ATOM      6  C   UNL     1      -5.583  -5.219   3.552  0.00  0.00    +0.045 A 
ATOM      7  C   UNL     1      -5.705  -4.888   2.210  0.00  0.00    +0.118 A 
ATOM      8  C   UNL     1      -4.569  -4.768   1.422  0.00  0.00    -0.022 A 
ATOM      9  C   UNL     1      -3.321  -4.985   1.973  0.00  0.00    +0.005 A 
BRANCH   7  10
ATOM     10  O   UNL     1      -6.934  -4.680   1.669  0.00  0.00    -0.507 OA
ATOM     11  H   UNL     1      -7.343  -5.478   1.305  0.00  0.00    +0.292 HD
ENDBRANCH   7  10
ENDBRANCH   3   8
ENDBRANCH   1   3
BRANCH   1  12
ATOM     12  C   UNL     1      -5.599  -2.685  -1.478  0.00  0.00    -0.003 C 
BRANCH  12  13
ATOM     13  C   UNL     1      -6.997  -3.246  -1.547  0.00  0.00    +0.089 A 
ATOM     14  C   UNL     1      -8.121  -2.601  -1.188  0.00  0.00    +0.042 A 
ATOM     15  C   UNL     1      -9.195  -3.493  -1.415  0.00  0.00    +0.041 A 
ATOM     16  C   UNL     1      -8.662  -4.629  -1.900  0.00  0.00    +0.195 A 
ATOM     17  O   UNL     1      -7.330  -4.471  -1.983  0.00  0.00    -0.470 OA
ENDBRANCH  12  13
ENDBRANCH   1  12
BRANCH   1  18
ATOM     18  C   UNL     1      -3.831  -2.151   0.087  0.00  0.00    -0.043 C 
BRANCH  18  19
ATOM     19  C   UNL     1      -4.247  -0.683   0.195  0.00  0.00    +0.135 C 
BRANCH  19  20
ATOM     20  O   UNL     1      -5.079  -0.507   1.343  0.00  0.00    -0.390 OA
ATOM     21  H   UNL     1      -4.653  -0.745   2.178  0.00  0.00    +0.210 HD
ENDBRANCH  19  20
BRANCH  19  22
ATOM     22  C   UNL     1      -3.000   0.193   0.330  0.00  0.00    +0.258 C 
BRANCH  22  23
ATOM     23  O   UNL     1      -3.381   1.570   0.313  0.00  0.00    -0.488 OA
BRANCH  23  24
ATOM     24  C   UNL     1      -2.384   2.487   0.424  0.00  0.00    +0.139 A 
ATOM     25  C   UNL     1      -1.067   2.070   0.546  0.00  0.00    +0.048 A 
ATOM     26  C   UNL     1      -0.054   3.004   0.653  0.00  0.00    +0.023 A 
ATOM     27  C   UNL     1      -0.353   4.355   0.644  0.00  0.00    +0.043 A 
ATOM     28  C   UNL     1      -1.667   4.774   0.528  0.00  0.00    +0.043 A 
ATOM     29  C   UNL     1      -2.683   3.843   0.420  0.00  0.00    +0.084 A 
ATOM     30 CL   UNL     1      -4.331   4.368   0.273  0.00  0.00    -0.080 Cl
ATOM     31 CL   UNL     1       0.921   5.526   0.780  0.00  0.00    -0.083 Cl
ENDBRANCH  23  24
ENDBRANCH  22  23
ENDBRANCH  19  22
ENDBRANCH  18  19
ENDBRANCH   1  18
TORSDOF 11
