REMARK  Name = ZINC20633812
REMARK  7 active torsions:
REMARK  status: ('A' for Active; 'I' for Inactive)
REMARK    1  A    between atoms: C_1  and  C_2
REMARK    2  A    between atoms: N_11  and  C_15
REMARK    3  A    between atoms: C_15  and  N_16
REMARK    4  A    between atoms: N_19  and  C_22
REMARK    5  A    between atoms: C_22  and  C_23
REMARK    6  A    between atoms: N_25  and  C_26
REMARK    7  A    between atoms: C_31  and  C_32
REMARK                            x       y       z     vdW  Elec       q    Type
REMARK                         _______ _______ _______ _____ _____    ______ ____
ROOT
ATOM      1  N   UNL     1      -1.136   0.238  -0.799  0.00  0.00    -0.290 NA
ATOM      2  C   UNL     1      -0.252   0.246   0.376  0.00  0.00    +0.067 C 
ATOM      3  C   UNL     1      -0.766   1.271   1.390  0.00  0.00    -0.063 C 
ATOM      4  N   UNL     1      -0.815   2.598   0.761  0.00  0.00    +0.387 N 
ATOM      5  C   UNL     1      -1.699   2.589  -0.413  0.00  0.00    -0.063 C 
ATOM      6  C   UNL     1      -1.184   1.565  -1.428  0.00  0.00    +0.067 C 
ATOM      7  H   UNL     1       0.200   2.849   0.421  0.00  0.00    -0.081 HD
ENDROOT
BRANCH   1   8
ATOM      8  C   UNL     1      -0.718  -0.787  -1.764  0.00  0.00    +0.204 C 
BRANCH   8  18
ATOM      9  C   UNL     1      -1.605  -2.300  -5.863  0.00  0.00    +0.010 C 
ATOM     10  C   UNL     1      -2.709  -1.247  -5.982  0.00  0.00    +0.018 C 
ATOM     11  C   UNL     1      -2.709  -0.667  -7.399  0.00  0.00    +0.006 C 
ATOM     12  C   UNL     1      -3.800   0.400  -7.511  0.00  0.00    +0.000 C 
ATOM     13  C   UNL     1      -3.521   1.524  -6.511  0.00  0.00    +0.003 C 
ATOM     14  C   UNL     1      -3.525   0.952  -5.090  0.00  0.00    +0.035 C 
ATOM     15  C   UNL     1      -2.459  -0.132  -4.973  0.00  0.00    +0.115 C 
ATOM     16  C   UNL     1      -2.428  -0.690  -3.569  0.00  0.00    +0.248 C 
ATOM     17  O   UNL     1      -3.325  -1.258  -2.985  0.00  0.00    -0.273 OA
ATOM     18  N   UNL     1      -1.191  -0.421  -3.101  0.00  0.00    -0.211 N 
ATOM     19  C   UNL     1      -0.451   0.228  -4.009  0.00  0.00    +0.310 C 
ATOM     20  O   UNL     1       0.695   0.583  -3.818  0.00  0.00    -0.252 OA
ATOM     21  N   UNL     1      -1.119   0.440  -5.159  0.00  0.00    -0.285 N 
ATOM     22  H   UNL     1      -0.854   0.920  -6.113  0.00  0.00    +0.151 HD
ENDBRANCH   8  18
ENDBRANCH   1   8
BRANCH   4  23
ATOM     23  C   UNL     1      -1.233   3.623   1.727  0.00  0.00    +0.019 C 
BRANCH  23  24
ATOM     24  C   UNL     1      -1.011   4.991   1.135  0.00  0.00    +0.201 C 
ATOM     25  O   UNL     1      -0.607   5.101  -0.004  0.00  0.00    -0.278 OA
ATOM     26  N   UNL     1      -1.261   6.092   1.870  0.00  0.00    -0.287 N 
ATOM     27  H   UNL     1      -1.553   5.994   2.926  0.00  0.00    +0.155 HD
BRANCH  26  28
ATOM     28  C   UNL     1      -1.148   7.361   1.291  0.00  0.00    +0.045 A 
ATOM     29  C   UNL     1      -1.460   7.544  -0.050  0.00  0.00    +0.024 A 
ATOM     30  C   UNL     1      -1.353   8.799  -0.617  0.00  0.00    +0.002 A 
ATOM     31  C   UNL     1      -0.924   9.870   0.146  0.00  0.00    +0.001 A 
ATOM     32  C   UNL     1      -0.606   9.689   1.479  0.00  0.00    +0.014 A 
ATOM     33  C   UNL     1      -0.717   8.438   2.054  0.00  0.00    +0.076 A 
BRANCH  33  34
ATOM     34  C   UNL     1      -0.370   8.242   3.507  0.00  0.00    +0.419 C 
ATOM     35  F   UNL     1       0.035   9.463   4.059  0.00  0.00    -0.166 F 
ATOM     36  F   UNL     1      -1.492   7.769   4.195  0.00  0.00    -0.166 F 
ATOM     37  F   UNL     1       0.670   7.314   3.617  0.00  0.00    -0.166 F 
ENDBRANCH  33  34
ENDBRANCH  26  28
ENDBRANCH  23  24
ENDBRANCH   4  23
TORSDOF 6
