REMARK  Name = ZINC10993952
REMARK  7 active torsions:
REMARK  status: ('A' for Active; 'I' for Inactive)
REMARK    1  A    between atoms: C_1  and  C_2
REMARK    2  A    between atoms: C_4  and  N_7
REMARK    3  A    between atoms: C_8  and  C_10
REMARK    4  A    between atoms: C_10  and  C_12
REMARK    5  A    between atoms: C_10  and  S_13
REMARK    6  A    between atoms: S_13  and  C_14
REMARK    7  A    between atoms: N_27  and  C_28
REMARK                            x       y       z     vdW  Elec       q    Type
REMARK                         _______ _______ _______ _____ _____    ______ ____
ROOT
ATOM      1  C   UNL     1       5.737   6.320  -0.755  0.00  0.00    +0.178 A 
ATOM      2  N   UNL     1       4.845   7.169  -0.286  0.00  0.00    -0.215 NA
ATOM      3  C   UNL     1       5.086   8.475  -0.281  0.00  0.00    +0.117 A 
ATOM      4  C   UNL     1       6.288   9.016  -0.768  0.00  0.00    +0.076 A 
ATOM      5  C   UNL     1       6.409  10.473  -0.695  0.00  0.00    -0.023 A 
ATOM      6  C   UNL     1       5.365  11.148  -0.173  0.00  0.00    -0.004 A 
ATOM      7  S   UNL     1       4.175   9.904   0.247  0.00  0.00    -0.073 S 
ATOM      8  C   UNL     1       5.243  12.630   0.011  0.00  0.00    +0.043 C 
ATOM      9  C   UNL     1       6.638  13.254  -0.141  0.00  0.00    +0.005 C 
ATOM     10  C   UNL     1       7.295  12.684  -1.401  0.00  0.00    +0.005 C 
ATOM     11  C   UNL     1       7.651  11.214  -1.183  0.00  0.00    +0.037 C 
ATOM     12  C   UNL     1       7.238   8.072  -1.272  0.00  0.00    +0.268 A 
ATOM     13  O   UNL     1       8.308   8.450  -1.716  0.00  0.00    -0.267 OA
ATOM     14  N   UNL     1       6.935   6.761  -1.244  0.00  0.00    -0.253 N 
ENDROOT
BRANCH  14  15
ATOM     15  C   UNL     1       7.864   5.830  -1.731  0.00  0.00    +0.087 A 
ATOM     16  C   UNL     1       7.839   5.457  -3.068  0.00  0.00    +0.029 A 
ATOM     17  C   UNL     1       8.759   4.544  -3.546  0.00  0.00    +0.002 A 
ATOM     18  C   UNL     1       9.697   3.993  -2.692  0.00  0.00    +0.003 A 
ATOM     19  C   UNL     1       9.722   4.357  -1.359  0.00  0.00    +0.040 A 
ATOM     20  C   UNL     1       8.808   5.275  -0.875  0.00  0.00    +0.147 A 
ATOM     21  F   UNL     1       8.832   5.631   0.428  0.00  0.00    -0.203 F 
ENDBRANCH  14  15
BRANCH   1  22
ATOM     22  S   UNL     1       5.384   4.594  -0.746  0.00  0.00    -0.075 S 
BRANCH  22  23
ATOM     23  C   UNL     1       3.731   4.615  -0.009  0.00  0.00    +0.137 C 
ATOM     24  C   UNL     1       3.821   5.127   1.430  0.00  0.00    +0.029 C 
BRANCH  23  26
ATOM     25  N   UNL     1       1.827   3.036   0.001  0.00  0.00    -0.253 N 
ATOM     26  C   UNL     1       3.162   3.220  -0.011  0.00  0.00    +0.233 C 
ATOM     27  O   UNL     1       3.906   2.262  -0.023  0.00  0.00    -0.274 OA
ATOM     28  H   UNL     1       1.232   3.803   0.011  0.00  0.00    +0.158 HD
BRANCH  25  32
ATOM     29  C   UNL     1      -1.193  -0.922   0.008  0.00  0.00    +0.069 C 
ATOM     30  C   UNL     1       0.002  -0.004   0.002  0.00  0.00    +0.082 A 
ATOM     31  C   UNL     1      -0.017   1.405   0.010  0.00  0.00    +0.092 A 
ATOM     32  C   UNL     1       1.304   1.752  -0.001  0.00  0.00    +0.224 A 
ATOM     33  O   UNL     1       1.994   0.600  -0.014  0.00  0.00    -0.339 OA
ATOM     34  N   UNL     1       1.256  -0.358  -0.012  0.00  0.00    -0.081 NA
ENDBRANCH  25  32
ENDBRANCH  23  26
ENDBRANCH  22  23
ENDBRANCH   1  22
TORSDOF 5
