REMARK  Name = ZINC38785157
REMARK  4 active torsions:
REMARK  status: ('A' for Active; 'I' for Inactive)
REMARK    1  A    between atoms: C_4  and  C_7
REMARK    2  A    between atoms: C_7  and  C_9
REMARK    3  A    between atoms: C_7  and  N_22
REMARK    4  A    between atoms: C_23  and  C_25
REMARK                            x       y       z     vdW  Elec       q    Type
REMARK                         _______ _______ _______ _____ _____    ______ ____
ROOT
ATOM      1  C   UNL     1       3.592  -1.047  -0.153  0.00  0.00    +0.190 C 
ENDROOT
BRANCH   1   2
ATOM      2  C   UNL     1       3.932  -1.294  -1.600  0.00  0.00    +0.242 C 
ATOM      3  O   UNL     1       4.024  -2.430  -2.015  0.00  0.00    -0.273 OA
ATOM      4  N   UNL     1       4.136  -0.254  -2.432  0.00  0.00    -0.284 N 
ATOM      5  C   UNL     1       5.267  -0.157  -3.103  0.00  0.00    +0.036 C 
ATOM      6  C   UNL     1       6.353  -1.112  -2.853  0.00  0.00    +0.025 C 
ATOM      7  C   UNL     1       7.511  -1.020  -3.535  0.00  0.00    +0.032 C 
ATOM      8  C   UNL     1       7.694   0.037  -4.534  0.00  0.00    +0.095 C 
ATOM      9  N   UNL     1       8.680   0.380  -5.340  0.00  0.00    -0.190 NA
ATOM     10  C   UNL     1       8.310   1.451  -6.062  0.00  0.00    +0.369 C 
ATOM     11  O   UNL     1       9.094   2.055  -6.987  0.00  0.00    -0.243 OA
ATOM     12  N   UNL     1       7.093   1.838  -5.759  0.00  0.00    -0.190 NA
ATOM     13  C   UNL     1       6.609   1.003  -4.795  0.00  0.00    +0.097 C 
ATOM     14  C   UNL     1       5.439   0.910  -4.113  0.00  0.00    +0.053 C 
ATOM     15  H   UNL     1       3.450   0.424  -2.537  0.00  0.00    +0.155 HD
ENDBRANCH   1   2
BRANCH   1  19
ATOM     16  C   UNL     1      -0.036   1.195   0.091  0.00  0.00    +0.000 A 
ATOM     17  C   UNL     1       1.182   1.833   0.234  0.00  0.00    +0.000 A 
ATOM     18  C   UNL     1       2.356   1.108   0.155  0.00  0.00    +0.006 A 
ATOM     19  C   UNL     1       2.312  -0.256  -0.066  0.00  0.00    -0.018 A 
ATOM     20  C   UNL     1       1.094  -0.894  -0.208  0.00  0.00    +0.006 A 
ATOM     21  C   UNL     1      -0.080  -0.169  -0.131  0.00  0.00    +0.000 A 
ENDBRANCH   1  19
BRANCH   1  22
ATOM     22  N   UNL     1       3.421  -2.329   0.535  0.00  0.00    -0.296 N 
ATOM     23  C   UNL     1       3.613  -2.410   1.867  0.00  0.00    +0.252 C 
ATOM     24  O   UNL     1       3.928  -1.418   2.498  0.00  0.00    -0.270 OA
ATOM     25  H   UNL     1       3.171  -3.119   0.032  0.00  0.00    +0.150 HD
BRANCH  23  26
ATOM     26  C   UNL     1       3.443  -3.693   2.555  0.00  0.00    +0.074 A 
ATOM     27  C   UNL     1       3.585  -3.987   3.902  0.00  0.00    +0.021 A 
ATOM     28  C   UNL     1       3.357  -5.296   4.255  0.00  0.00    +0.008 A 
ATOM     29  C   UNL     1       3.019  -6.189   3.292  0.00  0.00    +0.046 A 
ATOM     30  S   UNL     1       2.991  -5.279   1.879  0.00  0.00    -0.092 S 
ENDBRANCH  23  26
ENDBRANCH   1  22
TORSDOF 4
