REMARK  Name = ZINC13099112
REMARK  9 active torsions:
REMARK  status: ('A' for Active; 'I' for Inactive)
REMARK    1  A    between atoms: C_1  and  C_2
REMARK    2  A    between atoms: C_2  and  C_3
REMARK    3  A    between atoms: C_10  and  O_37
REMARK    4  A    between atoms: C_11  and  O_35
REMARK    5  A    between atoms: C_17  and  C_19
REMARK    6  A    between atoms: C_19  and  C_20
REMARK    7  A    between atoms: C_26  and  O_32
REMARK    8  A    between atoms: O_35  and  C_36
REMARK    9  A    between atoms: O_37  and  C_38
REMARK                            x       y       z     vdW  Elec       q    Type
REMARK                         _______ _______ _______ _____ _____    ______ ____
ROOT
ATOM      1  C   UNL     1       0.726  -0.502  -1.273  0.00  0.00    -0.025 C 
ATOM      2  C   UNL     1       2.191  -0.065  -1.365  0.00  0.00    -0.074 C 
ATOM      3  C   UNL     1       4.090   0.073  -2.869  0.00  0.00    -0.073 C 
ATOM      4  C   UNL     1       4.444  -0.024  -4.353  0.00  0.00    +0.017 C 
ATOM      5  C   UNL     1       4.152  -1.413  -4.864  0.00  0.00    -0.044 A 
ATOM      6  C   UNL     1       4.724  -1.807  -6.064  0.00  0.00    +0.053 A 
ATOM      7  C   UNL     1       4.477  -3.068  -6.576  0.00  0.00    +0.162 A 
ATOM      8  C   UNL     1       3.650  -3.945  -5.880  0.00  0.00    +0.162 A 
ATOM      9  C   UNL     1       3.084  -3.547  -4.682  0.00  0.00    +0.051 A 
ATOM     10  C   UNL     1       3.336  -2.282  -4.171  0.00  0.00    -0.054 A 
ATOM     11  C   UNL     1       2.700  -1.898  -2.862  0.00  0.00    -0.037 C 
ATOM     12  C   UNL     1       1.252  -2.391  -2.821  0.00  0.00    -0.007 C 
ATOM     13  C   UNL     1       0.634  -2.018  -1.470  0.00  0.00    -0.012 C 
ATOM     14  N   UNL     1       2.712  -0.435  -2.700  0.00  0.00    +0.385 N 
ATOM     15  H   UNL     1       2.112  -0.015  -3.419  0.00  0.00    -0.081 HD
ENDROOT
BRANCH   1  17
ATOM     16  C   UNL     1       0.147   1.390   0.252  0.00  0.00    +0.004 C 
ATOM     17  C   UNL     1       0.169  -0.133   0.104  0.00  0.00    -0.002 C 
ENDBRANCH   1  17
BRANCH   8  18
ATOM     18  O   UNL     1       3.400  -5.186  -6.375  0.00  0.00    -0.491 OA
ATOM     19  C   UNL     1       2.542  -6.031  -5.605  0.00  0.00    +0.277 C 
ENDBRANCH   8  18
BRANCH   7  20
ATOM     20  O   UNL     1       5.040  -3.450  -7.754  0.00  0.00    -0.491 OA
ATOM     21  C   UNL     1       5.877  -2.497  -8.412  0.00  0.00    +0.277 C 
ENDBRANCH   7  20
BRANCH  13  22
ATOM     22  C   UNL     1      -0.834  -2.448  -1.444  0.00  0.00    -0.006 C 
BRANCH  22  23
ATOM     23  C   UNL     1      -0.919  -3.974  -1.515  0.00  0.00    -0.023 C 
ATOM     24  C   UNL     1      -0.571  -4.565  -0.169  0.00  0.00    +0.006 A 
ATOM     25  C   UNL     1      -1.277  -5.577   0.393  0.00  0.00    -0.022 A 
ATOM     26  C   UNL     1      -0.661  -5.868   1.669  0.00  0.00    +0.006 A 
ATOM     27  C   UNL     1      -0.950  -6.798   2.673  0.00  0.00    +0.055 A 
ATOM     28  C   UNL     1      -0.124  -6.791   3.787  0.00  0.00    +0.118 A 
ATOM     29  C   UNL     1       0.940  -5.905   3.905  0.00  0.00    +0.047 A 
ATOM     30  C   UNL     1       1.240  -4.978   2.923  0.00  0.00    +0.030 A 
ATOM     31  C   UNL     1       0.426  -4.964   1.792  0.00  0.00    +0.047 A 
ATOM     32  N   UNL     1       0.446  -4.194   0.662  0.00  0.00    -0.359 N 
ATOM     33  H   UNL     1       1.087  -3.490   0.478  0.00  0.00    +0.166 HD
ATOM     34  C   UNL     1      -2.470  -6.225  -0.262  0.00  0.00    +0.018 C 
ATOM     35  C   UNL     1      -2.470  -5.830  -1.745  0.00  0.00    -0.077 C 
ATOM     36  N   UNL     1      -2.301  -4.368  -1.869  0.00  0.00    +0.385 N 
ATOM     37  H   UNL     1      -2.495  -4.086  -2.837  0.00  0.00    -0.085 HD
ATOM     38  H   UNL     1      -2.959  -3.897  -1.237  0.00  0.00    -0.085 HD
BRANCH  28  39
ATOM     39  O   UNL     1      -0.362  -7.676   4.792  0.00  0.00    -0.507 OA
ATOM     40  H   UNL     1      -0.963  -7.345   5.473  0.00  0.00    +0.292 HD
ENDBRANCH  28  39
ENDBRANCH  22  23
ENDBRANCH  13  22
TORSDOF 6
