REMARK  Name = ZINC63270034
REMARK  8 active torsions:
REMARK  status: ('A' for Active; 'I' for Inactive)
REMARK    1  A    between atoms: C_1  and  O_2
REMARK    2  A    between atoms: O_2  and  C_3
REMARK    3  A    between atoms: C_7  and  C_12
REMARK    4  A    between atoms: C_12  and  C_13
REMARK    5  A    between atoms: C_13  and  N_14
REMARK    6  A    between atoms: C_15  and  C_17
REMARK    7  A    between atoms: C_17  and  C_18
REMARK    8  A    between atoms: C_18  and  N_19
REMARK                            x       y       z     vdW  Elec       q    Type
REMARK                         _______ _______ _______ _____ _____    ______ ____
ROOT
ATOM      1  N   UNL     1       5.313  -1.753  -6.427  0.00  0.00    -0.315 N 
ATOM      2  C   UNL     1       6.657  -1.657  -6.441  0.00  0.00    +0.215 C 
ATOM      3  O   UNL     1       7.293  -1.908  -5.439  0.00  0.00    -0.276 OA
ATOM      4  H   UNL     1       4.804  -1.552  -7.228  0.00  0.00    +0.149 HD
ENDROOT
BRANCH   1   5
ATOM      5  C   UNL     1       4.620  -2.161  -5.202  0.00  0.00    +0.108 C 
BRANCH   5   6
ATOM      6  C   UNL     1       3.112  -2.190  -5.455  0.00  0.00    +0.052 C 
BRANCH   6  11
ATOM      7  C   UNL     1       0.605  -0.606  -1.053  0.00  0.00    +0.122 A 
ATOM      8  C   UNL     1       1.171   0.200  -2.059  0.00  0.00    +0.046 A 
ATOM      9  C   UNL     1       1.785  -0.338  -3.135  0.00  0.00    +0.013 A 
ATOM     10  C   UNL     1       1.862  -1.799  -3.257  0.00  0.00    -0.001 A 
ATOM     11  C   UNL     1       2.399  -2.610  -4.195  0.00  0.00    -0.040 C 
ATOM     12  C   UNL     1       2.142  -4.025  -3.725  0.00  0.00    +0.144 C 
ATOM     13  N   UNL     1       1.419  -3.902  -2.454  0.00  0.00    -0.380 N 
ATOM     14  C   UNL     1       1.260  -2.626  -2.186  0.00  0.00    +0.046 A 
ATOM     15  C   UNL     1       0.643  -1.962  -1.097  0.00  0.00    +0.071 A 
ATOM     16  H   UNL     1       1.112  -4.639  -1.904  0.00  0.00    +0.160 HD
BRANCH   7  18
ATOM     17  C   UNL     1      -0.017   1.425   0.010  0.00  0.00    +0.277 C 
ATOM     18  O   UNL     1       0.002  -0.004   0.002  0.00  0.00    -0.495 OA
ENDBRANCH   7  18
ENDBRANCH   6  11
ENDBRANCH   5   6
ENDBRANCH   1   5
BRANCH   2  19
ATOM     19  C   UNL     1       7.369  -1.237  -7.701  0.00  0.00    +0.115 C 
BRANCH  19  20
ATOM     20  C   UNL     1       8.878  -1.208  -7.448  0.00  0.00    +0.127 C 
BRANCH  20  21
ATOM     21  N   UNL     1       9.570  -0.799  -8.673  0.00  0.00    -0.223 N 
ATOM     22  C   UNL     1       9.957  -1.735  -9.563  0.00  0.00    +0.236 C 
ATOM     23  O   UNL     1       9.860  -2.913  -9.291  0.00  0.00    -0.274 OA
ATOM     24  C   UNL     1      10.508  -1.313 -10.892  0.00  0.00    +0.144 C 
ATOM     25  C   UNL     1      11.574  -2.241 -11.385  0.00  0.00    -0.008 C 
ATOM     26  C   UNL     1      12.616  -1.784 -12.081  0.00  0.00    -0.003 C 
ATOM     27  C   UNL     1      12.775  -0.406 -12.357  0.00  0.00    +0.001 C 
ATOM     28  C   UNL     1      12.003   0.521 -11.731  0.00  0.00    +0.022 C 
ATOM     29  C   UNL     1      11.031   0.093 -10.823  0.00  0.00    +0.051 C 
ATOM     30  N   UNL     1      10.610   0.915  -9.887  0.00  0.00    -0.166 NA
ATOM     31  C   UNL     1       9.808   0.504  -8.898  0.00  0.00    +0.332 C 
ATOM     32  O   UNL     1       9.281   1.333  -8.180  0.00  0.00    -0.250 OA
ENDBRANCH  20  21
ENDBRANCH  19  20
ENDBRANCH   2  19
TORSDOF 7
