REMARK  Name = ZINC59385078
REMARK  6 active torsions:
REMARK  status: ('A' for Active; 'I' for Inactive)
REMARK    1  A    between atoms: C_1  and  C_2
REMARK    2  A    between atoms: C_3  and  C_17
REMARK    3  A    between atoms: C_4  and  C_10
REMARK    4  A    between atoms: C_13  and  O_16
REMARK    5  A    between atoms: N_19  and  N_20
REMARK    6  A    between atoms: C_21  and  C_22
REMARK                            x       y       z     vdW  Elec       q    Type
REMARK                         _______ _______ _______ _____ _____    ______ ____
ROOT
ATOM      1  C   UNL     1      -0.039   1.491   0.091  0.00  0.00    +0.061 C 
ATOM      2  C   UNL     1      -0.009  -0.015   0.030  0.00  0.00    +0.017 C 
ATOM      3  C   UNL     1      -1.170  -0.703   0.033  0.00  0.00    +0.057 C 
ATOM      4  C   UNL     1      -1.094  -2.215  -0.030  0.00  0.00    +0.139 C 
ATOM      5  N   UNL     1       0.250  -2.813  -0.090  0.00  0.00    -0.315 N 
ATOM      6  C   UNL     1       1.319  -1.992  -0.085  0.00  0.00    +0.135 C 
ATOM      7  S   UNL     1       2.887  -2.675  -0.155  0.00  0.00    -0.019 S 
ATOM      8  N   UNL     1       1.193  -0.660  -0.034  0.00  0.00    -0.300 N 
ATOM      9  H   UNL     1       0.363  -3.776  -0.131  0.00  0.00    +0.149 HD
ATOM     10  H   UNL     1       2.002  -0.124  -0.037  0.00  0.00    +0.154 HD
ENDROOT
BRANCH   4  11
ATOM     11  C   UNL     1      -1.794  -2.766   1.185  0.00  0.00    -0.022 A 
ATOM     12  C   UNL     1      -1.187  -2.689   2.425  0.00  0.00    +0.009 A 
ATOM     13  C   UNL     1      -1.826  -3.195   3.541  0.00  0.00    +0.046 A 
ATOM     14  C   UNL     1      -3.078  -3.778   3.417  0.00  0.00    +0.117 A 
ATOM     15  C   UNL     1      -3.685  -3.853   2.172  0.00  0.00    +0.046 A 
ATOM     16  C   UNL     1      -3.044  -3.342   1.060  0.00  0.00    +0.009 A 
BRANCH  14  17
ATOM     17  O   UNL     1      -3.709  -4.276   4.513  0.00  0.00    -0.507 OA
ATOM     18  H   UNL     1      -4.271  -3.635   4.968  0.00  0.00    +0.292 HD
ENDBRANCH  14  17
ENDBRANCH   4  11
BRANCH   3  19
ATOM     19  C   UNL     1      -2.417  -0.034   0.093  0.00  0.00    +0.263 C 
ATOM     20  O   UNL     1      -3.077   0.116  -0.919  0.00  0.00    -0.269 OA
ATOM     21  N   UNL     1      -2.873   0.436   1.271  0.00  0.00    -0.203 N 
ATOM     22  H   UNL     1      -2.316   0.383   2.063  0.00  0.00    +0.178 HD
BRANCH  21  23
ATOM     23  N   UNL     1      -4.153   1.001   1.352  0.00  0.00    -0.187 NA
ATOM     24  C   UNL     1      -4.592   1.453   2.486  0.00  0.00    +0.138 C 
BRANCH  24  25
ATOM     25  C   UNL     1      -5.939   2.048   2.571  0.00  0.00    -0.005 A 
ATOM     26  C   UNL     1      -6.747   2.120   1.433  0.00  0.00    +0.011 A 
ATOM     27  C   UNL     1      -8.005   2.677   1.519  0.00  0.00    +0.020 A 
ATOM     28  C   UNL     1      -8.469   3.165   2.730  0.00  0.00    +0.041 A 
ATOM     29  C   UNL     1      -7.673   3.096   3.861  0.00  0.00    +0.020 A 
ATOM     30  C   UNL     1      -6.415   2.536   3.790  0.00  0.00    +0.011 A 
ATOM     31 CL   UNL     1     -10.054   3.865   2.829  0.00  0.00    -0.084 Cl
ENDBRANCH  24  25
ENDBRANCH  21  23
ENDBRANCH   3  19
TORSDOF 5
