REMARK  Name = ZINC36072467
REMARK  11 active torsions:
REMARK  status: ('A' for Active; 'I' for Inactive)
REMARK    1  A    between atoms: C_1  and  C_2
REMARK    2  A    between atoms: C_7  and  C_8
REMARK    3  A    between atoms: C_8  and  N_9
REMARK    4  A    between atoms: N_9  and  C_10
REMARK    5  A    between atoms: N_9  and  C_18
REMARK    6  A    between atoms: C_10  and  C_11
REMARK    7  A    between atoms: C_18  and  C_19
REMARK    8  A    between atoms: C_21  and  C_24
REMARK    9  A    between atoms: N_26  and  C_27
REMARK   10  A    between atoms: C_27  and  C_29
REMARK   11  A    between atoms: C_27  and  C_30
REMARK                            x       y       z     vdW  Elec       q    Type
REMARK                         _______ _______ _______ _____ _____    ______ ____
ROOT
ATOM      1  N   UNL     1      -1.318   0.589   2.751  0.00  0.00    +0.391 N 
ATOM      2  H   UNL     1      -1.610   1.030   1.891  0.00  0.00    -0.080 HD
ENDROOT
BRANCH   1   3
ATOM      3  C   UNL     1       0.046   0.067   2.593  0.00  0.00    -0.042 C 
BRANCH   3  10
ATOM      4  C   UNL     1       0.226   1.188  -0.063  0.00  0.00    +0.044 C 
ATOM      5  C   UNL     1       0.187  -0.307   0.122  0.00  0.00    -0.049 A 
ATOM      6  C   UNL     1       0.242  -1.142  -0.978  0.00  0.00    +0.003 A 
ATOM      7  C   UNL     1       0.206  -2.513  -0.808  0.00  0.00    +0.000 A 
ATOM      8  C   UNL     1       0.114  -3.049   0.463  0.00  0.00    +0.000 A 
ATOM      9  C   UNL     1       0.060  -2.215   1.563  0.00  0.00    +0.002 A 
ATOM     10  C   UNL     1       0.100  -0.843   1.393  0.00  0.00    -0.061 A 
ENDBRANCH   3  10
ENDBRANCH   1   3
BRANCH   1  11
ATOM     11  C   UNL     1      -1.343   1.574   3.840  0.00  0.00    -0.042 C 
BRANCH  11  12
ATOM     12  C   UNL     1      -0.501   2.765   3.460  0.00  0.00    -0.064 A 
ATOM     13  C   UNL     1       0.845   2.788   3.773  0.00  0.00    +0.004 A 
ATOM     14  C   UNL     1       1.618   3.879   3.424  0.00  0.00    +0.038 A 
ATOM     15  C   UNL     1       1.043   4.950   2.761  0.00  0.00    +0.123 A 
ATOM     16  C   UNL     1      -0.306   4.926   2.448  0.00  0.00    +0.038 A 
ATOM     17  C   UNL     1      -1.075   3.832   2.793  0.00  0.00    +0.004 A 
ATOM     18  F   UNL     1       1.797   6.018   2.420  0.00  0.00    -0.205 F 
ENDBRANCH  11  12
ENDBRANCH   1  11
BRANCH   1  19
ATOM     19  C   UNL     1      -2.232  -0.516   3.069  0.00  0.00    +0.020 C 
BRANCH  19  20
ATOM     20  C   UNL     1      -3.649  -0.005   3.095  0.00  0.00    +0.179 A 
ATOM     21  N   UNL     1      -4.421   0.124   2.058  0.00  0.00    -0.210 NA
ATOM     22  C   UNL     1      -5.622   0.613   2.472  0.00  0.00    +0.163 A 
ATOM     23  C   UNL     1      -5.543   0.776   3.821  0.00  0.00    +0.230 A 
ATOM     24  O   UNL     1      -4.314   0.383   4.192  0.00  0.00    -0.449 OA
BRANCH  22  25
ATOM     25  C   UNL     1      -6.788   0.909   1.620  0.00  0.00    +0.266 C 
ATOM     26  O   UNL     1      -7.776   1.431   2.102  0.00  0.00    -0.268 OA
ATOM     27  N   UNL     1      -6.759   0.602   0.308  0.00  0.00    -0.303 N 
ATOM     28  H   UNL     1      -6.003   0.120  -0.061  0.00  0.00    +0.150 HD
BRANCH  27  29
ATOM     29  C   UNL     1      -7.871   0.997  -0.560  0.00  0.00    +0.100 C 
ATOM     30  C   UNL     1      -8.975  -0.060  -0.487  0.00  0.00    +0.033 C 
BRANCH  29  31
ATOM     31  C   UNL     1      -7.381   1.115  -1.981  0.00  0.00    -0.027 A 
ATOM     32  C   UNL     1      -6.487   0.188  -2.482  0.00  0.00    +0.005 A 
ATOM     33  C   UNL     1      -6.038   0.295  -3.785  0.00  0.00    +0.000 A 
ATOM     34  C   UNL     1      -6.483   1.330  -4.587  0.00  0.00    +0.000 A 
ATOM     35  C   UNL     1      -7.378   2.256  -4.085  0.00  0.00    +0.000 A 
ATOM     36  C   UNL     1      -7.831   2.146  -2.784  0.00  0.00    +0.005 A 
ENDBRANCH  29  31
ENDBRANCH  27  29
ENDBRANCH  22  25
ENDBRANCH  19  20
ENDBRANCH   1  19
TORSDOF 9
