REMARK  Name = ZINC13391640
REMARK  7 active torsions:
REMARK  status: ('A' for Active; 'I' for Inactive)
REMARK    1  A    between atoms: C_3  and  O_22
REMARK    2  A    between atoms: C_6  and  C_7
REMARK    3  A    between atoms: C_8  and  C_9
REMARK    4  A    between atoms: N_11  and  C_12
REMARK    5  A    between atoms: C_14  and  C_20
REMARK    6  A    between atoms: C_17  and  C_18
REMARK    7  A    between atoms: O_22  and  C_23
REMARK                            x       y       z     vdW  Elec       q    Type
REMARK                         _______ _______ _______ _____ _____    ______ ____
ROOT
ATOM      1  C   UNL     1      -1.253  -0.753   0.008  0.00  0.00    +0.241 C 
ATOM      2  O   UNL     1      -2.315  -0.159   0.006  0.00  0.00    -0.270 OA
ATOM      3  N   UNL     1      -1.235  -2.101   0.005  0.00  0.00    -0.281 N 
ATOM      4  H   UNL     1      -0.392  -2.574  -0.075  0.00  0.00    +0.155 HD
ENDROOT
BRANCH   3   5
ATOM      5  C   UNL     1      -2.425  -2.813   0.116  0.00  0.00    +0.049 A 
ATOM      6  C   UNL     1      -3.526  -2.237   0.736  0.00  0.00    +0.039 A 
ATOM      7  C   UNL     1      -4.715  -2.953   0.845  0.00  0.00    +0.065 A 
ATOM      8  C   UNL     1      -4.802  -4.250   0.331  0.00  0.00    +0.016 A 
ATOM      9  C   UNL     1      -3.714  -4.826  -0.283  0.00  0.00    +0.018 A 
ATOM     10  C   UNL     1      -2.518  -4.113  -0.402  0.00  0.00    +0.084 A 
BRANCH  10  11
ATOM     11  C   UNL     1      -1.353  -4.729  -1.067  0.00  0.00    +0.388 C 
ATOM     12  O   UNL     1      -0.287  -4.147  -1.087  0.00  0.00    -0.241 OA
ATOM     13  O   UNL     1      -1.472  -5.937  -1.652  0.00  0.00    -0.241 OA
ENDBRANCH  10  11
BRANCH   7  14
ATOM     14  C   UNL     1      -5.889  -2.339   1.504  0.00  0.00    +0.387 C 
ATOM     15  O   UNL     1      -5.814  -1.212   1.950  0.00  0.00    -0.241 OA
ATOM     16  O   UNL     1      -7.040  -3.030   1.610  0.00  0.00    -0.241 OA
ENDBRANCH   7  14
ENDBRANCH   3   5
BRANCH   1  18
ATOM     17  C   UNL     1      -0.015   1.345   0.017  0.00  0.00    +0.013 C 
ATOM     18  C   UNL     1       0.003  -0.005   0.014  0.00  0.00    +0.068 C 
BRANCH  17  24
ATOM     19  C   UNL     1       2.471   1.416   0.031  0.00  0.00    +0.011 A 
ATOM     20  C   UNL     1       3.651   2.125   0.030  0.00  0.00    +0.046 A 
ATOM     21  C   UNL     1       3.629   3.515   0.033  0.00  0.00    +0.127 A 
ATOM     22  C   UNL     1       2.417   4.196   0.031  0.00  0.00    +0.046 A 
ATOM     23  C   UNL     1       1.232   3.497   0.026  0.00  0.00    +0.011 A 
ATOM     24  C   UNL     1       1.248   2.097   0.022  0.00  0.00    -0.025 A 
BRANCH  21  25
ATOM     25  O   UNL     1       4.796   4.209   0.038  0.00  0.00    -0.434 OA
BRANCH  25  26
ATOM     26  C   UNL     1       6.004   3.447   0.040  0.00  0.00    +0.541 C 
ATOM     27  F   UNL     1       6.044   2.638   1.180  0.00  0.00    -0.166 F 
ATOM     28  F   UNL     1       6.051   2.643  -1.104  0.00  0.00    -0.166 F 
ENDBRANCH  25  26
ENDBRANCH  21  25
ENDBRANCH  17  24
ENDBRANCH   1  18
TORSDOF 7
