REMARK  Name = ZINC13364904
REMARK  7 active torsions:
REMARK  status: ('A' for Active; 'I' for Inactive)
REMARK    1  A    between atoms: C_2  and  C_3
REMARK    2  A    between atoms: C_3  and  N_4
REMARK    3  A    between atoms: C_10  and  C_33
REMARK    4  A    between atoms: C_14  and  S_15
REMARK    5  A    between atoms: S_15  and  C_16
REMARK    6  A    between atoms: C_16  and  C_17
REMARK    7  A    between atoms: N_22  and  C_23
REMARK                            x       y       z     vdW  Elec       q    Type
REMARK                         _______ _______ _______ _____ _____    ______ ____
ROOT
ATOM      1  C   UNL     1      -1.228   3.834  -4.177  0.00  0.00    +0.173 C 
ENDROOT
BRANCH   1   2
ATOM      2  C   UNL     1      -0.360   5.014  -4.530  0.00  0.00    +0.231 C 
ATOM      3  O   UNL     1       0.375   5.497  -3.696  0.00  0.00    -0.274 OA
ATOM      4  N   UNL     1      -0.400   5.532  -5.774  0.00  0.00    -0.239 N 
ATOM      5  C   UNL     1       0.377   6.587  -6.090  0.00  0.00    +0.306 C 
ATOM      6  O   UNL     1       1.114   7.071  -5.253  0.00  0.00    -0.252 OA
ATOM      7  N   UNL     1       0.337   7.105  -7.334  0.00  0.00    -0.294 N 
ATOM      8  H   UNL     1      -0.988   5.145  -6.442  0.00  0.00    +0.159 HD
ATOM      9  H   UNL     1      -0.251   6.718  -8.001  0.00  0.00    +0.151 HD
BRANCH   7  10
ATOM     10  C   UNL     1       1.181   8.252  -7.677  0.00  0.00    +0.037 C 
ATOM     11  C   UNL     1       0.828   9.434  -6.773  0.00  0.00    +0.029 C 
ATOM     12  C   UNL     1       1.710  10.632  -7.132  0.00  0.00    -0.008 C 
ATOM     13  C   UNL     1       1.474  11.019  -8.593  0.00  0.00    +0.007 C 
ATOM     14  C   UNL     1       1.827   9.837  -9.497  0.00  0.00    -0.008 C 
ATOM     15  C   UNL     1       0.946   8.639  -9.138  0.00  0.00    +0.029 C 
ATOM     16  C   UNL     1       3.298   9.464  -9.299  0.00  0.00    +0.007 C 
ATOM     17  C   UNL     1       3.534   9.077  -7.838  0.00  0.00    -0.008 C 
ATOM     18  C   UNL     1       3.180  10.260  -6.933  0.00  0.00    +0.007 C 
ATOM     19  C   UNL     1       2.652   7.880  -7.479  0.00  0.00    +0.029 C 
ENDBRANCH   7  10
ENDBRANCH   1   2
BRANCH   1  20
ATOM     20  S   UNL     1      -0.949   3.376  -2.448  0.00  0.00    -0.078 S 
BRANCH  20  31
ATOM     21  N   UNL     1      -2.146   1.365  -1.112  0.00  0.00    -0.283 N 
ATOM     22  C   UNL     1      -2.987   0.316  -0.958  0.00  0.00    +0.263 A 
ATOM     23  O   UNL     1      -3.080  -0.267   0.106  0.00  0.00    -0.267 OA
ATOM     24  C   UNL     1      -3.787  -0.092  -2.124  0.00  0.00    +0.065 A 
ATOM     25  C   UNL     1      -4.681  -1.161  -2.060  0.00  0.00    +0.016 A 
ATOM     26  C   UNL     1      -5.404  -1.509  -3.165  0.00  0.00    +0.016 A 
ATOM     27  C   UNL     1      -5.258  -0.802  -4.365  0.00  0.00    +0.065 A 
ATOM     28  C   UNL     1      -4.374   0.266  -4.451  0.00  0.00    +0.043 A 
ATOM     29  C   UNL     1      -3.628   0.632  -3.327  0.00  0.00    +0.080 A 
ATOM     30  N   UNL     1      -2.755   1.666  -3.364  0.00  0.00    -0.223 NA
ATOM     31  C   UNL     1      -2.058   2.013  -2.310  0.00  0.00    +0.173 A 
BRANCH  27  32
ATOM     32  C   UNL     1      -6.052  -1.195  -5.550  0.00  0.00    +0.387 C 
ATOM     33  O   UNL     1      -5.929  -0.585  -6.593  0.00  0.00    -0.241 OA
ATOM     34  O   UNL     1      -6.911  -2.230  -5.473  0.00  0.00    -0.241 OA
ENDBRANCH  27  32
BRANCH  21  35
ATOM     35  C   UNL     1      -1.328   1.812   0.018  0.00  0.00    +0.154 C 
BRANCH  35  37
ATOM     36  C   UNL     1       1.113   1.746   0.001  0.00  0.00    +0.005 C 
ATOM     37  C   UNL     1      -0.013   1.076   0.008  0.00  0.00    -0.013 C 
ENDBRANCH  35  37
ENDBRANCH  21  35
ENDBRANCH  20  31
ENDBRANCH   1  20
TORSDOF 7
