REMARK  Name = ZINC64031612
REMARK  5 active torsions:
REMARK  status: ('A' for Active; 'I' for Inactive)
REMARK    1  A    between atoms: C_1  and  C_2
REMARK    2  A    between atoms: C_2  and  C_3
REMARK    3  A    between atoms: C_6  and  C_9
REMARK    4  A    between atoms: C_24  and  C_26
REMARK    5  A    between atoms: C_26  and  N_27
REMARK                            x       y       z     vdW  Elec       q    Type
REMARK                         _______ _______ _______ _____ _____    ______ ____
ROOT
ATOM      1  C   UNL     1      -5.426  -1.987   0.030  0.00  0.00    +0.133 C 
ATOM      2  C   UNL     1      -6.425  -0.834  -0.118  0.00  0.00    +0.131 C 
ATOM      3  C   UNL     1      -7.785  -1.468  -0.376  0.00  0.00    -0.035 C 
ATOM      4  C   UNL     1      -8.600  -1.003   0.564  0.00  0.00    -0.001 A 
ATOM      5  C   UNL     1     -10.040  -1.198   0.795  0.00  0.00    +0.010 A 
ATOM      6  C   UNL     1     -10.563  -0.570   1.882  0.00  0.00    +0.001 A 
ATOM      7  C   UNL     1      -9.806   0.221   2.752  0.00  0.00    +0.002 A 
ATOM      8  C   UNL     1      -8.477   0.457   2.613  0.00  0.00    +0.026 A 
ATOM      9  C   UNL     1      -7.816  -0.145   1.504  0.00  0.00    +0.043 A 
ATOM     10  N   UNL     1      -6.553  -0.064   1.121  0.00  0.00    -0.375 N 
ATOM     11  C   UNL     1      -8.014  -2.479  -1.473  0.00  0.00    +0.052 C 
ATOM     12  C   UNL     1      -6.923  -3.555  -1.317  0.00  0.00    +0.113 C 
ATOM     13  N   UNL     1      -5.625  -2.906  -1.101  0.00  0.00    -0.290 N 
ATOM     14  C   UNL     1      -4.607  -3.153  -1.949  0.00  0.00    +0.238 C 
ATOM     15  O   UNL     1      -3.503  -2.707  -1.716  0.00  0.00    -0.274 OA
ATOM     16  H   UNL     1      -5.837   0.410   1.571  0.00  0.00    +0.160 HD
ENDROOT
BRANCH   1  20
ATOM     17  C   UNL     1      -1.436  -0.462  -0.036  0.00  0.00    -0.048 A 
ATOM     18  C   UNL     1      -1.747  -1.551   0.757  0.00  0.00    +0.004 A 
ATOM     19  C   UNL     1      -3.038  -2.044   0.779  0.00  0.00    +0.006 A 
ATOM     20  C   UNL     1      -4.018  -1.449   0.007  0.00  0.00    -0.025 A 
ATOM     21  C   UNL     1      -3.708  -0.359  -0.785  0.00  0.00    +0.006 A 
ATOM     22  C   UNL     1      -2.417   0.137  -0.803  0.00  0.00    +0.004 A 
BRANCH  17  24
ATOM     23  C   UNL     1       0.129   1.139   1.029  0.00  0.00    +0.009 C 
ATOM     24  C   UNL     1      -0.028   0.075  -0.059  0.00  0.00    +0.032 C 
ENDBRANCH  17  24
ENDBRANCH   1  20
BRANCH  14  25
ATOM     25  C   UNL     1      -4.839  -3.983  -3.184  0.00  0.00    +0.241 C 
BRANCH  25  26
ATOM     26  N   UNL     1      -3.586  -4.105  -3.934  0.00  0.00    -0.243 N 
ATOM     27  C   UNL     1      -2.987  -5.244  -4.323  0.00  0.00    +0.219 A 
ATOM     28  N   UNL     1      -1.893  -4.928  -4.966  0.00  0.00    -0.223 NA
ATOM     29  C   UNL     1      -1.759  -3.603  -5.008  0.00  0.00    +0.245 A 
ATOM     30  N   UNL     1      -2.775  -3.055  -4.393  0.00  0.00    -0.158 NA
ENDBRANCH  25  26
ENDBRANCH  14  25
TORSDOF 4
