REMARK  Name = ZINC20354770
REMARK  7 active torsions:
REMARK  status: ('A' for Active; 'I' for Inactive)
REMARK    1  A    between atoms: C_1  and  C_2
REMARK    2  A    between atoms: C_2  and  C_3
REMARK    3  A    between atoms: C_3  and  C_5
REMARK    4  A    between atoms: C_3  and  N_6
REMARK    5  A    between atoms: C_7  and  C_9
REMARK    6  A    between atoms: C_9  and  C_10
REMARK    7  A    between atoms: C_13  and  N_16
REMARK                            x       y       z     vdW  Elec       q    Type
REMARK                         _______ _______ _______ _____ _____    ______ ____
ROOT
ATOM      1  C   UNL     1       4.887   0.516   3.623  0.00  0.00    -0.038 A 
ATOM      2  C   UNL     1       4.814   1.698   4.339  0.00  0.00    +0.006 A 
ATOM      3  C   UNL     1       5.336   1.769   5.614  0.00  0.00    +0.028 A 
ATOM      4  C   UNL     1       5.939   0.645   6.182  0.00  0.00    +0.067 A 
ATOM      5  C   UNL     1       6.009  -0.545   5.454  0.00  0.00    +0.028 A 
ATOM      6  C   UNL     1       5.478  -0.604   4.182  0.00  0.00    +0.006 A 
ENDROOT
BRANCH   4   7
ATOM      7  N   UNL     1       6.459   0.709   7.447  0.00  0.00    -0.226 NA
ATOM      8  C   UNL     1       6.224  -0.259   8.304  0.00  0.00    +0.155 C 
ATOM      9  N   UNL     1       6.660  -0.353   9.608  0.00  0.00    -0.318 N 
ATOM     10  C   UNL     1       6.226  -1.486  10.408  0.00  0.00    +0.108 C 
ATOM     11  C   UNL     1       7.308  -1.887  11.428  0.00  0.00    +0.189 C 
ATOM     12  S   UNL     1       8.195  -3.257  10.583  0.00  0.00    -0.028 S 
ATOM     13  O   UNL     1       8.018  -4.453  11.331  0.00  0.00    -0.174 OA
ATOM     14  O   UNL     1       9.509  -2.826  10.256  0.00  0.00    -0.174 OA
ATOM     15  C   UNL     1       7.198  -3.365   9.040  0.00  0.00    +0.182 C 
ATOM     16  C   UNL     1       5.892  -2.700   9.491  0.00  0.00    +0.097 C 
ATOM     17  S   UNL     1       5.259  -1.742   8.040  0.00  0.00    -0.084 S 
ATOM     18  H   UNL     1       7.245   0.323   9.984  0.00  0.00    +0.148 HD
ENDBRANCH   4   7
BRANCH   1  19
ATOM     19  C   UNL     1       4.314   0.445   2.231  0.00  0.00    +0.130 C 
BRANCH  19  21
ATOM     20  N   UNL     1       2.148  -0.104   1.172  0.00  0.00    -0.312 N 
ATOM     21  C   UNL     1       2.869   0.026   2.303  0.00  0.00    +0.218 C 
ATOM     22  O   UNL     1       2.354  -0.193   3.379  0.00  0.00    -0.275 OA
ATOM     23  H   UNL     1       2.559   0.072   0.311  0.00  0.00    +0.149 HD
BRANCH  20  24
ATOM     24  C   UNL     1       0.742  -0.511   1.242  0.00  0.00    +0.070 C 
ATOM     25  C   UNL     1       0.655  -2.037   1.299  0.00  0.00    +0.028 C 
BRANCH  24  27
ATOM     26  C   UNL     1      -0.019   1.526   0.010  0.00  0.00    +0.005 C 
ATOM     27  C   UNL     1       0.002  -0.004   0.002  0.00  0.00    +0.018 C 
ENDBRANCH  24  27
ENDBRANCH  20  24
ENDBRANCH  19  21
ENDBRANCH   1  19
TORSDOF 5
