REMARK  Name = ZINC39964820
REMARK  8 active torsions:
REMARK  status: ('A' for Active; 'I' for Inactive)
REMARK    1  A    between atoms: C_1  and  C_2
REMARK    2  A    between atoms: C_7  and  C_12
REMARK    3  A    between atoms: C_12  and  C_32
REMARK    4  A    between atoms: C_13  and  C_14
REMARK    5  A    between atoms: C_19  and  O_20
REMARK    6  A    between atoms: O_20  and  C_21
REMARK    7  A    between atoms: C_21  and  C_22
REMARK    8  A    between atoms: C_25  and  N_28
REMARK                            x       y       z     vdW  Elec       q    Type
REMARK                         _______ _______ _______ _____ _____    ______ ____
ROOT
ATOM      1  C   UNL     1       0.338  -6.825   2.783  0.00  0.00    +0.019 A 
ATOM      2  C   UNL     1       1.470  -6.024   2.597  0.00  0.00    +0.026 A 
ATOM      3  C   UNL     1       2.722  -6.532   2.869  0.00  0.00    +0.019 A 
ATOM      4  C   UNL     1       2.865  -7.833   3.326  0.00  0.00    +0.019 A 
ATOM      5  C   UNL     1       1.756  -8.635   3.513  0.00  0.00    +0.047 A 
ATOM      6  C   UNL     1       0.488  -8.140   3.251  0.00  0.00    +0.128 A 
ATOM      7 BR   UNL     1       4.252  -5.449   2.618  0.00  0.00    -0.050 Br
ENDROOT
BRANCH   1   9
ATOM      8  C   UNL     1      -1.310  -5.022   2.839  0.00  0.00    +0.072 C 
ATOM      9  C   UNL     1      -1.001  -6.291   2.495  0.00  0.00    +0.030 C 
BRANCH   8  16
ATOM     10  C   UNL     1      -1.634   1.220   5.964  0.00  0.00    +0.044 C 
ATOM     11  C   UNL     1      -1.133   0.081   5.113  0.00  0.00    -0.048 A 
ATOM     12  C   UNL     1      -0.396   0.379   3.953  0.00  0.00    +0.005 A 
ATOM     13  C   UNL     1       0.089  -0.576   3.135  0.00  0.00    +0.027 A 
ATOM     14  C   UNL     1      -0.149  -1.991   3.451  0.00  0.00    +0.060 A 
ATOM     15  N   UNL     1       0.190  -3.100   2.860  0.00  0.00    -0.359 N 
ATOM     16  C   UNL     1      -0.344  -4.208   3.661  0.00  0.00    +0.216 C 
ATOM     17  N   UNL     1      -1.041  -3.598   4.800  0.00  0.00    -0.359 N 
ATOM     18  C   UNL     1      -0.928  -2.306   4.680  0.00  0.00    +0.061 A 
ATOM     19  C   UNL     1      -1.403  -1.182   5.498  0.00  0.00    +0.030 A 
ATOM     20  H   UNL     1       0.702  -3.179   2.039  0.00  0.00    +0.162 HD
ATOM     21  H   UNL     1      -1.500  -4.070   5.512  0.00  0.00    +0.162 HD
ENDBRANCH   8  16
BRANCH   8  22
ATOM     22  C   UNL     1      -2.554  -4.450   2.422  0.00  0.00    +0.099 C 
ATOM     23  N   UNL     1      -3.542  -3.997   2.091  0.00  0.00    -0.191 NA
ENDBRANCH   8  22
ENDBRANCH   1   9
BRANCH   6  24
ATOM     24  O   UNL     1      -0.603  -8.925   3.440  0.00  0.00    -0.487 OA
BRANCH  24  25
ATOM     25  C   UNL     1      -0.373 -10.251   3.918  0.00  0.00    +0.264 C 
BRANCH  25  26
ATOM     26  C   UNL     1      -1.690 -10.968   4.066  0.00  0.00    -0.010 A 
ATOM     27  C   UNL     1      -2.384 -10.900   5.260  0.00  0.00    +0.009 A 
ATOM     28  C   UNL     1      -3.592 -11.557   5.396  0.00  0.00    +0.033 A 
ATOM     29  C   UNL     1      -4.107 -12.282   4.338  0.00  0.00    +0.126 A 
ATOM     30  C   UNL     1      -3.414 -12.349   3.143  0.00  0.00    +0.033 A 
ATOM     31  C   UNL     1      -2.208 -11.688   3.006  0.00  0.00    +0.009 A 
BRANCH  29  32
ATOM     32  N   UNL     1      -5.401 -12.986   4.483  0.00  0.00    +0.056 N 
ATOM     33  O   UNL     1      -6.007 -12.928   5.528  0.00  0.00    -0.126 OA
ATOM     34  O   UNL     1      -5.852 -13.620   3.558  0.00  0.00    -0.126 OA
ENDBRANCH  29  32
ENDBRANCH  25  26
ENDBRANCH  24  25
ENDBRANCH   6  24
TORSDOF 7
