REMARK  Name = ZINC20527646
REMARK  10 active torsions:
REMARK  status: ('A' for Active; 'I' for Inactive)
REMARK    1  A    between atoms: C_1  and  N_2
REMARK    2  A    between atoms: N_2  and  C_3
REMARK    3  A    between atoms: N_2  and  C_4
REMARK    4  A    between atoms: C_7  and  C_10
REMARK    5  A    between atoms: N_11  and  N_12
REMARK    6  A    between atoms: C_16  and  S_19
REMARK    7  A    between atoms: N_17  and  N_18
REMARK    8  A    between atoms: S_19  and  C_20
REMARK    9  A    between atoms: C_20  and  C_21
REMARK   10  A    between atoms: N_23  and  C_24
REMARK                            x       y       z     vdW  Elec       q    Type
REMARK                         _______ _______ _______ _____ _____    ______ ____
ROOT
ATOM      1  N   UNL     1       0.001  -0.004  -0.024  0.00  0.00    -0.204 N 
ATOM      2  C   UNL     1      -0.018   1.383  -0.013  0.00  0.00    +0.254 A 
ATOM      3  N   UNL     1      -1.089   2.140  -0.010  0.00  0.00    -0.109 NA
ATOM      4  N   UNL     1      -0.673   3.478   0.004  0.00  0.00    -0.119 NA
ATOM      5  C   UNL     1       0.638   3.495   0.001  0.00  0.00    +0.210 A 
ATOM      6  N   UNL     1       1.078   2.202  -0.009  0.00  0.00    -0.211 N 
ATOM      7  H   UNL     1       0.961  -0.541  -0.031  0.00  0.00    +0.177 HD
ENDROOT
BRANCH   6   8
ATOM      8  N   UNL     1       2.382   1.797  -0.015  0.00  0.00    -0.294 N 
ATOM      9  H   UNL     1       3.190   2.544  -0.011  0.00  0.00    +0.163 HD
ATOM     10  H   UNL     1       2.625   0.724  -0.023  0.00  0.00    +0.163 HD
ENDBRANCH   6   8
BRANCH   1  12
ATOM     11  C   UNL     1      -1.185  -2.019  -0.037  0.00  0.00    +0.138 C 
ATOM     12  N   UNL     1      -1.203  -0.721  -0.027  0.00  0.00    -0.188 NA
BRANCH  11  16
ATOM     13  C   UNL     1      -4.833  -4.191  -0.045  0.00  0.00    +0.029 A 
ATOM     14  C   UNL     1      -3.621  -4.872  -0.054  0.00  0.00    +0.024 A 
ATOM     15  C   UNL     1      -2.435  -4.171  -0.051  0.00  0.00    +0.011 A 
ATOM     16  C   UNL     1      -2.452  -2.773  -0.040  0.00  0.00    -0.005 A 
ATOM     17  C   UNL     1      -3.672  -2.093  -0.026  0.00  0.00    +0.011 A 
ATOM     18  C   UNL     1      -4.854  -2.801  -0.033  0.00  0.00    +0.024 A 
BRANCH  13  20
ATOM     19  C   UNL     1      -6.013  -6.370  -0.059  0.00  0.00    +0.129 C 
ATOM     20  N   UNL     1      -6.033  -4.905  -0.047  0.00  0.00    -0.336 N 
ATOM     21  C   UNL     1      -7.311  -4.190  -0.037  0.00  0.00    +0.129 C 
ENDBRANCH  13  20
ENDBRANCH  11  16
ENDBRANCH   1  12
BRANCH   5  22
ATOM     22  S   UNL     1       1.655   4.934   0.010  0.00  0.00    -0.075 S 
BRANCH  22  23
ATOM     23  C   UNL     1       0.470   6.308   0.023  0.00  0.00    +0.173 C 
BRANCH  23  24
ATOM     24  C   UNL     1       1.218   7.616   0.031  0.00  0.00    +0.227 C 
ATOM     25  O   UNL     1       2.431   7.621   0.029  0.00  0.00    -0.275 OA
ATOM     26  N   UNL     1       0.539   8.781   0.041  0.00  0.00    -0.285 N 
ATOM     27  H   UNL     1      -0.558   8.778  -0.034  0.00  0.00    +0.155 HD
BRANCH  26  28
ATOM     28  C   UNL     1       1.231   9.993   0.147  0.00  0.00    +0.034 A 
ATOM     29  C   UNL     1       0.673  11.054   0.849  0.00  0.00    +0.026 A 
ATOM     30  C   UNL     1       1.360  12.247   0.956  0.00  0.00    +0.040 A 
ATOM     31  C   UNL     1       2.599  12.391   0.356  0.00  0.00    +0.124 A 
ATOM     32  C   UNL     1       3.155  11.337  -0.349  0.00  0.00    +0.040 A 
ATOM     33  C   UNL     1       2.474  10.139  -0.455  0.00  0.00    +0.026 A 
ATOM     34  F   UNL     1       3.267  13.561   0.458  0.00  0.00    -0.205 F 
ENDBRANCH  26  28
ENDBRANCH  23  24
ENDBRANCH  22  23
ENDBRANCH   5  22
TORSDOF 8
