REMARK  Name = ZINC37376683
REMARK  7 active torsions:
REMARK  status: ('A' for Active; 'I' for Inactive)
REMARK    1  A    between atoms: C_1  and  C_2
REMARK    2  A    between atoms: C_2  and  C_3
REMARK    3  A    between atoms: C_2  and  C_4
REMARK    4  A    between atoms: C_7  and  C_10
REMARK    5  A    between atoms: C_12  and  N_26
REMARK    6  A    between atoms: N_13  and  C_25
REMARK    7  A    between atoms: N_19  and  C_20
REMARK                            x       y       z     vdW  Elec       q    Type
REMARK                         _______ _______ _______ _____ _____    ______ ____
ROOT
ATOM      1  C   UNL     1      -5.633  -1.443   0.081  0.00  0.00    +0.089 A 
ATOM      2  C   UNL     1      -6.263  -1.808  -1.129  0.00  0.00    +0.086 A 
ATOM      3  C   UNL     1      -5.947  -1.728  -2.480  0.00  0.00    +0.126 A 
ATOM      4  N   UNL     1      -6.974  -2.256  -3.168  0.00  0.00    -0.251 N 
ATOM      5  N   UNL     1      -7.970  -2.686  -2.284  0.00  0.00    -0.149 NA
ATOM      6  C   UNL     1      -7.592  -2.441  -1.049  0.00  0.00    +0.188 A 
ATOM      7  N   UNL     1      -8.126  -2.632   0.173  0.00  0.00    -0.193 NA
ATOM      8  C   UNL     1      -7.468  -2.260   1.251  0.00  0.00    +0.218 A 
ATOM      9  N   UNL     1      -6.266  -1.693   1.220  0.00  0.00    -0.214 NA
ATOM     10  N   UNL     1      -8.056  -2.478   2.484  0.00  0.00    -0.311 N 
ATOM     11  C   UNL     1      -7.042  -2.364  -4.628  0.00  0.00    +0.174 C 
ATOM     12  H   UNL     1      -7.594  -2.214   3.295  0.00  0.00    +0.149 HD
ENDROOT
BRANCH   1  16
ATOM     13  C   UNL     1      -1.799   0.392   0.075  0.00  0.00    -0.045 A 
ATOM     14  C   UNL     1      -2.068  -0.638   0.958  0.00  0.00    +0.004 A 
ATOM     15  C   UNL     1      -3.311  -1.238   0.965  0.00  0.00    +0.010 A 
ATOM     16  C   UNL     1      -4.297  -0.803   0.079  0.00  0.00    +0.001 A 
ATOM     17  C   UNL     1      -4.019   0.236  -0.809  0.00  0.00    +0.010 A 
ATOM     18  C   UNL     1      -2.775   0.831  -0.803  0.00  0.00    +0.004 A 
BRANCH  13  20
ATOM     19  C   UNL     1      -0.161   1.645   1.450  0.00  0.00    +0.012 C 
ATOM     20  C   UNL     1      -0.440   1.042   0.072  0.00  0.00    +0.013 C 
ATOM     21  C   UNL     1       0.626  -0.006  -0.251  0.00  0.00    +0.012 C 
ENDBRANCH  13  20
ENDBRANCH   1  16
BRANCH  10  22
ATOM     22  C   UNL     1      -9.377  -3.106   2.565  0.00  0.00    +0.073 C 
ATOM     23  C   UNL     1     -10.480  -2.031   2.471  0.00  0.00    +0.022 C 
ATOM     24  C   UNL     1     -11.577  -2.527   3.446  0.00  0.00    +0.002 C 
ATOM     25  C   UNL     1     -10.753  -3.116   4.617  0.00  0.00    +0.002 C 
ATOM     26  C   UNL     1      -9.551  -3.796   3.929  0.00  0.00    +0.022 C 
ENDBRANCH  10  22
BRANCH   3  27
ATOM     27  N   UNL     1      -4.788  -1.201  -3.019  0.00  0.00    -0.343 N 
ATOM     28  H   UNL     1      -4.000  -1.094  -2.463  0.00  0.00    +0.144 HD
ATOM     29  H   UNL     1      -4.763  -0.938  -3.952  0.00  0.00    +0.144 HD
ENDBRANCH   3  27
TORSDOF 4
