REMARK  Name = ZINC52904351
REMARK  6 active torsions:
REMARK  status: ('A' for Active; 'I' for Inactive)
REMARK    1  A    between atoms: C_1  and  C_2
REMARK    2  A    between atoms: N_4  and  C_5
REMARK    3  A    between atoms: C_9  and  N_11
REMARK    4  A    between atoms: N_11  and  C_12
REMARK    5  A    between atoms: C_17  and  C_18
REMARK    6  A    between atoms: C_18  and  N_20
REMARK                            x       y       z     vdW  Elec       q    Type
REMARK                         _______ _______ _______ _____ _____    ______ ____
ROOT
ATOM      1  N   UNL     1      -0.208  -4.948  -3.649  0.00  0.00    -0.314 N 
ATOM      2  H   UNL     1      -0.272  -4.553  -4.533  0.00  0.00    +0.152 HD
ENDROOT
BRANCH   1   3
ATOM      3  C   UNL     1      -0.340  -6.323  -3.490  0.00  0.00    +0.042 A 
ATOM      4  C   UNL     1       0.689  -7.172  -3.877  0.00  0.00    +0.024 A 
ATOM      5  C   UNL     1       0.557  -8.537  -3.718  0.00  0.00    +0.003 A 
ATOM      6  C   UNL     1      -0.600  -9.071  -3.174  0.00  0.00    +0.021 A 
ATOM      7  C   UNL     1      -1.633  -8.245  -2.784  0.00  0.00    +0.052 A 
ATOM      8  C   UNL     1      -1.512  -6.859  -2.934  0.00  0.00    +0.042 A 
ATOM      9 CL   UNL     1      -3.079  -8.923  -2.104  0.00  0.00    -0.083 Cl
BRANCH   8  10
ATOM     10  C   UNL     1      -2.608  -5.970  -2.515  0.00  0.00    +0.080 C 
ATOM     11  S   UNL     1      -3.832  -5.537  -3.630  0.00  0.00    -0.035 S 
BRANCH  10  12
ATOM     12  N   UNL     1      -2.647  -5.498  -1.253  0.00  0.00    -0.352 N 
ATOM     13  H   UNL     1      -1.916  -5.682  -0.643  0.00  0.00    +0.143 HD
ATOM     14  H   UNL     1      -3.407  -4.973  -0.956  0.00  0.00    +0.143 HD
ENDBRANCH  10  12
ENDBRANCH   8  10
ENDBRANCH   1   3
BRANCH   1  19
ATOM     15  C   UNL     1       0.180  -1.950  -1.552  0.00  0.00    +0.035 A 
ATOM     16  C   UNL     1       0.465  -2.529  -0.321  0.00  0.00    +0.023 A 
ATOM     17  C   UNL     1       0.525  -3.904  -0.200  0.00  0.00    +0.004 A 
ATOM     18  C   UNL     1       0.303  -4.707  -1.302  0.00  0.00    +0.023 A 
ATOM     19  C   UNL     1       0.017  -4.135  -2.535  0.00  0.00    +0.033 A 
ATOM     20  C   UNL     1      -0.050  -2.753  -2.659  0.00  0.00    +0.046 A 
BRANCH  15  24
ATOM     21  C   UNL     1      -0.909   1.508  -2.565  0.00  0.00    +0.109 C 
ATOM     22  C   UNL     1      -0.771   0.008  -2.511  0.00  0.00    +0.214 C 
ATOM     23  O   UNL     1      -1.463  -0.690  -3.221  0.00  0.00    -0.276 OA
ATOM     24  N   UNL     1       0.120  -0.557  -1.673  0.00  0.00    -0.286 N 
ATOM     25  H   UNL     1       0.720   0.002  -1.154  0.00  0.00    +0.155 HD
ENDBRANCH  15  24
ENDBRANCH   1  19
TORSDOF 5
