REMARK  Name = ZINC64329316
REMARK  10 active torsions:
REMARK  status: ('A' for Active; 'I' for Inactive)
REMARK    1  A    between atoms: C_1  and  C_2
REMARK    2  A    between atoms: C_2  and  N_3
REMARK    3  A    between atoms: N_3  and  C_4
REMARK    4  A    between atoms: N_3  and  S_12
REMARK    5  A    between atoms: C_4  and  C_5
REMARK    6  A    between atoms: C_5  and  C_7
REMARK    7  A    between atoms: C_5  and  C_8
REMARK    8  A    between atoms: C_8  and  O_10
REMARK    9  A    between atoms: O_10  and  C_11
REMARK   10  A    between atoms: S_12  and  C_15
REMARK                            x       y       z     vdW  Elec       q    Type
REMARK                         _______ _______ _______ _____ _____    ______ ____
ROOT
ATOM      1  S   UNL     1      -2.092  -0.923   1.446  0.00  0.00    +0.061 S 
ATOM      2  O   UNL     1      -3.116  -1.857   1.133  0.00  0.00    -0.153 OA
ATOM      3  O   UNL     1      -1.043  -1.219   2.357  0.00  0.00    -0.153 OA
ENDROOT
BRANCH   1   4
ATOM      4  C   UNL     1      -2.898   0.520   2.058  0.00  0.00    +0.107 A 
ATOM      5  C   UNL     1      -2.158   1.429   2.925  0.00  0.00    +0.030 A 
ATOM      6  C   UNL     1      -2.715   2.552   3.427  0.00  0.00    +0.027 A 
ATOM      7  C   UNL     1      -4.101   2.878   3.099  0.00  0.00    +0.056 A 
ATOM      8  N   UNL     1      -4.919   3.853   3.407  0.00  0.00    -0.268 N 
ATOM      9  C   UNL     1      -6.125   3.619   2.791  0.00  0.00    +0.308 C 
ATOM     10  O   UNL     1      -7.100   4.336   2.872  0.00  0.00    -0.252 OA
ATOM     11  N   UNL     1      -6.061   2.451   2.068  0.00  0.00    -0.267 N 
ATOM     12  C   UNL     1      -4.862   1.944   2.208  0.00  0.00    +0.058 A 
ATOM     13  C   UNL     1      -4.180   0.754   1.704  0.00  0.00    +0.053 A 
ATOM     14  H   UNL     1      -6.781   2.067   1.544  0.00  0.00    +0.156 HD
ATOM     15  H   UNL     1      -4.709   4.612   3.974  0.00  0.00    +0.156 HD
ENDBRANCH   1   4
BRANCH   1  16
ATOM     16  N   UNL     1      -1.372  -0.511   0.012  0.00  0.00    -0.176 NA
BRANCH  16  18
ATOM     17  C   UNL     1      -0.019   1.526   0.010  0.00  0.00    +0.022 C 
ATOM     18  C   UNL     1       0.002  -0.004   0.002  0.00  0.00    +0.106 C 
ENDBRANCH  16  18
BRANCH  16  19
ATOM     19  C   UNL     1      -2.110  -0.654  -1.245  0.00  0.00    +0.123 C 
BRANCH  19  20
ATOM     20  C   UNL     1      -1.773  -2.003  -1.884  0.00  0.00    +0.110 C 
ATOM     21  C   UNL     1      -2.280  -3.133  -0.986  0.00  0.00    +0.020 C 
BRANCH  20  22
ATOM     22  C   UNL     1      -2.434  -2.099  -3.234  0.00  0.00    +0.311 C 
ATOM     23  O   UNL     1      -3.106  -1.182  -3.644  0.00  0.00    -0.251 OA
BRANCH  22  24
ATOM     24  O   UNL     1      -2.276  -3.203  -3.982  0.00  0.00    -0.468 OA
ATOM     25  C   UNL     1      -2.932  -3.225  -5.252  0.00  0.00    +0.280 C 
ENDBRANCH  22  24
ENDBRANCH  20  22
ENDBRANCH  19  20
ENDBRANCH  16  19
ENDBRANCH   1  16
TORSDOF 7
