REMARK  Name = ZINC04909391
REMARK  7 active torsions:
REMARK  status: ('A' for Active; 'I' for Inactive)
REMARK    1  A    between atoms: C_1  and  C_2
REMARK    2  A    between atoms: C_8  and  N_10
REMARK    3  A    between atoms: C_11  and  C_13
REMARK    4  A    between atoms: C_13  and  N_60
REMARK    5  A    between atoms: C_16  and  N_19
REMARK    6  A    between atoms: C_20  and  C_22
REMARK    7  A    between atoms: C_22  and  C_23
REMARK                            x       y       z     vdW  Elec       q    Type
REMARK                         _______ _______ _______ _____ _____    ______ ____
ROOT
ATOM      1  C   UNL     1       7.434  -2.117  -4.770  0.00  0.00    -0.076 C 
ATOM      2  C   UNL     1       7.038  -1.762  -3.334  0.00  0.00    +0.003 C 
ATOM      3  C   UNL     1       5.518  -1.870  -3.187  0.00  0.00    +0.069 C 
ATOM      4  C   UNL     1       5.075  -3.288  -3.561  0.00  0.00    +0.003 C 
ATOM      5  C   UNL     1       5.529  -3.599  -4.989  0.00  0.00    -0.076 C 
ATOM      6  N   UNL     1       7.002  -3.501  -5.058  0.00  0.00    +0.385 N 
ATOM      7  H   UNL     1       7.411  -4.130  -4.357  0.00  0.00    -0.081 HD
ENDROOT
BRANCH   3   8
ATOM      8  N   UNL     1       5.139  -1.589  -1.800  0.00  0.00    -0.312 N 
ATOM      9  C   UNL     1       3.902  -1.134  -1.519  0.00  0.00    +0.218 C 
ATOM     10  O   UNL     1       3.103  -0.958  -2.413  0.00  0.00    -0.275 OA
ATOM     11  H   UNL     1       5.779  -1.729  -1.085  0.00  0.00    +0.149 HD
BRANCH   9  12
ATOM     12  C   UNL     1       3.513  -0.844  -0.092  0.00  0.00    +0.130 C 
BRANCH  12  13
ATOM     13  C   UNL     1       2.089  -0.351  -0.050  0.00  0.00    -0.039 A 
ATOM     14  C   UNL     1       1.050  -1.252   0.092  0.00  0.00    +0.004 A 
ATOM     15  C   UNL     1      -0.256  -0.800   0.131  0.00  0.00    +0.000 A 
ATOM     16  C   UNL     1      -0.523   0.552   0.026  0.00  0.00    +0.000 A 
ATOM     17  C   UNL     1       0.516   1.452  -0.116  0.00  0.00    +0.000 A 
ATOM     18  C   UNL     1       1.822   1.001  -0.154  0.00  0.00    +0.004 A 
ENDBRANCH  12  13
ENDBRANCH   9  12
ENDBRANCH   3   8
BRANCH   6  19
ATOM     19  C   UNL     1       7.472  -3.908  -6.398  0.00  0.00    +0.019 C 
BRANCH  19  21
ATOM     20  N   UNL     1       9.652  -4.279  -7.508  0.00  0.00    -0.314 N 
ATOM     21  C   UNL     1       8.975  -4.024  -6.371  0.00  0.00    +0.197 C 
ATOM     22  O   UNL     1       9.574  -3.889  -5.325  0.00  0.00    -0.278 OA
ATOM     23  H   UNL     1       9.172  -4.387  -8.344  0.00  0.00    +0.149 HD
BRANCH  20  30
ATOM     24  C   UNL     1      10.956  -6.650  -8.539  0.00  0.00    +0.009 C 
ATOM     25  C   UNL     1      11.578  -5.257  -8.654  0.00  0.00    +0.006 C 
ATOM     26  C   UNL     1      13.104  -5.375  -8.625  0.00  0.00    +0.005 C 
ATOM     27  C   UNL     1      13.726  -3.982  -8.740  0.00  0.00    +0.000 C 
ATOM     28  C   UNL     1      13.259  -3.118  -7.567  0.00  0.00    +0.002 C 
ATOM     29  C   UNL     1      11.734  -2.999  -7.595  0.00  0.00    +0.022 C 
ATOM     30  C   UNL     1      11.112  -4.392  -7.481  0.00  0.00    +0.076 C 
ENDBRANCH  20  30
ENDBRANCH  19  21
ENDBRANCH   6  19
TORSDOF 6
