REMARK  Name = ZINC16571226
REMARK  8 active torsions:
REMARK  status: ('A' for Active; 'I' for Inactive)
REMARK    1  A    between atoms: C_1  and  C_2
REMARK    2  A    between atoms: C_2  and  C_3
REMARK    3  A    between atoms: N_6  and  C_9
REMARK    4  A    between atoms: C_10  and  C_23
REMARK    5  A    between atoms: N_13  and  C_16
REMARK    6  A    between atoms: C_24  and  C_36
REMARK    7  A    between atoms: N_26  and  C_29
REMARK    8  A    between atoms: C_27  and  O_28
REMARK                            x       y       z     vdW  Elec       q    Type
REMARK                         _______ _______ _______ _____ _____    ______ ____
ROOT
ATOM      1  C   UNL     1      -1.225   2.053   0.018  0.00  0.00    +0.122 C 
ATOM      2  C   UNL     1      -0.782   3.367   0.028  0.00  0.00    +0.080 C 
ATOM      3  C   UNL     1       0.700   3.301   0.013  0.00  0.00    +0.260 C 
ATOM      4  O   UNL     1       1.454   4.253   0.011  0.00  0.00    -0.269 OA
ATOM      5  N   UNL     1       1.067   2.008   0.003  0.00  0.00    -0.201 N 
ATOM      6  C   UNL     1      -0.014   1.211   0.009  0.00  0.00    +0.275 C 
ATOM      7  O   UNL     1       0.002  -0.004   0.002  0.00  0.00    -0.268 OA
ENDROOT
BRANCH   5   8
ATOM      8  C   UNL     1       2.394   1.554  -0.013  0.00  0.00    +0.045 A 
ATOM      9  C   UNL     1       3.441   2.466  -0.024  0.00  0.00    +0.027 A 
ATOM     10  C   UNL     1       4.747   2.017  -0.034  0.00  0.00    +0.040 A 
ATOM     11  C   UNL     1       5.013   0.658  -0.043  0.00  0.00    +0.124 A 
ATOM     12  C   UNL     1       3.970  -0.253  -0.037  0.00  0.00    +0.040 A 
ATOM     13  C   UNL     1       2.663   0.192  -0.022  0.00  0.00    +0.027 A 
ATOM     14  F   UNL     1       6.291   0.221  -0.059  0.00  0.00    -0.205 F 
ENDBRANCH   5   8
BRANCH   1  18
ATOM     15  C   UNL     1      -5.125   0.763   0.028  0.00  0.00    -0.045 A 
ATOM     16  C   UNL     1      -4.298   0.512  -1.059  0.00  0.00    +0.021 A 
ATOM     17  C   UNL     1      -2.994   0.959  -1.030  0.00  0.00    +0.091 A 
ATOM     18  N   UNL     1      -2.528   1.622   0.021  0.00  0.00    -0.318 N 
ATOM     19  C   UNL     1      -3.291   1.873   1.078  0.00  0.00    +0.091 A 
ATOM     20  C   UNL     1      -4.606   1.459   1.111  0.00  0.00    +0.021 A 
BRANCH  15  22
ATOM     21  C   UNL     1      -6.628  -1.114   0.633  0.00  0.00    +0.009 C 
ATOM     22  C   UNL     1      -6.556   0.290   0.031  0.00  0.00    +0.032 C 
ENDBRANCH  15  22
ENDBRANCH   1  18
BRANCH   2  23
ATOM     23  C   UNL     1      -1.613   4.580   0.042  0.00  0.00    +0.073 A 
ATOM     24  C   UNL     1      -2.094   5.284  -1.087  0.00  0.00    +0.072 A 
ATOM     25  N   UNL     1      -2.795   6.300  -0.665  0.00  0.00    -0.168 NA
ATOM     26  N   UNL     1      -2.795   6.311   0.734  0.00  0.00    -0.200 N 
ATOM     27  C   UNL     1      -2.071   5.258   1.170  0.00  0.00    +0.224 A 
ATOM     28  C   UNL     1      -1.844   4.920  -2.527  0.00  0.00    +0.068 C 
BRANCH  26  29
ATOM     29  C   UNL     1      -3.438   7.257   1.545  0.00  0.00    +0.069 A 
ATOM     30  C   UNL     1      -4.005   6.867   2.751  0.00  0.00    +0.031 A 
ATOM     31  C   UNL     1      -4.633   7.801   3.551  0.00  0.00    +0.040 A 
ATOM     32  C   UNL     1      -4.707   9.123   3.147  0.00  0.00    +0.124 A 
ATOM     33  C   UNL     1      -4.147   9.513   1.942  0.00  0.00    +0.040 A 
ATOM     34  C   UNL     1      -3.514   8.583   1.141  0.00  0.00    +0.031 A 
ATOM     35  F   UNL     1      -5.327  10.034   3.929  0.00  0.00    -0.205 F 
ENDBRANCH  26  29
BRANCH  27  36
ATOM     36  O   UNL     1      -1.834   4.924   2.461  0.00  0.00    -0.492 OA
ATOM     37  H   UNL     1      -1.037   5.327   2.831  0.00  0.00    +0.294 HD
ENDBRANCH  27  36
ENDBRANCH   2  23
TORSDOF 6
