REMARK  Name = ZINC42159643
REMARK  12 active torsions:
REMARK  status: ('A' for Active; 'I' for Inactive)
REMARK    1  A    between atoms: C_1  and  C_2
REMARK    2  A    between atoms: C_5  and  C_27
REMARK    3  A    between atoms: C_6  and  S_8
REMARK    4  A    between atoms: S_8  and  N_11
REMARK    5  A    between atoms: N_11  and  C_12
REMARK    6  A    between atoms: C_12  and  C_13
REMARK    7  A    between atoms: C_13  and  C_14
REMARK    8  A    between atoms: N_16  and  C_17
REMARK    9  A    between atoms: C_17  and  C_18
REMARK   10  A    between atoms: C_18  and  C_19
REMARK   11  A    between atoms: C_18  and  C_20
REMARK   12  A    between atoms: C_18  and  N_21
REMARK                            x       y       z     vdW  Elec       q    Type
REMARK                         _______ _______ _______ _____ _____    ______ ____
ROOT
ATOM      1  C   UNL     1      -4.198  -4.936   1.322  0.00  0.00    +0.112 C 
ENDROOT
BRANCH   1   2
ATOM      2  C   UNL     1      -3.908  -6.114   0.428  0.00  0.00    +0.214 C 
ATOM      3  O   UNL     1      -2.915  -6.117  -0.267  0.00  0.00    -0.276 OA
ATOM      4  N   UNL     1      -4.753  -7.164   0.402  0.00  0.00    -0.317 N 
ATOM      5  H   UNL     1      -5.548  -7.161   0.958  0.00  0.00    +0.149 HD
BRANCH   4   6
ATOM      6  C   UNL     1      -4.471  -8.309  -0.467  0.00  0.00    +0.092 C 
BRANCH   6   7
ATOM      7  C   UNL     1      -5.634  -9.301  -0.396  0.00  0.00    -0.055 C 
ATOM      8  C   UNL     1      -6.922  -8.611  -0.849  0.00  0.00    -0.008 C 
ATOM      9  C   UNL     1      -5.344 -10.493  -1.311  0.00  0.00    -0.008 C 
BRANCH   7  10
ATOM     10  N   UNL     1      -5.791  -9.773   0.986  0.00  0.00    +0.384 N 
ATOM     11  C   UNL     1      -4.585 -10.505   1.392  0.00  0.00    -0.078 C 
ATOM     12  C   UNL     1      -4.710 -10.929   2.857  0.00  0.00    -0.019 C 
ATOM     13  C   UNL     1      -5.936 -11.832   3.019  0.00  0.00    -0.004 C 
ATOM     14  C   UNL     1      -7.178 -11.084   2.523  0.00  0.00    -0.019 C 
ATOM     15  C   UNL     1      -6.961 -10.655   1.071  0.00  0.00    -0.078 C 
ATOM     16  H   UNL     1      -5.923  -8.981   1.598  0.00  0.00    -0.081 HD
ENDBRANCH   7  10
ENDBRANCH   6   7
ENDBRANCH   4   6
ENDBRANCH   1   2
BRANCH   1  17
ATOM     17  C   UNL     1      -3.092  -3.890   1.163  0.00  0.00    +0.115 C 
BRANCH  17  18
ATOM     18  N   UNL     1      -3.374  -2.745   2.032  0.00  0.00    -0.189 NA
ATOM     19  H   UNL     1      -4.256  -2.638   2.422  0.00  0.00    +0.148 HD
BRANCH  18  20
ATOM     20  S   UNL     1      -2.188  -1.634   2.348  0.00  0.00    +0.059 S 
ATOM     21  O   UNL     1      -1.030  -2.369   2.717  0.00  0.00    -0.153 OA
ATOM     22  O   UNL     1      -2.768  -0.650   3.194  0.00  0.00    -0.153 OA
BRANCH  20  28
ATOM     23  C   UNL     1       1.133  -0.431  -1.505  0.00  0.00    +0.044 C 
ATOM     24  C   UNL     1      -0.246  -0.309  -0.911  0.00  0.00    -0.049 A 
ATOM     25  C   UNL     1      -1.215   0.434  -1.560  0.00  0.00    +0.004 A 
ATOM     26  C   UNL     1      -2.480   0.546  -1.015  0.00  0.00    +0.005 A 
ATOM     27  C   UNL     1      -2.777  -0.086   0.178  0.00  0.00    -0.024 A 
ATOM     28  C   UNL     1      -1.809  -0.829   0.827  0.00  0.00    +0.108 A 
ATOM     29  C   UNL     1      -0.545  -0.945   0.279  0.00  0.00    +0.032 A 
ATOM     30  C   UNL     1      -4.157   0.037   0.773  0.00  0.00    +0.046 C 
ENDBRANCH  20  28
ENDBRANCH  18  20
ENDBRANCH  17  18
ENDBRANCH   1  17
TORSDOF 8
