REMARK  Name = ZINC09988506
REMARK  13 active torsions:
REMARK  status: ('A' for Active; 'I' for Inactive)
REMARK    1  A    between atoms: C_1  and  C_2
REMARK    2  A    between atoms: C_2  and  C_3
REMARK    3  A    between atoms: C_3  and  C_5
REMARK    4  A    between atoms: C_3  and  N_61
REMARK    5  A    between atoms: C_8  and  S_17
REMARK    6  A    between atoms: N_9  and  C_10
REMARK    7  A    between atoms: C_10  and  C_11
REMARK    8  A    between atoms: S_17  and  C_18
REMARK    9  A    between atoms: C_18  and  C_19
REMARK   10  A    between atoms: C_19  and  C_21
REMARK   11  A    between atoms: C_21  and  C_31
REMARK   12  A    between atoms: C_33  and  N_61
REMARK   13  A    between atoms: C_34  and  N_61
REMARK                            x       y       z     vdW  Elec       q    Type
REMARK                         _______ _______ _______ _____ _____    ______ ____
ROOT
ATOM      1  C   UNL     1      -0.472   3.427  -1.406  0.00  0.00    +0.121 A 
ATOM      2  N   UNL     1      -0.618   4.343  -0.490  0.00  0.00    -0.135 NA
ATOM      3  N   UNL     1      -0.366   5.503  -0.982  0.00  0.00    -0.123 NA
ATOM      4  C   UNL     1      -0.042   5.389  -2.249  0.00  0.00    +0.192 A 
ATOM      5  N   UNL     1      -0.094   4.061  -2.558  0.00  0.00    -0.303 N 
ENDROOT
BRANCH   1   6
ATOM      6  C   UNL     1      -0.674   1.945  -1.227  0.00  0.00    +0.000 C 
BRANCH   6   9
ATOM      7  C   UNL     1       1.414   1.766  -0.015  0.00  0.00    -0.096 C 
ATOM      8  C   UNL     1      -0.653   2.156   1.185  0.00  0.00    -0.096 C 
ATOM      9  N   UNL     1      -0.036   1.482   0.023  0.00  0.00    +0.383 N 
ATOM     10  H   UNL     1      -0.175   0.468   0.113  0.00  0.00    -0.082 HD
ENDBRANCH   6   9
BRANCH   6  12
ATOM     11  C   UNL     1      -2.379   0.127  -1.052  0.00  0.00    +0.002 C 
ATOM     12  C   UNL     1      -2.172   1.639  -1.163  0.00  0.00    -0.011 C 
ENDBRANCH   6  12
ENDBRANCH   1   6
BRANCH   5  13
ATOM     13  C   UNL     1       0.191   3.442  -3.854  0.00  0.00    +0.160 C 
BRANCH  13  14
ATOM     14  C   UNL     1      -1.075   3.372  -4.668  0.00  0.00    -0.028 A 
ATOM     15  C   UNL     1      -1.891   2.259  -4.583  0.00  0.00    +0.005 A 
ATOM     16  C   UNL     1      -3.055   2.197  -5.325  0.00  0.00    +0.000 A 
ATOM     17  C   UNL     1      -3.399   3.244  -6.161  0.00  0.00    +0.000 A 
ATOM     18  C   UNL     1      -2.581   4.354  -6.250  0.00  0.00    +0.000 A 
ATOM     19  C   UNL     1      -1.419   4.418  -5.503  0.00  0.00    +0.005 A 
ENDBRANCH  13  14
ENDBRANCH   5  13
BRANCH   4  20
ATOM     20  S   UNL     1       0.386   6.703  -3.343  0.00  0.00    -0.078 S 
BRANCH  20  21
ATOM     21  C   UNL     1       0.235   8.112  -2.216  0.00  0.00    +0.157 C 
BRANCH  21  22
ATOM     22  C   UNL     1       0.564   9.383  -2.955  0.00  0.00    +0.187 C 
ATOM     23  O   UNL     1       0.872   9.341  -4.130  0.00  0.00    -0.290 OA
BRANCH  22  24
ATOM     24  C   UNL     1       0.516  10.618  -2.286  0.00  0.00    +0.131 C 
ATOM     25  C   UNL     1       0.823  11.804  -2.975  0.00  0.00    +0.114 C 
ATOM     26  N   UNL     1       1.185  11.883  -4.282  0.00  0.00    -0.300 N 
ATOM     27  C   UNL     1       1.403  13.220  -4.594  0.00  0.00    +0.054 A 
ATOM     28  C   UNL     1       1.781  13.873  -5.759  0.00  0.00    +0.025 A 
ATOM     29  C   UNL     1       1.927  15.245  -5.763  0.00  0.00    +0.002 A 
ATOM     30  C   UNL     1       1.696  15.975  -4.609  0.00  0.00    +0.002 A 
ATOM     31  C   UNL     1       1.320  15.337  -3.445  0.00  0.00    +0.025 A 
ATOM     32  C   UNL     1       1.171  13.957  -3.430  0.00  0.00    +0.054 A 
ATOM     33  N   UNL     1       0.811  13.052  -2.438  0.00  0.00    -0.300 N 
ATOM     34  H   UNL     1       1.273  11.136  -4.893  0.00  0.00    +0.153 HD
ATOM     35  H   UNL     1       0.590  13.273  -1.520  0.00  0.00    +0.153 HD
BRANCH  24  36
ATOM     36  C   UNL     1       0.153  10.667  -0.901  0.00  0.00    +0.106 C 
ATOM     37  N   UNL     1      -0.134  10.707   0.197  0.00  0.00    -0.191 NA
ENDBRANCH  24  36
ENDBRANCH  22  24
ENDBRANCH  21  22
ENDBRANCH  20  21
ENDBRANCH   4  20
TORSDOF 10
