REMARK  Name = ZINC06014955
REMARK  11 active torsions:
REMARK  status: ('A' for Active; 'I' for Inactive)
REMARK    1  A    between atoms: C_1  and  C_2
REMARK    2  A    between atoms: C_2  and  C_3
REMARK    3  A    between atoms: C_2  and  C_4
REMARK    4  A    between atoms: C_2  and  N_5
REMARK    5  A    between atoms: C_6  and  C_10
REMARK    6  A    between atoms: C_10  and  C_12
REMARK    7  A    between atoms: C_10  and  N_66
REMARK    8  A    between atoms: C_27  and  C_28
REMARK    9  A    between atoms: C_27  and  N_66
REMARK   10  A    between atoms: C_34  and  C_35
REMARK   11  A    between atoms: C_34  and  N_66
REMARK                            x       y       z     vdW  Elec       q    Type
REMARK                         _______ _______ _______ _____ _____    ______ ____
ROOT
ATOM      1  C   UNL     1       4.518  -1.692  -1.343  0.00  0.00    +0.040 C 
ENDROOT
BRANCH   1   2
ATOM      2  C   UNL     1       5.156  -1.755  -2.708  0.00  0.00    +0.011 A 
ATOM      3  C   UNL     1       6.503  -1.635  -2.830  0.00  0.00    +0.017 A 
ATOM      4  C   UNL     1       7.091  -1.700  -4.167  0.00  0.00    +0.002 A 
ATOM      5  C   UNL     1       8.475  -1.584  -4.354  0.00  0.00    +0.059 A 
ATOM      6  C   UNL     1       9.000  -1.651  -5.625  0.00  0.00    +0.167 A 
ATOM      7  C   UNL     1       8.157  -1.834  -6.729  0.00  0.00    +0.168 A 
ATOM      8  C   UNL     1       6.790  -1.949  -6.554  0.00  0.00    +0.075 A 
ATOM      9  C   UNL     1       6.245  -1.885  -5.278  0.00  0.00    +0.053 A 
ATOM     10  N   UNL     1       4.883  -1.999  -5.084  0.00  0.00    -0.322 N 
ATOM     11  H   UNL     1       4.282  -2.126  -5.873  0.00  0.00    +0.169 HD
ATOM     12  C   UNL     1       4.353  -1.944  -3.850  0.00  0.00    +0.251 A 
ATOM     13  O   UNL     1       3.146  -2.055  -3.716  0.00  0.00    -0.268 OA
ATOM     14  O   UNL     1       8.923  -1.864  -7.858  0.00  0.00    -0.453 OA
ATOM     15  C   UNL     1      10.267  -2.112  -7.406  0.00  0.00    +0.466 C 
ATOM     16  O   UNL     1      10.288  -1.569  -6.073  0.00  0.00    -0.453 OA
ENDBRANCH   1   2
BRANCH   1  18
ATOM     17  N   UNL     1       4.468  -3.808   0.078  0.00  0.00    -0.225 N 
ATOM     18  C   UNL     1       4.030  -3.063  -0.953  0.00  0.00    +0.143 A 
ATOM     19  N   UNL     1       3.093  -3.759  -1.549  0.00  0.00    -0.115 NA
ATOM     20  N   UNL     1       2.967  -4.877  -0.921  0.00  0.00    -0.023 NA
ATOM     21  N   UNL     1       3.794  -4.909   0.064  0.00  0.00    -0.043 NA
BRANCH  17  23
ATOM     22  C   UNL     1       5.096  -2.172   1.783  0.00  0.00    +0.036 C 
ATOM     23  C   UNL     1       5.513  -3.440   1.036  0.00  0.00    +0.059 C 
ATOM     24  C   UNL     1       5.712  -4.580   2.038  0.00  0.00    +0.036 C 
ATOM     25  C   UNL     1       6.823  -3.184   0.288  0.00  0.00    +0.036 C 
ENDBRANCH  17  23
ENDBRANCH   1  18
BRANCH   1  26
ATOM     26  N   UNL     1       3.369  -0.764  -1.400  0.00  0.00    +0.397 N 
ATOM     27  H   UNL     1       2.825  -0.958  -2.249  0.00  0.00    -0.079 HD
BRANCH  26  28
ATOM     28  C   UNL     1       2.501  -0.963  -0.220  0.00  0.00    -0.041 C 
BRANCH  28  29
ATOM     29  C   UNL     1       1.233  -0.171  -0.409  0.00  0.00    -0.064 A 
ATOM     30  C   UNL     1       0.149  -0.744  -1.046  0.00  0.00    +0.002 A 
ATOM     31  C   UNL     1      -1.014  -0.017  -1.220  0.00  0.00    +0.000 A 
ATOM     32  C   UNL     1      -1.092   1.283  -0.758  0.00  0.00    +0.000 A 
ATOM     33  C   UNL     1      -0.007   1.857  -0.121  0.00  0.00    +0.000 A 
ATOM     34  C   UNL     1       1.155   1.130   0.053  0.00  0.00    +0.002 A 
ENDBRANCH  28  29
ENDBRANCH  26  28
BRANCH  26  35
ATOM     35  C   UNL     1       3.849   0.633  -1.445  0.00  0.00    -0.001 C 
BRANCH  35  36
ATOM     36  C   UNL     1       4.359   0.924  -2.832  0.00  0.00    +0.089 A 
ATOM     37  C   UNL     1       3.604   1.255  -3.895  0.00  0.00    +0.042 A 
ATOM     38  C   UNL     1       4.487   1.439  -4.984  0.00  0.00    +0.041 A 
ATOM     39  C   UNL     1       5.729   1.209  -4.521  0.00  0.00    +0.195 A 
ATOM     40  O   UNL     1       5.646   0.904  -3.216  0.00  0.00    -0.470 OA
ENDBRANCH  35  36
ENDBRANCH  26  35
ENDBRANCH   1  26
TORSDOF 8
