REMARK  Name = ZINC36595363
REMARK  16 active torsions:
REMARK  status: ('A' for Active; 'I' for Inactive)
REMARK    1  A    between atoms: C_1  and  C_2
REMARK    2  A    between atoms: C_2  and  C_3
REMARK    3  A    between atoms: C_3  and  C_4
REMARK    4  A    between atoms: C_3  and  C_6
REMARK    5  A    between atoms: C_4  and  C_5
REMARK    6  A    between atoms: C_6  and  C_8
REMARK    7  A    between atoms: C_6  and  N_22
REMARK    8  A    between atoms: N_10  and  C_11
REMARK    9  A    between atoms: C_11  and  S_12
REMARK   10  A    between atoms: S_12  and  C_15
REMARK   11  A    between atoms: C_18  and  C_21
REMARK   12  A    between atoms: N_22  and  C_23
REMARK   13  A    between atoms: C_23  and  C_24
REMARK   14  A    between atoms: C_27  and  C_29
REMARK   15  A    between atoms: C_30  and  C_32
REMARK   16  A    between atoms: C_37  and  O_38
REMARK                            x       y       z     vdW  Elec       q    Type
REMARK                         _______ _______ _______ _____ _____    ______ ____
ROOT
ATOM      1  C   UNL     1      -1.481  -1.536   2.068  0.00  0.00    +0.166 C 
ENDROOT
BRANCH   1   2
ATOM      2  C   UNL     1      -2.515  -0.452   2.233  0.00  0.00    +0.235 C 
ATOM      3  O   UNL     1      -3.415  -0.344   1.427  0.00  0.00    -0.274 OA
ATOM      4  N   UNL     1      -2.441   0.396   3.278  0.00  0.00    -0.295 N 
ATOM      5  H   UNL     1      -1.683   0.357   3.882  0.00  0.00    +0.150 HD
BRANCH   4   6
ATOM      6  C   UNL     1      -3.505   1.378   3.501  0.00  0.00    +0.278 C 
BRANCH   6   7
ATOM      7  S   UNL     1      -4.706   0.710   4.686  0.00  0.00    +0.013 S 
ATOM      8  O   UNL     1      -5.711   1.676   4.961  0.00  0.00    -0.168 OA
ATOM      9  O   UNL     1      -5.057  -0.620   4.329  0.00  0.00    -0.168 OA
BRANCH   7  10
ATOM     10  C   UNL     1      -3.811   0.550   6.195  0.00  0.00    +0.090 A 
ATOM     11  C   UNL     1      -3.138  -0.624   6.478  0.00  0.00    +0.027 A 
ATOM     12  C   UNL     1      -2.436  -0.750   7.663  0.00  0.00    +0.005 A 
ATOM     13  C   UNL     1      -2.406   0.298   8.563  0.00  0.00    -0.050 A 
ATOM     14  C   UNL     1      -3.078   1.472   8.280  0.00  0.00    +0.005 A 
ATOM     15  C   UNL     1      -3.777   1.600   7.093  0.00  0.00    +0.027 A 
ATOM     16  C   UNL     1      -1.642   0.161   9.855  0.00  0.00    +0.044 C 
ENDBRANCH   7  10
ENDBRANCH   6   7
ENDBRANCH   4   6
ENDBRANCH   1   2
BRANCH   1  17
ATOM     17  N   UNL     1      -1.775  -2.311   0.860  0.00  0.00    -0.278 N 
ATOM     18  C   UNL     1      -2.252  -1.693  -0.239  0.00  0.00    +0.251 C 
ATOM     19  O   UNL     1      -2.395  -0.485  -0.242  0.00  0.00    -0.270 OA
BRANCH  18  20
ATOM     20  C   UNL     1      -2.598  -2.481  -1.437  0.00  0.00    +0.078 A 
ATOM     21  C   UNL     1      -3.494  -3.548  -1.341  0.00  0.00    +0.017 A 
ATOM     22  C   UNL     1      -3.814  -4.279  -2.464  0.00  0.00    +0.001 A 
ATOM     23  C   UNL     1      -3.251  -3.962  -3.689  0.00  0.00    +0.004 A 
ATOM     24  C   UNL     1      -2.364  -2.910  -3.798  0.00  0.00    +0.046 A 
ATOM     25  C   UNL     1      -2.034  -2.159  -2.679  0.00  0.00    +0.129 A 
BRANCH  25  26
ATOM     26  O   UNL     1      -1.167  -1.122  -2.785  0.00  0.00    -0.506 OA
ATOM     27  H   UNL     1      -0.241  -1.368  -2.652  0.00  0.00    +0.292 HD
ENDBRANCH  25  26
ENDBRANCH  18  20
BRANCH  17  28
ATOM     28  C   UNL     1      -1.552  -3.759   0.847  0.00  0.00    +0.183 C 
BRANCH  28  29
ATOM     29  C   UNL     1      -1.956  -4.342   2.177  0.00  0.00    +0.122 A 
ATOM     30  C   UNL     1      -2.877  -5.303   2.368  0.00  0.00    +0.046 A 
ATOM     31  C   UNL     1      -2.936  -5.543   3.760  0.00  0.00    +0.045 A 
ATOM     32  C   UNL     1      -2.047  -4.715   4.336  0.00  0.00    +0.102 A 
ATOM     33  O   UNL     1      -1.452  -3.993   3.372  0.00  0.00    -0.463 OA
ATOM     34  C   UNL     1      -1.763  -4.616   5.813  0.00  0.00    +0.086 C 
ENDBRANCH  28  29
ENDBRANCH  17  28
ENDBRANCH   1  17
BRANCH   1  35
ATOM     35  C   UNL     1      -0.094  -0.902   1.941  0.00  0.00    +0.018 C 
BRANCH  35  37
ATOM     36  C   UNL     1       1.052  -3.018   2.612  0.00  0.00    +0.004 C 
ATOM     37  C   UNL     1       0.916  -1.966   1.509  0.00  0.00    +0.002 C 
ENDBRANCH  35  37
BRANCH  35  38
ATOM     38  C   UNL     1      -0.137   0.215   0.896  0.00  0.00    +0.002 C 
ATOM     39  C   UNL     1      -0.262   1.568   1.600  0.00  0.00    +0.004 C 
ENDBRANCH  35  38
ENDBRANCH   1  35
TORSDOF 12
