REMARK  Name = ZINC44924312
REMARK  4 active torsions:
REMARK  status: ('A' for Active; 'I' for Inactive)
REMARK    1  A    between atoms: C_1  and  C_2
REMARK    2  A    between atoms: C_2  and  N_9
REMARK    3  A    between atoms: N_9  and  C_10
REMARK    4  A    between atoms: C_15  and  N_16
REMARK                            x       y       z     vdW  Elec       q    Type
REMARK                         _______ _______ _______ _____ _____    ______ ____
ROOT
ATOM      1  C   UNL     1      -2.235  -0.020  -1.060  0.00  0.00    +0.051 A 
ATOM      2  C   UNL     1      -1.689   0.613  -2.162  0.00  0.00    +0.053 A 
ATOM      3  C   UNL     1      -2.512   0.982  -3.225  0.00  0.00    +0.080 A 
ATOM      4  C   UNL     1      -3.897   0.704  -3.164  0.00  0.00    +0.067 A 
ATOM      5  C   UNL     1      -4.436   0.065  -2.047  0.00  0.00    +0.040 A 
ATOM      6  C   UNL     1      -3.608  -0.299  -1.004  0.00  0.00    +0.047 A 
ATOM      7  C   UNL     1      -4.732   1.107  -4.302  0.00  0.00    +0.259 A 
ATOM      8  O   UNL     1      -5.931   0.897  -4.312  0.00  0.00    -0.267 OA
ATOM      9  N   UNL     1      -4.118   1.722  -5.340  0.00  0.00    -0.313 N 
ATOM     10  H   UNL     1      -4.639   2.002  -6.108  0.00  0.00    +0.170 HD
ATOM     11  C   UNL     1      -2.778   1.951  -5.315  0.00  0.00    +0.199 A 
ATOM     12  N   UNL     1      -2.014   1.606  -4.324  0.00  0.00    -0.237 NA
ENDROOT
BRANCH   6  13
ATOM     13  N   UNL     1      -4.142  -0.946   0.116  0.00  0.00    -0.357 N 
ATOM     14  H   UNL     1      -3.563  -1.200   0.852  0.00  0.00    +0.142 HD
ATOM     15  H   UNL     1      -5.091  -1.141   0.157  0.00  0.00    +0.142 HD
ENDBRANCH   6  13
BRANCH   1  16
ATOM     16  N   UNL     1      -1.411  -0.389   0.003  0.00  0.00    -0.335 N 
ATOM     17  H   UNL     1      -1.793  -0.814   0.787  0.00  0.00    +0.147 HD
BRANCH  16  19
ATOM     18  C   UNL     1       0.614  -0.942  -1.226  0.00  0.00    +0.033 C 
ATOM     19  C   UNL     1       0.030  -0.135  -0.065  0.00  0.00    +0.050 C 
ATOM     20  C   UNL     1       0.670  -0.616   1.236  0.00  0.00    +0.049 C 
ATOM     21  C   UNL     1       1.951   0.208   1.544  0.00  0.00    +0.168 C 
ATOM     22  S   UNL     1       1.371   1.883   1.026  0.00  0.00    -0.029 S 
ATOM     23  O   UNL     1       0.594   2.452   2.071  0.00  0.00    -0.174 OA
ATOM     24  O   UNL     1       2.466   2.611   0.487  0.00  0.00    -0.174 OA
ATOM     25  C   UNL     1       0.255   1.364  -0.343  0.00  0.00    +0.191 C 
ENDBRANCH  16  19
ENDBRANCH   1  16
TORSDOF 3
