REMARK  Name = ZINC20598906
REMARK  8 active torsions:
REMARK  status: ('A' for Active; 'I' for Inactive)
REMARK    1  A    between atoms: C_1  and  C_2
REMARK    2  A    between atoms: C_2  and  N_3
REMARK    3  A    between atoms: N_3  and  C_4
REMARK    4  A    between atoms: C_4  and  C_5
REMARK    5  A    between atoms: C_6  and  C_8
REMARK    6  A    between atoms: C_11  and  N_24
REMARK    7  A    between atoms: N_14  and  C_15
REMARK    8  A    between atoms: N_24  and  C_25
REMARK                            x       y       z     vdW  Elec       q    Type
REMARK                         _______ _______ _______ _____ _____    ______ ____
ROOT
ATOM      1  C   UNL     1      -0.977  -2.386   0.498  0.00  0.00    +0.142 C 
ATOM      2  C   UNL     1      -0.485  -1.091   1.178  0.00  0.00    +0.014 C 
ATOM      3  C   UNL     1       1.008  -1.024   0.763  0.00  0.00    -0.055 C 
ATOM      4  C   UNL     1       0.960  -1.598  -0.675  0.00  0.00    +0.070 C 
ATOM      5  N   UNL     1      -0.058  -2.668  -0.620  0.00  0.00    -0.289 NA
ENDROOT
BRANCH   5   6
ATOM      6  C   UNL     1      -0.789  -2.766  -1.891  0.00  0.00    +0.066 C 
ATOM      7  C   UNL     1      -1.644  -4.050  -1.935  0.00  0.00    +0.054 C 
ATOM      8  C   UNL     1      -1.591  -4.508  -3.380  0.00  0.00    -0.043 A 
ATOM      9  C   UNL     1      -2.400  -5.397  -4.068  0.00  0.00    +0.004 A 
ATOM     10  C   UNL     1      -2.162  -5.664  -5.402  0.00  0.00    +0.000 A 
ATOM     11  C   UNL     1      -1.112  -5.042  -6.053  0.00  0.00    +0.000 A 
ATOM     12  C   UNL     1      -0.305  -4.155  -5.368  0.00  0.00    +0.004 A 
ATOM     13  C   UNL     1      -0.542  -3.887  -4.031  0.00  0.00    -0.043 A 
ATOM     14  C   UNL     1       0.186  -2.971  -3.070  0.00  0.00    +0.054 C 
ENDBRANCH   5   6
BRANCH   1  16
ATOM     15  N   UNL     1      -3.370  -3.004   0.393  0.00  0.00    -0.301 N 
ATOM     16  C   UNL     1      -2.378  -2.192  -0.022  0.00  0.00    +0.233 C 
ATOM     17  O   UNL     1      -2.613  -1.304  -0.815  0.00  0.00    -0.274 OA
BRANCH  15  19
ATOM     18  C   UNL     1      -4.888  -3.871  -1.317  0.00  0.00    +0.024 C 
ATOM     19  C   UNL     1      -4.713  -2.869  -0.174  0.00  0.00    +0.104 C 
ENDBRANCH  15  19
BRANCH  15  20
ATOM     20  C   UNL     1      -3.104  -4.023   1.412  0.00  0.00    +0.104 C 
ATOM     21  C   UNL     1      -3.205  -3.392   2.802  0.00  0.00    +0.024 C 
ENDBRANCH  15  20
ENDBRANCH   1  16
BRANCH   3  22
ATOM     22  N   UNL     1       1.492   0.363   0.760  0.00  0.00    +0.384 N 
ATOM     23  H   UNL     1       1.252   0.833  -0.205  0.00  0.00    -0.085 HD
ATOM     24  H   UNL     1       1.005   0.923   1.572  0.00  0.00    -0.085 HD
BRANCH  22  25
ATOM     25  C   UNL     1       2.947   0.414   0.960  0.00  0.00    -0.065 C 
ATOM     26  C   UNL     1       3.257   0.378   2.457  0.00  0.00    -0.024 C 
ATOM     27  C   UNL     1       4.772   0.431   2.665  0.00  0.00    +0.005 C 
ATOM     28  C   UNL     1       5.325   1.723   2.060  0.00  0.00    -0.010 C 
ATOM     29  C   UNL     1       4.674   2.926   2.745  0.00  0.00    +0.007 C 
ATOM     30  C   UNL     1       3.159   2.873   2.538  0.00  0.00    -0.010 C 
ATOM     31  C   UNL     1       2.607   1.581   3.142  0.00  0.00    +0.005 C 
ATOM     32  C   UNL     1       2.849   2.909   1.040  0.00  0.00    +0.005 C 
ATOM     33  C   UNL     1       3.500   1.706   0.355  0.00  0.00    -0.024 C 
ATOM     34  C   UNL     1       5.014   1.759   0.563  0.00  0.00    +0.005 C 
ENDBRANCH  22  25
ENDBRANCH   3  22
TORSDOF 6
