REMARK  Name = ZINC52279766
REMARK  5 active torsions:
REMARK  status: ('A' for Active; 'I' for Inactive)
REMARK    1  A    between atoms: C_1  and  C_2
REMARK    2  A    between atoms: C_8  and  C_12
REMARK    3  A    between atoms: C_12  and  N_13
REMARK    4  A    between atoms: N_16  and  C_19
REMARK    5  A    between atoms: C_19  and  C_20
REMARK                            x       y       z     vdW  Elec       q    Type
REMARK                         _______ _______ _______ _____ _____    ______ ____
ROOT
ATOM      1  N   UNL     1       1.060  -6.615  -1.296  0.00  0.00    -0.294 NA
ATOM      2  C   UNL     1       2.331  -5.883  -1.385  0.00  0.00    +0.100 C 
ATOM      3  C   UNL     1       2.982  -6.159  -2.742  0.00  0.00    +0.100 C 
ATOM      4  N   UNL     1       3.199  -7.604  -2.893  0.00  0.00    -0.294 NA
ATOM      5  C   UNL     1       1.927  -8.336  -2.805  0.00  0.00    +0.100 C 
ATOM      6  C   UNL     1       1.276  -8.060  -1.448  0.00  0.00    +0.100 C 
ENDROOT
BRANCH   1   7
ATOM      7  C   UNL     1       0.366  -6.315  -0.036  0.00  0.00    +0.140 C 
BRANCH   7  15
ATOM      8  C   UNL     1      -0.018   1.503   0.010  0.00  0.00    +0.075 C 
ATOM      9  C   UNL     1       0.002  -0.004   0.002  0.00  0.00    +0.099 A 
ATOM     10  N   UNL     1      -0.997  -0.834   0.002  0.00  0.00    -0.159 NA
ATOM     11  N   UNL     1      -0.801  -2.212  -0.007  0.00  0.00    -0.171 N 
ATOM     12  C   UNL     1      -1.762  -3.182  -0.009  0.00  0.00    +0.275 A 
ATOM     13  O   UNL     1      -2.943  -2.873  -0.002  0.00  0.00    -0.266 OA
ATOM     14  C   UNL     1      -1.391  -4.527  -0.018  0.00  0.00    +0.096 A 
ATOM     15  C   UNL     1      -0.055  -4.869  -0.026  0.00  0.00    +0.063 A 
ATOM     16  N   UNL     1       0.855  -3.898  -0.024  0.00  0.00    -0.225 NA
ATOM     17  C   UNL     1       0.499  -2.639  -0.015  0.00  0.00    +0.199 A 
ATOM     18  S   UNL     1       1.406  -1.108  -0.018  0.00  0.00    -0.033 S 
ENDBRANCH   7  15
ENDBRANCH   1   7
BRANCH   4  19
ATOM     19  C   UNL     1       3.892  -7.904  -4.154  0.00  0.00    +0.139 C 
BRANCH  19  20
ATOM     20  C   UNL     1       4.314  -9.350  -4.164  0.00  0.00    +0.048 A 
ATOM     21  C   UNL     1       5.524  -9.821  -3.791  0.00  0.00    +0.115 A 
ATOM     22  N   UNL     1       5.495 -11.180  -3.948  0.00  0.00    -0.308 N 
ATOM     23  C   UNL     1       6.424 -12.155  -3.728  0.00  0.00    +0.092 A 
ATOM     24  C   UNL     1       6.132 -13.450  -3.970  0.00  0.00    +0.018 A 
ATOM     25  C   UNL     1       4.864 -13.812  -4.454  0.00  0.00    +0.005 A 
ATOM     26  C   UNL     1       3.928 -12.850  -4.678  0.00  0.00    +0.045 A 
ATOM     27  C   UNL     1       4.249 -11.502  -4.420  0.00  0.00    +0.115 A 
ATOM     28  N   UNL     1       3.551 -10.381  -4.537  0.00  0.00    -0.342 N 
ATOM     29  H   UNL     1       2.634 -10.319  -4.847  0.00  0.00    +0.167 HD
ENDBRANCH  19  20
ENDBRANCH   4  19
TORSDOF 4
