REMARK  Name = ZINC40038076
REMARK  10 active torsions:
REMARK  status: ('A' for Active; 'I' for Inactive)
REMARK    1  A    between atoms: C_1  and  C_2
REMARK    2  A    between atoms: C_2  and  C_3
REMARK    3  A    between atoms: C_9  and  C_30
REMARK    4  A    between atoms: C_10  and  C_12
REMARK    5  A    between atoms: N_14  and  C_15
REMARK    6  A    between atoms: C_16  and  C_25
REMARK    7  A    between atoms: N_21  and  C_24
REMARK    8  A    between atoms: C_25  and  O_27
REMARK    9  A    between atoms: O_27  and  C_28
REMARK   10  A    between atoms: C_28  and  C_29
REMARK                            x       y       z     vdW  Elec       q    Type
REMARK                         _______ _______ _______ _____ _____    ______ ____
ROOT
ATOM      1  C   UNL     1      -6.689  -2.464  -2.197  0.00  0.00    +0.284 C 
ATOM      2  O   UNL     1      -6.765  -2.487  -3.411  0.00  0.00    -0.266 OA
ATOM      3  N   UNL     1      -7.740  -2.855  -1.449  0.00  0.00    -0.273 N 
ATOM      4  H   UNL     1      -7.679  -2.837  -0.481  0.00  0.00    +0.156 HD
ENDROOT
BRANCH   3   5
ATOM      5  C   UNL     1      -8.905  -3.283  -2.062  0.00  0.00    +0.087 A 
ATOM      6  C   UNL     1     -10.079  -3.713  -1.458  0.00  0.00    +0.091 A 
ATOM      7  C   UNL     1     -11.164  -4.112  -2.333  0.00  0.00    -0.025 A 
ATOM      8  C   UNL     1     -10.880  -4.011  -3.651  0.00  0.00    -0.021 A 
ATOM      9  S   UNL     1      -9.226  -3.394  -3.707  0.00  0.00    -0.079 S 
ATOM     10  C   UNL     1     -11.800  -4.354  -4.781  0.00  0.00    -0.036 C 
ATOM     11  N   UNL     1     -12.906  -5.170  -4.246  0.00  0.00    +0.381 N 
ATOM     12  C   UNL     1     -13.487  -4.505  -3.073  0.00  0.00    -0.074 C 
ATOM     13  C   UNL     1     -12.530  -4.607  -1.880  0.00  0.00    +0.018 C 
ATOM     14  C   UNL     1     -13.938  -5.331  -5.279  0.00  0.00    -0.096 C 
ATOM     15  H   UNL     1     -12.555  -6.077  -3.979  0.00  0.00    -0.082 HD
BRANCH   6  16
ATOM     16  C   UNL     1     -10.215  -3.762  -0.001  0.00  0.00    +0.342 C 
ATOM     17  O   UNL     1     -10.635  -2.793   0.604  0.00  0.00    -0.245 OA
BRANCH  16  18
ATOM     18  O   UNL     1      -9.876  -4.881   0.671  0.00  0.00    -0.461 OA
BRANCH  18  19
ATOM     19  C   UNL     1     -10.034  -4.859   2.091  0.00  0.00    +0.229 C 
ATOM     20  C   UNL     1      -9.602  -6.205   2.674  0.00  0.00    +0.048 C 
ENDBRANCH  18  19
ENDBRANCH  16  18
ENDBRANCH   6  16
ENDBRANCH   3   5
BRANCH   1  28
ATOM     21  C   UNL     1      -1.412  -0.526   0.013  0.00  0.00    -0.047 A 
ATOM     22  C   UNL     1      -2.049  -0.765   1.223  0.00  0.00    +0.007 A 
ATOM     23  C   UNL     1      -3.341  -1.242   1.256  0.00  0.00    +0.047 A 
ATOM     24  C   UNL     1      -4.019  -1.487   0.067  0.00  0.00    +0.136 A 
ATOM     25  C   UNL     1      -3.369  -1.242  -1.157  0.00  0.00    +0.024 A 
ATOM     26  C   UNL     1      -2.060  -0.754  -1.168  0.00  0.00    +0.015 A 
ATOM     27  C   UNL     1      -4.334  -1.595  -2.197  0.00  0.00    +0.008 A 
ATOM     28  C   UNL     1      -5.453  -2.010  -1.547  0.00  0.00    +0.194 A 
ATOM     29  O   UNL     1      -5.256  -1.943  -0.213  0.00  0.00    -0.450 OA
ATOM     30  C   UNL     1      -4.130  -1.513  -3.688  0.00  0.00    +0.048 C 
BRANCH  21  32
ATOM     31  C   UNL     1      -0.019   1.526   0.010  0.00  0.00    +0.009 C 
ATOM     32  C   UNL     1       0.002  -0.004   0.002  0.00  0.00    +0.032 C 
ENDBRANCH  21  32
ENDBRANCH   1  28
TORSDOF 6
