REMARK  Name = ZINC21252197
REMARK  6 active torsions:
REMARK  status: ('A' for Active; 'I' for Inactive)
REMARK    1  A    between atoms: C_1  and  N_2
REMARK    2  A    between atoms: N_2  and  C_3
REMARK    3  A    between atoms: N_2  and  C_4
REMARK    4  A    between atoms: C_7  and  C_10
REMARK    5  A    between atoms: C_15  and  C_25
REMARK    6  A    between atoms: C_29  and  O_31
REMARK                            x       y       z     vdW  Elec       q    Type
REMARK                         _______ _______ _______ _____ _____    ______ ____
ROOT
ATOM      1  C   UNL     1      -0.332   1.981  -2.467  0.00  0.00    +0.032 C 
ATOM      2  C   UNL     1      -1.732   1.373  -2.411  0.00  0.00    +0.059 C 
ATOM      3  C   UNL     1      -2.315   1.545  -1.018  0.00  0.00    +0.017 C 
ATOM      4  C   UNL     1      -1.515   1.518   0.061  0.00  0.00    +0.036 C 
ATOM      5  C   UNL     1      -1.960   1.654   1.498  0.00  0.00    +0.136 C 
ATOM      6  N   UNL     1      -3.331   2.087   1.661  0.00  0.00    -0.331 N 
ATOM      7  C   UNL     1      -4.393   1.294   1.232  0.00  0.00    +0.049 A 
ATOM      8  C   UNL     1      -5.301   0.751   2.127  0.00  0.00    +0.025 A 
ATOM      9  C   UNL     1      -6.313  -0.069   1.658  0.00  0.00    +0.002 A 
ATOM     10  C   UNL     1      -6.418  -0.348   0.307  0.00  0.00    +0.002 A 
ATOM     11  C   UNL     1      -5.523   0.207  -0.592  0.00  0.00    +0.025 A 
ATOM     12  C   UNL     1      -4.524   1.044  -0.126  0.00  0.00    +0.052 A 
ATOM     13  N   UNL     1      -3.660   1.717  -0.984  0.00  0.00    -0.316 N 
ATOM     14  C   UNL     1      -0.113   1.364  -0.090  0.00  0.00    +0.163 C 
ATOM     15  O   UNL     1       0.587   1.324   0.902  0.00  0.00    -0.292 OA
ATOM     16  C   UNL     1       0.536   1.250  -1.437  0.00  0.00    +0.088 C 
ATOM     17  H   UNL     1      -3.549   3.058   2.132  0.00  0.00    +0.147 HD
ATOM     18  H   UNL     1      -4.141   2.432  -1.667  0.00  0.00    +0.152 HD
ENDROOT
BRANCH   1  22
ATOM     19  C   UNL     1       1.319   1.470  -6.376  0.00  0.00    +0.029 A 
ATOM     20  C   UNL     1       1.176   2.744  -5.842  0.00  0.00    +0.023 A 
ATOM     21  C   UNL     1       0.643   2.906  -4.579  0.00  0.00    +0.006 A 
ATOM     22  C   UNL     1       0.250   1.801  -3.846  0.00  0.00    -0.043 A 
ATOM     23  C   UNL     1       0.396   0.531  -4.372  0.00  0.00    +0.006 A 
ATOM     24  C   UNL     1       0.923   0.362  -5.637  0.00  0.00    +0.023 A 
BRANCH  19  26
ATOM     25  C   UNL     1       2.384   2.459  -8.384  0.00  0.00    +0.129 C 
ATOM     26  N   UNL     1       1.858   1.303  -7.654  0.00  0.00    -0.336 N 
ATOM     27  C   UNL     1       1.897  -0.029  -8.264  0.00  0.00    +0.129 C 
ENDBRANCH  19  26
ENDBRANCH   1  22
BRANCH   5  28
ATOM     28  C   UNL     1      -1.797   0.318   2.176  0.00  0.00    -0.019 A 
ATOM     29  C   UNL     1      -2.552  -0.764   1.762  0.00  0.00    +0.006 A 
ATOM     30  C   UNL     1      -2.404  -1.990   2.383  0.00  0.00    +0.004 A 
ATOM     31  C   UNL     1      -1.502  -2.138   3.419  0.00  0.00    +0.045 A 
ATOM     32  C   UNL     1      -0.743  -1.054   3.835  0.00  0.00    +0.117 A 
ATOM     33  C   UNL     1      -0.889   0.175   3.207  0.00  0.00    +0.051 A 
BRANCH  32  34
ATOM     34  O   UNL     1       0.146  -1.197   4.853  0.00  0.00    -0.507 OA
ATOM     35  H   UNL     1       0.748  -0.337   5.183  0.00  0.00    +0.292 HD
ENDBRANCH  32  34
ENDBRANCH   5  28
TORSDOF 4
