REMARK  Name = ZINC36346625
REMARK  17 active torsions:
REMARK  status: ('A' for Active; 'I' for Inactive)
REMARK    1  A    between atoms: C_1  and  C_2
REMARK    2  A    between atoms: C_3  and  C_22
REMARK    3  A    between atoms: C_4  and  O_14
REMARK    4  A    between atoms: N_5  and  C_7
REMARK    5  A    between atoms: O_14  and  C_15
REMARK    6  A    between atoms: C_22  and  N_23
REMARK    7  A    between atoms: N_23  and  C_24
REMARK    8  A    between atoms: N_23  and  C_28
REMARK    9  A    between atoms: C_24  and  C_25
REMARK   10  A    between atoms: C_25  and  O_26
REMARK   11  A    between atoms: O_26  and  C_27
REMARK   12  A    between atoms: C_28  and  C_29
REMARK   13  A    between atoms: C_29  and  C_31
REMARK   14  A    between atoms: C_29  and  O_36
REMARK   15  A    between atoms: C_31  and  O_32
REMARK   16  A    between atoms: O_32  and  C_33
REMARK   17  A    between atoms: C_33  and  C_34
REMARK                            x       y       z     vdW  Elec       q    Type
REMARK                         _______ _______ _______ _____ _____    ______ ____
ROOT
ATOM      1  C   UNL     1       1.916   0.974   0.607  0.00  0.00    +0.068 C 
ATOM      2  C   UNL     1       1.172  -0.326   0.440  0.00  0.00    +0.065 A 
ATOM      3  C   UNL     1       0.526  -0.754  -0.723  0.00  0.00    +0.021 A 
ATOM      4  C   UNL     1      -0.023  -1.973  -0.472  0.00  0.00    +0.225 A 
ATOM      5  N   UNL     1       0.274  -2.297   0.815  0.00  0.00    -0.200 N 
ATOM      6  N   UNL     1       1.028  -1.248   1.358  0.00  0.00    -0.168 NA
ENDROOT
BRANCH   5   7
ATOM      7  C   UNL     1      -0.103  -3.473   1.479  0.00  0.00    +0.069 A 
ATOM      8  C   UNL     1      -1.388  -3.977   1.325  0.00  0.00    +0.031 A 
ATOM      9  C   UNL     1      -1.757  -5.136   1.979  0.00  0.00    +0.040 A 
ATOM     10  C   UNL     1      -0.848  -5.795   2.789  0.00  0.00    +0.124 A 
ATOM     11  C   UNL     1       0.434  -5.294   2.944  0.00  0.00    +0.040 A 
ATOM     12  C   UNL     1       0.809  -4.139   2.287  0.00  0.00    +0.031 A 
ATOM     13  F   UNL     1      -1.211  -6.928   3.429  0.00  0.00    -0.205 F 
ENDBRANCH   5   7
BRANCH   4  14
ATOM     14  O   UNL     1      -0.736  -2.728  -1.346  0.00  0.00    -0.438 OA
BRANCH  14  15
ATOM     15  C   UNL     1      -2.071  -2.495  -1.447  0.00  0.00    +0.133 A 
ATOM     16  C   UNL     1      -2.647  -1.437  -0.759  0.00  0.00    +0.046 A 
ATOM     17  C   UNL     1      -4.004  -1.201  -0.863  0.00  0.00    +0.006 A 
ATOM     18  C   UNL     1      -4.790  -2.019  -1.653  0.00  0.00    +0.038 A 
ATOM     19  C   UNL     1      -4.220  -3.076  -2.341  0.00  0.00    +0.127 A 
ATOM     20  C   UNL     1      -2.860  -3.313  -2.244  0.00  0.00    +0.084 A 
ATOM     21  F   UNL     1      -4.990  -3.874  -3.113  0.00  0.00    -0.205 F 
ENDBRANCH  14  15
ENDBRANCH   4  14
BRANCH   3  22
ATOM     22  C   UNL     1       0.450   0.001  -2.025  0.00  0.00    -0.036 C 
BRANCH  22  23
ATOM     23  N   UNL     1       1.667  -0.250  -2.808  0.00  0.00    +0.386 N 
ATOM     24  H   UNL     1       2.476   0.013  -2.266  0.00  0.00    -0.081 HD
BRANCH  23  25
ATOM     25  C   UNL     1       1.627   0.544  -4.044  0.00  0.00    -0.050 C 
BRANCH  25  26
ATOM     26  C   UNL     1       1.565   2.032  -3.692  0.00  0.00    +0.141 C 
BRANCH  26  27
ATOM     27  O   UNL     1       2.738   2.398  -2.963  0.00  0.00    -0.385 OA
ATOM     28  C   UNL     1       2.781   3.775  -2.583  0.00  0.00    +0.193 C 
ENDBRANCH  26  27
ENDBRANCH  25  26
ENDBRANCH  23  25
BRANCH  23  29
ATOM     29  C   UNL     1       1.746  -1.677  -3.146  0.00  0.00    -0.044 C 
BRANCH  29  30
ATOM     30  C   UNL     1       3.111  -1.979  -3.769  0.00  0.00    +0.124 C 
BRANCH  30  31
ATOM     31  O   UNL     1       3.195  -1.359  -5.054  0.00  0.00    -0.391 OA
ATOM     32  H   UNL     1       2.523  -1.659  -5.680  0.00  0.00    +0.210 HD
ENDBRANCH  30  31
BRANCH  30  33
ATOM     33  C   UNL     1       3.279  -3.492  -3.921  0.00  0.00    +0.189 C 
BRANCH  33  34
ATOM     34  O   UNL     1       4.596  -3.780  -4.394  0.00  0.00    -0.373 OA
BRANCH  34  35
ATOM     35  C   UNL     1       4.858  -5.174  -4.572  0.00  0.00    +0.186 C 
BRANCH  35  36
ATOM     36  C   UNL     1       6.268  -5.360  -5.070  0.00  0.00    -0.007 C 
ATOM     37  C   UNL     1       7.033  -6.283  -4.542  0.00  0.00    +0.006 C 
ENDBRANCH  35  36
ENDBRANCH  34  35
ENDBRANCH  33  34
ENDBRANCH  30  33
ENDBRANCH  29  30
ENDBRANCH  23  29
ENDBRANCH  22  23
ENDBRANCH   3  22
TORSDOF 15
