REMARK  Name = ZINC49070922
REMARK  4 active torsions:
REMARK  status: ('A' for Active; 'I' for Inactive)
REMARK    1  A    between atoms: C_3  and  C_25
REMARK    2  A    between atoms: C_5  and  C_6
REMARK    3  A    between atoms: C_12  and  N_18
REMARK    4  A    between atoms: C_13  and  C_15
REMARK                            x       y       z     vdW  Elec       q    Type
REMARK                         _______ _______ _______ _____ _____    ______ ____
ROOT
ATOM      1  C   UNL     1      -1.181  -0.887   0.009  0.00  0.00    +0.033 A 
ATOM      2  C   UNL     1      -1.402  -1.720   1.137  0.00  0.00    -0.017 A 
ATOM      3  C   UNL     1      -2.502  -2.538   1.114  0.00  0.00    +0.021 A 
ATOM      4  N   UNL     1      -3.346  -2.514   0.083  0.00  0.00    -0.352 N 
ATOM      5  C   UNL     1      -3.186  -1.753  -0.967  0.00  0.00    +0.088 A 
ATOM      6  C   UNL     1      -2.072  -0.888  -1.101  0.00  0.00    +0.038 A 
ATOM      7  C   UNL     1      -2.030  -0.154  -2.352  0.00  0.00    +0.054 A 
ATOM      8  C   UNL     1      -3.059  -0.328  -3.261  0.00  0.00    +0.097 A 
ATOM      9  S   UNL     1      -4.127  -1.500  -2.451  0.00  0.00    -0.064 S 
ATOM     10  C   UNL     1      -2.881  -3.540   2.178  0.00  0.00    +0.053 C 
ATOM     11  C   UNL     1      -3.465  -2.870   3.406  0.00  0.00    +0.006 C 
ATOM     12  C   UNL     1      -2.927  -1.466   3.641  0.00  0.00    +0.000 C 
ATOM     13  C   UNL     1      -1.611  -1.674   4.359  0.00  0.00    +0.000 C 
ATOM     14  C   UNL     1      -0.561  -2.342   3.478  0.00  0.00    +0.005 C 
ATOM     15  C   UNL     1      -0.349  -1.544   2.205  0.00  0.00    +0.037 C 
ATOM     16  H   UNL     1      -4.123  -3.096   0.116  0.00  0.00    +0.166 HD
ENDROOT
BRANCH   1  21
ATOM     17  C   UNL     1      -0.016   1.358   0.009  0.00  0.00    +0.050 A 
ATOM     18  C   UNL     1       1.326   1.781  -0.001  0.00  0.00    +0.054 A 
ATOM     19  C   UNL     1       2.091   0.671  -0.014  0.00  0.00    +0.208 A 
ATOM     20  O   UNL     1       1.289  -0.405  -0.012  0.00  0.00    -0.451 OA
ATOM     21  C   UNL     1       0.002  -0.004   0.002  0.00  0.00    +0.137 A 
BRANCH  19  22
ATOM     22  C   UNL     1       3.598   0.643  -0.029  0.00  0.00    +0.450 C 
ATOM     23  F   UNL     1       4.077   0.627   1.285  0.00  0.00    -0.163 F 
ATOM     24  F   UNL     1       4.036  -0.505  -0.699  0.00  0.00    -0.163 F 
ATOM     25  F   UNL     1       4.079   1.779  -0.688  0.00  0.00    -0.163 F 
ENDBRANCH  19  22
ENDBRANCH   1  21
BRANCH   8  26
ATOM     26  C   UNL     1      -3.218   0.283  -4.527  0.00  0.00    +0.250 C 
ATOM     27  O   UNL     1      -2.383   1.071  -4.932  0.00  0.00    -0.270 OA
ATOM     28  N   UNL     1      -4.294  -0.006  -5.286  0.00  0.00    -0.325 N 
ATOM     29  H   UNL     1      -4.960  -0.634  -4.963  0.00  0.00    +0.145 HD
ATOM     30  H   UNL     1      -4.403   0.412  -6.154  0.00  0.00    +0.145 HD
ENDBRANCH   8  26
BRANCH   7  31
ATOM     31  N   UNL     1      -0.999   0.715  -2.685  0.00  0.00    -0.356 N 
ATOM     32  H   UNL     1      -0.263   0.853  -2.068  0.00  0.00    +0.142 HD
ATOM     33  H   UNL     1      -1.014   1.183  -3.534  0.00  0.00    +0.142 HD
ENDBRANCH   7  31
TORSDOF 4
