REMARK  Name = ZINC40340343
REMARK  11 active torsions:
REMARK  status: ('A' for Active; 'I' for Inactive)
REMARK    1  A    between atoms: C_1  and  C_2
REMARK    2  A    between atoms: C_5  and  C_8
REMARK    3  A    between atoms: N_16  and  C_29
REMARK    4  A    between atoms: C_17  and  C_19
REMARK    5  A    between atoms: C_22  and  O_27
REMARK    6  A    between atoms: C_24  and  O_25
REMARK    7  A    between atoms: O_25  and  C_26
REMARK    8  A    between atoms: O_27  and  C_28
REMARK    9  A    between atoms: C_29  and  C_30
REMARK   10  A    between atoms: C_30  and  C_31
REMARK   11  A    between atoms: C_31  and  N_32
REMARK                            x       y       z     vdW  Elec       q    Type
REMARK                         _______ _______ _______ _____ _____    ______ ____
ROOT
ATOM      1  C   UNL     1      -0.197  -4.699   0.131  0.00  0.00    +0.072 A 
ATOM      2  C   UNL     1       0.833  -5.307   0.774  0.00  0.00    +0.035 A 
ATOM      3  C   UNL     1       0.678  -6.691   0.534  0.00  0.00    +0.153 A 
ATOM      4  N   UNL     1      -0.398  -6.833  -0.214  0.00  0.00    -0.168 NA
ATOM      5  H   UNL     1      -1.732  -5.548  -0.987  0.00  0.00    +0.189 HD
ATOM      6  N   UNL     1      -0.930  -5.688  -0.459  0.00  0.00    -0.276 N 
ATOM      7  C   UNL     1       1.778  -7.395   1.217  0.00  0.00    +0.268 C 
ATOM      8  O   UNL     1       1.940  -8.600   1.212  0.00  0.00    -0.268 OA
ATOM      9  N   UNL     1       2.577  -6.517   1.848  0.00  0.00    -0.285 N 
ATOM     10  C   UNL     1       2.062  -5.160   1.628  0.00  0.00    +0.145 C 
ENDROOT
BRANCH   1  15
ATOM     11  C   UNL     1      -1.276   0.952  -0.055  0.00  0.00    +0.044 C 
ATOM     12  C   UNL     1      -0.993  -0.527  -0.007  0.00  0.00    -0.050 A 
ATOM     13  C   UNL     1      -1.016  -1.271  -1.173  0.00  0.00    +0.004 A 
ATOM     14  C   UNL     1      -0.758  -2.626  -1.135  0.00  0.00    +0.010 A 
ATOM     15  C   UNL     1      -0.474  -3.245   0.083  0.00  0.00    +0.000 A 
ATOM     16  C   UNL     1      -0.452  -2.489   1.255  0.00  0.00    +0.010 A 
ATOM     17  C   UNL     1      -0.707  -1.134   1.203  0.00  0.00    +0.004 A 
ENDBRANCH   1  15
BRANCH  10  18
ATOM     18  C   UNL     1       1.705  -4.522   2.946  0.00  0.00    +0.019 A 
ATOM     19  C   UNL     1       2.055  -3.209   3.195  0.00  0.00    +0.013 A 
ATOM     20  C   UNL     1       1.728  -2.622   4.402  0.00  0.00    +0.046 A 
ATOM     21  C   UNL     1       1.047  -3.350   5.367  0.00  0.00    +0.124 A 
ATOM     22  C   UNL     1       0.694  -4.667   5.120  0.00  0.00    +0.091 A 
ATOM     23  C   UNL     1       1.018  -5.253   3.905  0.00  0.00    +0.129 A 
BRANCH  23  24
ATOM     24  O   UNL     1       0.668  -6.542   3.657  0.00  0.00    -0.495 OA
ATOM     25  C   UNL     1      -0.131  -7.199   4.643  0.00  0.00    +0.277 C 
ENDBRANCH  23  24
BRANCH  21  26
ATOM     26  O   UNL     1       0.726  -2.772   6.555  0.00  0.00    -0.495 OA
ATOM     27  C   UNL     1       1.122  -1.411   6.742  0.00  0.00    +0.277 C 
ENDBRANCH  21  26
ENDBRANCH  10  18
BRANCH   9  28
ATOM     28  C   UNL     1       3.769  -6.859   2.628  0.00  0.00    +0.111 C 
BRANCH  28  29
ATOM     29  C   UNL     1       4.994  -6.863   1.713  0.00  0.00    +0.040 C 
BRANCH  29  30
ATOM     30  C   UNL     1       6.239  -7.220   2.528  0.00  0.00    +0.124 C 
BRANCH  30  31
ATOM     31  N   UNL     1       7.412  -7.224   1.651  0.00  0.00    -0.338 N 
ATOM     32  C   UNL     1       7.895  -8.292   0.945  0.00  0.00    +0.104 A 
ATOM     33  C   UNL     1       8.980  -7.858   0.275  0.00  0.00    +0.101 A 
ATOM     34  N   UNL     1       9.155  -6.561   0.565  0.00  0.00    -0.352 N 
ATOM     35  C   UNL     1       8.217  -6.172   1.385  0.00  0.00    +0.173 A 
ATOM     36  H   UNL     1       9.865  -5.998   0.218  0.00  0.00    +0.166 HD
ENDBRANCH  30  31
ENDBRANCH  29  30
ENDBRANCH  28  29
ENDBRANCH   9  28
TORSDOF 8
