REMARK  Name = ZINC28813930
REMARK  3 active torsions:
REMARK  status: ('A' for Active; 'I' for Inactive)
REMARK    1  A    between atoms: C_6  and  C_7
REMARK    2  A    between atoms: N_9  and  N_10
REMARK    3  A    between atoms: C_11  and  C_13
REMARK                            x       y       z     vdW  Elec       q    Type
REMARK                         _______ _______ _______ _____ _____    ______ ____
ROOT
ATOM      1  C   UNL     1      -5.166   5.085   0.080  0.00  0.00    +0.260 C 
ATOM      2  O   UNL     1      -5.628   3.961   0.078  0.00  0.00    -0.269 OA
ATOM      3  N   UNL     1      -3.830   5.264   0.068  0.00  0.00    -0.230 N 
ATOM      4  H   UNL     1      -3.411   6.281   0.070  0.00  0.00    +0.173 HD
ENDROOT
BRANCH   1  10
ATOM      5  C   UNL     1      -5.531   7.550   0.104  0.00  0.00    +0.015 A 
ATOM      6  C   UNL     1      -6.352   8.638   0.112  0.00  0.00    +0.030 A 
ATOM      7  C   UNL     1      -7.734   8.471   0.125  0.00  0.00    +0.086 A 
ATOM      8  C   UNL     1      -8.291   7.178   0.122  0.00  0.00    +0.113 A 
ATOM      9  C   UNL     1      -7.444   6.067   0.108  0.00  0.00    +0.044 A 
ATOM     10  C   UNL     1      -6.067   6.255   0.096  0.00  0.00    +0.040 A 
ATOM     11  N   UNL     1      -9.639   7.313   0.137  0.00  0.00    -0.130 NA
ATOM     12  N   UNL     1      -9.959   8.559   0.147  0.00  0.00    -0.067 NA
ATOM     13  N   UNL     1      -8.795   9.342   0.141  0.00  0.00    -0.257 N 
ATOM     14  H   UNL     1      -8.616  10.427   0.145  0.00  0.00    +0.191 HD
ENDBRANCH   1  10
BRANCH   3  15
ATOM     15  N   UNL     1      -2.974   4.154   0.053  0.00  0.00    -0.229 N 
ATOM     16  C   UNL     1      -1.639   4.333   0.042  0.00  0.00    +0.276 C 
ATOM     17  O   UNL     1      -1.176   5.459   0.044  0.00  0.00    -0.267 OA
ATOM     18  H   UNL     1      -3.393   3.137   0.051  0.00  0.00    +0.173 HD
BRANCH  16  19
ATOM     19  C   UNL     1      -0.743   3.172   0.026  0.00  0.00    +0.104 A 
ATOM     20  C   UNL     1       0.635   3.205   0.013  0.00  0.00    +0.047 A 
ATOM     21  C   UNL     1       1.079   1.879   0.002  0.00  0.00    +0.036 A 
ATOM     22  C   UNL     1      -0.013   1.076   0.008  0.00  0.00    +0.098 A 
ATOM     23  N   UNL     1      -1.126   1.849   0.017  0.00  0.00    -0.356 N 
ATOM     24  H   UNL     1      -2.194   1.586   0.017  0.00  0.00    +0.166 HD
ATOM     25 BR   UNL     1       2.881   1.308  -0.018  0.00  0.00    -0.049 Br
ENDBRANCH  16  19
ENDBRANCH   3  15
TORSDOF 3
