REMARK  Name = ZINC12577183
REMARK  4 active torsions:
REMARK  status: ('A' for Active; 'I' for Inactive)
REMARK    1  A    between atoms: C_4  and  N_27
REMARK    2  A    between atoms: C_5  and  C_7
REMARK    3  A    between atoms: C_8  and  C_9
REMARK    4  A    between atoms: C_15  and  C_17
REMARK                            x       y       z     vdW  Elec       q    Type
REMARK                         _______ _______ _______ _____ _____    ______ ____
ROOT
ATOM      1  C   UNL     1      -3.393   6.322   0.355  0.00  0.00    +0.240 C 
ATOM      2  O   UNL     1      -4.503   5.830   0.272  0.00  0.00    -0.271 OA
ATOM      3  N   UNL     1      -3.256   7.654   0.506  0.00  0.00    -0.288 N 
ATOM      4  C   UNL     1      -1.977   8.378   0.626  0.00  0.00    +0.109 C 
ATOM      5  C   UNL     1      -2.296   9.822   0.156  0.00  0.00    +0.021 C 
ATOM      6  C   UNL     1      -3.724  10.025   0.729  0.00  0.00    +0.032 C 
ATOM      7  C   UNL     1      -4.357   8.625   0.585  0.00  0.00    +0.142 C 
ENDROOT
BRANCH   7   8
ATOM      8  C   UNL     1      -5.219   8.326   1.784  0.00  0.00    +0.129 A 
ATOM      9  N   UNL     1      -6.529   7.961   1.731  0.00  0.00    -0.340 N 
ATOM     10  H   UNL     1      -7.079   7.847   0.904  0.00  0.00    +0.167 HD
ATOM     11  C   UNL     1      -6.956   7.777   3.031  0.00  0.00    +0.066 A 
ATOM     12  C   UNL     1      -8.164   7.407   3.608  0.00  0.00    +0.028 A 
ATOM     13  C   UNL     1      -8.266   7.318   4.980  0.00  0.00    +0.002 A 
ATOM     14  C   UNL     1      -7.171   7.595   5.786  0.00  0.00    +0.002 A 
ATOM     15  C   UNL     1      -5.975   7.960   5.236  0.00  0.00    +0.030 A 
ATOM     16  C   UNL     1      -5.848   8.057   3.847  0.00  0.00    +0.089 A 
ATOM     17  N   UNL     1      -4.821   8.385   3.022  0.00  0.00    -0.231 NA
ENDBRANCH   7   8
BRANCH   1  19
ATOM     18  C   UNL     1      -2.343   4.134   0.141  0.00  0.00    +0.015 C 
ATOM     19  C   UNL     1      -2.206   5.466   0.291  0.00  0.00    +0.068 C 
BRANCH  18  24
ATOM     20  C   UNL     1       1.218   3.019  -0.245  0.00  0.00    +0.001 A 
ATOM     21  C   UNL     1       1.095   1.655  -0.045  0.00  0.00    +0.002 A 
ATOM     22  C   UNL     1      -0.144   1.096   0.215  0.00  0.00    +0.033 A 
ATOM     23  C   UNL     1      -1.267   1.894   0.271  0.00  0.00    +0.133 A 
ATOM     24  C   UNL     1      -1.150   3.274   0.077  0.00  0.00    +0.005 A 
ATOM     25  C   UNL     1       0.105   3.832  -0.186  0.00  0.00    +0.010 A 
BRANCH  23  26
ATOM     26  N   UNL     1      -2.592   1.293   0.543  0.00  0.00    +0.057 N 
ATOM     27  O   UNL     1      -2.677   0.115   0.842  0.00  0.00    -0.126 OA
ATOM     28  O   UNL     1      -3.598   1.976   0.468  0.00  0.00    -0.126 OA
ENDBRANCH  23  26
ENDBRANCH  18  24
ENDBRANCH   1  19
TORSDOF 4
