REMARK  Name = ZINC12784894
REMARK  7 active torsions:
REMARK  status: ('A' for Active; 'I' for Inactive)
REMARK    1  A    between atoms: C_1  and  C_2
REMARK    2  A    between atoms: C_9  and  C_19
REMARK    3  A    between atoms: C_12  and  C_13
REMARK    4  A    between atoms: N_21  and  C_22
REMARK    5  A    between atoms: C_22  and  C_23
REMARK    6  A    between atoms: C_23  and  C_25
REMARK    7  A    between atoms: C_23  and  N_59
REMARK                            x       y       z     vdW  Elec       q    Type
REMARK                         _______ _______ _______ _____ _____    ______ ____
ROOT
ATOM      1  C   UNL     1      -2.816   3.473   1.315  0.00  0.00    +0.051 C 
ATOM      2  C   UNL     1      -1.504   2.753   1.136  0.00  0.00    +0.040 A 
ATOM      3  C   UNL     1      -0.386   3.433   0.597  0.00  0.00    +0.196 A 
ATOM      4  O   UNL     1      -0.456   4.604   0.263  0.00  0.00    -0.287 OA
ATOM      5  C   UNL     1       0.866   2.664   0.446  0.00  0.00    +0.065 A 
ATOM      6  C   UNL     1       2.017   3.251  -0.079  0.00  0.00    +0.015 A 
ATOM      7  C   UNL     1       3.172   2.507  -0.203  0.00  0.00    +0.002 A 
ATOM      8  C   UNL     1       3.200   1.182   0.191  0.00  0.00    +0.017 A 
ATOM      9  C   UNL     1       2.060   0.577   0.718  0.00  0.00    +0.080 A 
ATOM     10  C   UNL     1       0.877   1.321   0.849  0.00  0.00    +0.151 A 
ATOM     11  O   UNL     1      -0.238   0.763   1.356  0.00  0.00    -0.454 OA
ATOM     12  C   UNL     1      -1.384   1.447   1.495  0.00  0.00    +0.142 A 
ENDROOT
BRANCH  12  13
ATOM     13  C   UNL     1      -2.560   0.755   2.060  0.00  0.00    +0.018 A 
ATOM     14  C   UNL     1      -3.257   1.318   3.132  0.00  0.00    +0.011 A 
ATOM     15  C   UNL     1      -4.358   0.669   3.651  0.00  0.00    +0.001 A 
ATOM     16  C   UNL     1      -4.765  -0.542   3.121  0.00  0.00    +0.000 A 
ATOM     17  C   UNL     1      -4.076  -1.108   2.063  0.00  0.00    +0.001 A 
ATOM     18  C   UNL     1      -2.977  -0.468   1.530  0.00  0.00    +0.011 A 
ENDBRANCH  12  13
BRANCH   9  19
ATOM     19  C   UNL     1       2.096  -0.838   1.136  0.00  0.00    +0.248 C 
ATOM     20  O   UNL     1       1.099  -1.362   1.595  0.00  0.00    -0.270 OA
ATOM     21  N   UNL     1       3.233  -1.550   1.008  0.00  0.00    -0.312 N 
ATOM     22  H   UNL     1       4.028  -1.131   0.642  0.00  0.00    +0.149 HD
BRANCH  21  23
ATOM     23  C   UNL     1       3.270  -2.954   1.423  0.00  0.00    +0.094 C 
BRANCH  23  24
ATOM     24  C   UNL     1       4.706  -3.474   1.340  0.00  0.00    -0.013 C 
BRANCH  24  29
ATOM     25  C   UNL     1       6.877  -3.381   2.439  0.00  0.00    -0.078 C 
ATOM     26  C   UNL     1       7.768  -2.243   2.997  0.00  0.00    -0.020 C 
ATOM     27  C   UNL     1       7.254  -0.998   2.238  0.00  0.00    -0.020 C 
ATOM     28  C   UNL     1       5.830  -1.365   1.781  0.00  0.00    -0.078 C 
ATOM     29  N   UNL     1       5.574  -2.714   2.289  0.00  0.00    +0.386 N 
ATOM     30  H   UNL     1       5.106  -2.657   3.201  0.00  0.00    -0.081 HD
ENDBRANCH  24  29
BRANCH  24  31
ATOM     31  C   UNL     1       4.732  -4.939   1.692  0.00  0.00    -0.022 A 
ATOM     32  C   UNL     1       4.834  -6.012   0.871  0.00  0.00    +0.009 A 
ATOM     33  C   UNL     1       4.838  -7.280   1.423  0.00  0.00    +0.008 A 
ATOM     34  C   UNL     1       4.739  -7.412   2.768  0.00  0.00    +0.045 A 
ATOM     35  S   UNL     1       4.644  -5.710   3.300  0.00  0.00    -0.103 S 
ENDBRANCH  24  31
ENDBRANCH  23  24
ENDBRANCH  21  23
ENDBRANCH   9  19
TORSDOF 6
