REMARK  Name = ZINC33068241
REMARK  6 active torsions:
REMARK  status: ('A' for Active; 'I' for Inactive)
REMARK    1  A    between atoms: N_9  and  C_12
REMARK    2  A    between atoms: C_12  and  C_13
REMARK    3  A    between atoms: N_15  and  C_16
REMARK    4  A    between atoms: C_21  and  O_22
REMARK    5  A    between atoms: O_22  and  C_23
REMARK    6  A    between atoms: C_23  and  C_24
REMARK                            x       y       z     vdW  Elec       q    Type
REMARK                         _______ _______ _______ _____ _____    ______ ____
ROOT
ATOM      1  C   UNL     1      -6.256   6.087   2.640  0.00  0.00    +0.076 A 
ATOM      2  C   UNL     1      -7.396   6.857   2.815  0.00  0.00    +0.027 A 
ATOM      3  C   UNL     1      -8.360   6.900   1.826  0.00  0.00    +0.002 A 
ATOM      4  C   UNL     1      -8.190   6.176   0.660  0.00  0.00    +0.004 A 
ATOM      5  C   UNL     1      -7.054   5.410   0.476  0.00  0.00    +0.047 A 
ATOM      6  C   UNL     1      -6.086   5.358   1.466  0.00  0.00    +0.142 A 
ENDROOT
BRANCH   1   9
ATOM      7  C   UNL     1      -5.611   6.300   4.923  0.00  0.00    +0.235 C 
ATOM      8  O   UNL     1      -6.774   6.470   5.223  0.00  0.00    -0.274 OA
ATOM      9  N   UNL     1      -5.277   6.043   3.642  0.00  0.00    -0.281 N 
ATOM     10  H   UNL     1      -4.236   5.799   3.384  0.00  0.00    +0.155 HD
BRANCH   7  11
ATOM     11  C   UNL     1      -4.540   6.375   5.980  0.00  0.00    +0.213 C 
BRANCH  11  20
ATOM     12  C   UNL     1      -7.145   6.888  11.455  0.00  0.00    +0.001 A 
ATOM     13  C   UNL     1      -7.008   8.243  11.219  0.00  0.00    +0.001 A 
ATOM     14  C   UNL     1      -6.436   8.697  10.040  0.00  0.00    +0.014 A 
ATOM     15  C   UNL     1      -6.001   7.784   9.092  0.00  0.00    +0.049 A 
ATOM     16  C   UNL     1      -6.141   6.403   9.333  0.00  0.00    +0.049 A 
ATOM     17  C   UNL     1      -6.714   5.964  10.516  0.00  0.00    +0.014 A 
ATOM     18  C   UNL     1      -5.586   5.726   8.142  0.00  0.00    +0.254 C 
ATOM     19  O   UNL     1      -5.527   4.525   7.972  0.00  0.00    -0.270 OA
ATOM     20  N   UNL     1      -5.156   6.664   7.278  0.00  0.00    -0.225 N 
ATOM     21  C   UNL     1      -5.360   7.901   7.766  0.00  0.00    +0.254 C 
ATOM     22  O   UNL     1      -5.068   8.940   7.208  0.00  0.00    -0.270 OA
ENDBRANCH  11  20
ENDBRANCH   7  11
ENDBRANCH   1   9
BRANCH   6  23
ATOM     23  O   UNL     1      -4.970   4.601   1.288  0.00  0.00    -0.484 OA
BRANCH  23  24
ATOM     24  C   UNL     1      -4.864   3.881   0.059  0.00  0.00    +0.284 C 
BRANCH  24  25
ATOM     25  C   UNL     1      -3.571   3.105   0.042  0.00  0.00    +0.086 A 
ATOM     26  C   UNL     1      -3.595   1.724   0.027  0.00  0.00    +0.097 A 
ATOM     27  C   UNL     1      -2.382   1.026   0.011  0.00  0.00    +0.259 A 
ATOM     28  O   UNL     1      -2.369  -0.195  -0.002  0.00  0.00    -0.267 OA
ATOM     29  N   UNL     1      -1.226   1.724   0.005  0.00  0.00    -0.267 N 
ATOM     30  C   UNL     1      -0.038   1.059  -0.005  0.00  0.00    +0.116 A 
ATOM     31  C   UNL     1       1.133   1.737  -0.008  0.00  0.00    +0.058 A 
ATOM     32  C   UNL     1       1.136   3.139   0.007  0.00  0.00    +0.025 A 
ATOM     33  C   UNL     1      -0.049   3.813   0.023  0.00  0.00    +0.048 A 
ATOM     34  C   UNL     1      -1.256   3.091   0.024  0.00  0.00    +0.141 A 
ATOM     35  N   UNL     1      -2.414   3.748   0.040  0.00  0.00    -0.231 NA
ATOM     36 CL   UNL     1       2.637   0.869  -0.028  0.00  0.00    -0.082 Cl
ENDBRANCH  24  25
ENDBRANCH  23  24
ENDBRANCH   6  23
TORSDOF 6
