REMARK  Name = ZINC59351157
REMARK  8 active torsions:
REMARK  status: ('A' for Active; 'I' for Inactive)
REMARK    1  A    between atoms: C_1  and  N_2
REMARK    2  A    between atoms: N_2  and  C_3
REMARK    3  A    between atoms: N_2  and  C_4
REMARK    4  A    between atoms: C_4  and  C_6
REMARK    5  A    between atoms: C_4  and  C_26
REMARK    6  A    between atoms: C_6  and  N_7
REMARK    7  A    between atoms: N_10  and  C_11
REMARK    8  A    between atoms: C_14  and  N_17
REMARK                            x       y       z     vdW  Elec       q    Type
REMARK                         _______ _______ _______ _____ _____    ______ ____
ROOT
ATOM      1  N   UNL     1      -1.253  -2.760   1.233  0.00  0.00    -0.300 N 
ATOM      2  C   UNL     1      -1.537  -4.061   1.443  0.00  0.00    +0.304 C 
ATOM      3  O   UNL     1      -2.180  -4.683   0.620  0.00  0.00    -0.253 OA
ATOM      4  N   UNL     1      -1.108  -4.672   2.565  0.00  0.00    -0.269 N 
ATOM      5  H   UNL     1      -0.740  -2.264   1.889  0.00  0.00    +0.150 HD
ATOM      6  H   UNL     1      -0.657  -4.159   3.255  0.00  0.00    +0.156 HD
ENDROOT
BRANCH   4   7
ATOM      7  C   UNL     1      -1.312  -6.048   2.736  0.00  0.00    +0.035 A 
ATOM      8  C   UNL     1      -1.567  -6.560   4.001  0.00  0.00    +0.025 A 
ATOM      9  C   UNL     1      -1.768  -7.915   4.170  0.00  0.00    +0.025 A 
ATOM     10  C   UNL     1      -1.715  -8.767   3.074  0.00  0.00    +0.034 A 
ATOM     11  C   UNL     1      -1.459  -8.254   1.808  0.00  0.00    +0.025 A 
ATOM     12  C   UNL     1      -1.264  -6.898   1.639  0.00  0.00    +0.025 A 
BRANCH  10  13
ATOM     13  N   UNL     1      -1.918 -10.141   3.244  0.00  0.00    -0.300 N 
ATOM     14  C   UNL     1      -0.903 -11.174   3.020  0.00  0.00    +0.115 C 
ATOM     15  C   UNL     1      -1.605 -12.504   3.339  0.00  0.00    +0.056 C 
ATOM     16  C   UNL     1      -3.010 -12.107   3.732  0.00  0.00    -0.025 A 
ATOM     17  C   UNL     1      -3.115 -10.727   3.659  0.00  0.00    +0.037 A 
ATOM     18  C   UNL     1      -4.331 -10.121   3.985  0.00  0.00    +0.024 A 
ATOM     19  C   UNL     1      -5.407 -10.889   4.377  0.00  0.00    +0.002 A 
ATOM     20  C   UNL     1      -5.291 -12.265   4.450  0.00  0.00    +0.000 A 
ATOM     21  C   UNL     1      -4.093 -12.873   4.120  0.00  0.00    +0.005 A 
ENDBRANCH  10  13
ENDBRANCH   4   7
BRANCH   1  22
ATOM     22  C   UNL     1      -1.719  -2.096   0.013  0.00  0.00    +0.098 C 
BRANCH  22  23
ATOM     23  C   UNL     1      -1.376  -0.607   0.080  0.00  0.00    +0.016 C 
BRANCH  23  24
ATOM     24  C   UNL     1       0.121  -0.435   0.064  0.00  0.00    +0.093 A 
ATOM     25  C   UNL     1       0.863  -0.101  -1.007  0.00  0.00    +0.043 A 
ATOM     26  C   UNL     1       2.208  -0.052  -0.575  0.00  0.00    +0.041 A 
ATOM     27  C   UNL     1       2.208  -0.360   0.735  0.00  0.00    +0.195 A 
ATOM     28  O   UNL     1       0.941  -0.585   1.117  0.00  0.00    -0.469 OA
ENDBRANCH  23  24
BRANCH  23  30
ATOM     29  C   UNL     1      -1.682   1.416   1.332  0.00  0.00    -0.096 C 
ATOM     30  N   UNL     1      -1.921  -0.034   1.317  0.00  0.00    +0.384 N 
ATOM     31  C   UNL     1      -3.366  -0.293   1.382  0.00  0.00    -0.096 C 
ATOM     32  H   UNL     1      -1.467  -0.458   2.113  0.00  0.00    -0.082 HD
ENDBRANCH  23  30
ENDBRANCH  22  23
ENDBRANCH   1  22
TORSDOF 6
