REMARK  Name = ZINC64028630
REMARK  6 active torsions:
REMARK  status: ('A' for Active; 'I' for Inactive)
REMARK    1  A    between atoms: C_1  and  C_2
REMARK    2  A    between atoms: C_4  and  C_12
REMARK    3  A    between atoms: C_12  and  C_13
REMARK    4  A    between atoms: N_18  and  C_21
REMARK    5  A    between atoms: C_24  and  C_28
REMARK    6  A    between atoms: C_28  and  C_30
REMARK                            x       y       z     vdW  Elec       q    Type
REMARK                         _______ _______ _______ _____ _____    ______ ____
ROOT
ATOM      1  C   UNL     1       1.414  -0.845  -3.563  0.00  0.00    +0.220 C 
ATOM      2  O   UNL     1       2.338  -1.469  -3.086  0.00  0.00    -0.275 OA
ATOM      3  N   UNL     1       1.342  -0.662  -4.897  0.00  0.00    -0.298 N 
ATOM      4  C   UNL     1       0.231   0.097  -5.489  0.00  0.00    +0.126 C 
ATOM      5  C   UNL     1       0.812   1.236  -6.336  0.00  0.00    +0.124 C 
ATOM      6  N   UNL     1       1.843   0.681  -7.224  0.00  0.00    -0.325 N 
ATOM      7  C   UNL     1       2.954  -0.077  -6.632  0.00  0.00    +0.124 C 
ATOM      8  C   UNL     1       2.377  -1.211  -5.784  0.00  0.00    +0.126 C 
ENDROOT
BRANCH   6   9
ATOM      9  C   UNL     1       1.770   0.871  -8.599  0.00  0.00    +0.065 A 
ATOM     10  C   UNL     1       2.376   1.981  -9.181  0.00  0.00    +0.027 A 
ATOM     11  C   UNL     1       2.308   2.174 -10.531  0.00  0.00    +0.013 A 
ATOM     12  C   UNL     1       1.627   1.253 -11.338  0.00  0.00    +0.020 A 
ATOM     13  C   UNL     1       1.015   0.135 -10.755  0.00  0.00    +0.051 A 
ATOM     14  C   UNL     1       1.093  -0.055  -9.393  0.00  0.00    +0.145 A 
ATOM     15  F   UNL     1       0.510  -1.134  -8.827  0.00  0.00    -0.204 F 
BRANCH  12  16
ATOM     16  C   UNL     1       1.553   1.460 -12.789  0.00  0.00    +0.160 C 
ATOM     17  O   UNL     1       2.166   2.372 -13.303  0.00  0.00    -0.292 OA
ATOM     18  C   UNL     1       0.716   0.540 -13.639  0.00  0.00    +0.091 C 
ENDBRANCH  12  16
ENDBRANCH   6   9
BRANCH   1  19
ATOM     19  C   UNL     1       0.345  -0.276  -2.666  0.00  0.00    +0.129 C 
BRANCH  19  22
ATOM     20  C   UNL     1      -1.064  -2.007  -0.315  0.00  0.00    +0.035 C 
ATOM     21  C   UNL     1       0.443  -1.762  -0.412  0.00  0.00    +0.104 C 
ATOM     22  C   UNL     1       0.718  -0.517  -1.226  0.00  0.00    -0.030 C 
ATOM     23  C   UNL     1       1.366   0.335  -0.400  0.00  0.00    -0.000 A 
ATOM     24  C   UNL     1       1.898   1.690  -0.587  0.00  0.00    +0.010 A 
ATOM     25  C   UNL     1       2.512   2.303   0.450  0.00  0.00    +0.001 A 
ATOM     26  C   UNL     1       2.652   1.679   1.697  0.00  0.00    +0.002 A 
ATOM     27  C   UNL     1       2.190   0.435   1.946  0.00  0.00    +0.026 A 
ATOM     28  C   UNL     1       1.527  -0.303   0.927  0.00  0.00    +0.043 A 
ATOM     29  N   UNL     1       1.000  -1.504   0.921  0.00  0.00    -0.378 N 
ATOM     30  H   UNL     1       0.981  -2.119   1.671  0.00  0.00    +0.160 HD
ENDBRANCH  19  22
ENDBRANCH   1  19
TORSDOF 4
