REMARK  Name = ZINC08624253
REMARK  10 active torsions:
REMARK  status: ('A' for Active; 'I' for Inactive)
REMARK    1  A    between atoms: C_1  and  C_2
REMARK    2  A    between atoms: C_2  and  C_3
REMARK    3  A    between atoms: C_2  and  N_4
REMARK    4  A    between atoms: C_5  and  C_7
REMARK    5  A    between atoms: C_7  and  C_8
REMARK    6  A    between atoms: C_10  and  O_28
REMARK    7  A    between atoms: C_12  and  O_27
REMARK    8  A    between atoms: C_14  and  C_17
REMARK    9  A    between atoms: C_17  and  N_18
REMARK   10  A    between atoms: C_19  and  C_21
REMARK                            x       y       z     vdW  Elec       q    Type
REMARK                         _______ _______ _______ _____ _____    ______ ____
ROOT
ATOM      1  C   UNL     1       2.315   2.514  -1.994  0.00  0.00    +0.158 C 
ATOM      2  C   UNL     1       2.056   1.168  -1.283  0.00  0.00    +0.175 C 
ATOM      3  C   UNL     1       1.286   1.562  -0.002  0.00  0.00    +0.176 C 
ATOM      4  C   UNL     1       1.172   3.100  -0.091  0.00  0.00    +0.167 C 
ATOM      5  O   UNL     1       2.267   3.502  -0.942  0.00  0.00    -0.366 OA
ENDROOT
BRANCH   3   6
ATOM      6  O   UNL     1      -0.011   0.963   0.007  0.00  0.00    -0.387 OA
ATOM      7  H   UNL     1       0.002  -0.004   0.002  0.00  0.00    +0.210 HD
ENDBRANCH   3   6
BRANCH   2   8
ATOM      8  O   UNL     1       1.258   0.311  -2.102  0.00  0.00    -0.387 OA
ATOM      9  H   UNL     1       1.016  -0.525  -1.679  0.00  0.00    +0.210 HD
ENDBRANCH   2   8
BRANCH   1  10
ATOM     10  C   UNL     1       3.693   2.509  -2.658  0.00  0.00    +0.130 C 
BRANCH  10  12
ATOM     11  N   UNL     1       5.023   3.996  -4.121  0.00  0.00    -0.313 N 
ATOM     12  C   UNL     1       3.876   3.780  -3.447  0.00  0.00    +0.216 C 
ATOM     13  O   UNL     1       2.990   4.608  -3.475  0.00  0.00    -0.276 OA
ATOM     14  H   UNL     1       5.731   3.334  -4.098  0.00  0.00    +0.149 HD
BRANCH  11  16
ATOM     15  C   UNL     1       6.693   5.538  -5.023  0.00  0.00    +0.027 C 
ATOM     16  C   UNL     1       5.200   5.231  -4.888  0.00  0.00    +0.067 C 
ATOM     17  C   UNL     1       4.587   5.061  -6.279  0.00  0.00    +0.027 C 
ENDBRANCH  11  16
ENDBRANCH  10  12
ENDBRANCH   1  10
BRANCH   4  18
ATOM     18  C   UNL     1       1.318   3.726   1.297  0.00  0.00    +0.138 C 
BRANCH  18  19
ATOM     19  N   UNL     1       1.088   5.170   1.208  0.00  0.00    -0.309 N 
ATOM     20  C   UNL     1       1.165   5.934   2.316  0.00  0.00    +0.244 C 
ATOM     21  O   UNL     1       1.426   5.426   3.388  0.00  0.00    -0.270 OA
ATOM     22  H   UNL     1       0.880   5.576   0.352  0.00  0.00    +0.149 HD
BRANCH  20  23
ATOM     23  C   UNL     1       0.933   7.392   2.226  0.00  0.00    +0.037 A 
ATOM     24  C   UNL     1       0.640   7.980   0.994  0.00  0.00    +0.013 A 
ATOM     25  C   UNL     1       0.420   9.340   0.918  0.00  0.00    +0.001 A 
ATOM     26  C   UNL     1       0.500  10.122   2.057  0.00  0.00    +0.000 A 
ATOM     27  C   UNL     1       0.795   9.546   3.280  0.00  0.00    +0.001 A 
ATOM     28  C   UNL     1       1.012   8.186   3.370  0.00  0.00    +0.013 A 
ENDBRANCH  20  23
ENDBRANCH  18  19
ENDBRANCH   4  18
TORSDOF 8
