REMARK  Name = ZINC13057322
REMARK  9 active torsions:
REMARK  status: ('A' for Active; 'I' for Inactive)
REMARK    1  A    between atoms: C_1  and  N_55
REMARK    2  A    between atoms: C_2  and  C_3
REMARK    3  A    between atoms: C_2  and  N_55
REMARK    4  A    between atoms: C_3  and  C_4
REMARK    5  A    between atoms: N_6  and  C_7
REMARK    6  A    between atoms: C_8  and  C_17
REMARK    7  A    between atoms: C_19  and  C_20
REMARK    8  A    between atoms: C_19  and  N_55
REMARK    9  A    between atoms: N_22  and  C_23
REMARK                            x       y       z     vdW  Elec       q    Type
REMARK                         _______ _______ _______ _____ _____    ______ ____
ROOT
ATOM      1  C   UNL     1       5.907   2.440  -0.331  0.00  0.00    +0.077 C 
ENDROOT
BRANCH   1   2
ATOM      2  C   UNL     1       7.257   1.785  -0.479  0.00  0.00    +0.216 C 
ATOM      3  O   UNL     1       7.361   0.581  -0.379  0.00  0.00    -0.276 OA
ATOM      4  N   UNL     1       8.348   2.538  -0.723  0.00  0.00    -0.279 N 
ATOM      5  H   UNL     1       8.264   3.502  -0.803  0.00  0.00    +0.155 HD
BRANCH   4   6
ATOM      6  C   UNL     1       9.591   1.936  -0.859  0.00  0.00    +0.090 A 
ATOM      7  C   UNL     1      10.814   2.534  -1.114  0.00  0.00    +0.084 A 
ATOM      8  C   UNL     1      11.984   1.672  -1.205  0.00  0.00    -0.018 A 
ATOM      9  C   UNL     1      11.734   0.354  -1.043  0.00  0.00    -0.004 A 
ATOM     10  S   UNL     1       9.988   0.253  -0.759  0.00  0.00    -0.077 S 
ATOM     11  C   UNL     1      12.712  -0.777  -1.105  0.00  0.00    +0.043 C 
ATOM     12  C   UNL     1      13.929  -0.443  -0.232  0.00  0.00    +0.005 C 
ATOM     13  C   UNL     1      14.951   0.295  -1.090  0.00  0.00    +0.001 C 
ATOM     14  C   UNL     1      14.239   1.149  -2.138  0.00  0.00    +0.005 C 
ATOM     15  C   UNL     1      13.384   2.215  -1.463  0.00  0.00    +0.037 C 
BRANCH   7  16
ATOM     16  C   UNL     1      10.925   3.952  -1.278  0.00  0.00    +0.102 C 
ATOM     17  N   UNL     1      11.012   5.077  -1.408  0.00  0.00    -0.191 NA
ENDBRANCH   7  16
ENDBRANCH   4   6
ENDBRANCH   1   2
BRANCH   1  18
ATOM     18  C   UNL     1       4.848   1.369  -0.062  0.00  0.00    -0.069 C 
BRANCH  18  20
ATOM     19  C   UNL     1       3.486   2.853   1.282  0.00  0.00    -0.096 C 
ATOM     20  N   UNL     1       3.528   2.023   0.059  0.00  0.00    +0.384 N 
ATOM     21  H   UNL     1       3.379   2.626  -0.759  0.00  0.00    -0.082 HD
BRANCH  20  22
ATOM     22  C   UNL     1       2.460   1.003   0.104  0.00  0.00    +0.018 C 
BRANCH  22  23
ATOM     23  C   UNL     1       1.124   1.692   0.005  0.00  0.00    +0.201 C 
ATOM     24  O   UNL     1       1.070   2.901  -0.076  0.00  0.00    -0.278 OA
ATOM     25  N   UNL     1      -0.011   0.966   0.007  0.00  0.00    -0.287 N 
ATOM     26  H   UNL     1       0.033  -0.003   0.005  0.00  0.00    +0.155 HD
BRANCH  25  27
ATOM     27  C   UNL     1      -1.254   1.610   0.007  0.00  0.00    +0.033 A 
ATOM     28  C   UNL     1      -2.325   1.054   0.695  0.00  0.00    +0.026 A 
ATOM     29  C   UNL     1      -3.550   1.693   0.698  0.00  0.00    +0.040 A 
ATOM     30  C   UNL     1      -3.712   2.882   0.006  0.00  0.00    +0.124 A 
ATOM     31  C   UNL     1      -2.647   3.435  -0.684  0.00  0.00    +0.040 A 
ATOM     32  C   UNL     1      -1.420   2.802  -0.685  0.00  0.00    +0.026 A 
ATOM     33  F   UNL     1      -4.912   3.503   0.006  0.00  0.00    -0.205 F 
ENDBRANCH  25  27
ENDBRANCH  22  23
ENDBRANCH  20  22
ENDBRANCH  18  20
ENDBRANCH   1  18
TORSDOF 8
