REMARK  Name = ZINC01294096
REMARK  5 active torsions:
REMARK  status: ('A' for Active; 'I' for Inactive)
REMARK    1  A    between atoms: C_1  and  O_2
REMARK    2  A    between atoms: O_2  and  C_3
REMARK    3  A    between atoms: C_6  and  N_9
REMARK    4  A    between atoms: C_13  and  C_18
REMARK    5  A    between atoms: C_18  and  N_49
REMARK                            x       y       z     vdW  Elec       q    Type
REMARK                         _______ _______ _______ _____ _____    ______ ____
ROOT
ATOM      1  N   UNL     1      -2.867  -1.481  -4.378  0.00  0.00    -0.213 NA
ATOM      2  C   UNL     1      -2.859  -0.688  -3.319  0.00  0.00    +0.233 A 
ATOM      3  N   UNL     1      -2.145  -1.035  -2.190  0.00  0.00    -0.314 N 
ATOM      4  H   UNL     1      -1.642  -1.864  -2.162  0.00  0.00    +0.170 HD
ATOM      5  C   UNL     1      -2.154  -0.204  -1.123  0.00  0.00    +0.097 A 
ATOM      6  N   UNL     1      -2.838   0.910  -1.167  0.00  0.00    -0.204 NA
ATOM      7  C   UNL     1      -3.529   1.252  -2.265  0.00  0.00    +0.217 A 
ATOM      8  N   UNL     1      -3.544   0.466  -3.329  0.00  0.00    -0.179 NA
ATOM      9  N   UNL     1      -4.233   2.431  -2.283  0.00  0.00    -0.327 N 
ATOM     10  H   UNL     1      -4.738   2.683  -3.072  0.00  0.00    +0.145 HD
ATOM     11  H   UNL     1      -4.226   3.013  -1.506  0.00  0.00    +0.145 HD
ENDROOT
BRANCH   1  15
ATOM     12  C   UNL     1      -0.482  -4.865  -4.448  0.00  0.00    +0.120 A 
ATOM     13  C   UNL     1      -1.806  -4.960  -4.043  0.00  0.00    +0.048 A 
ATOM     14  C   UNL     1      -2.605  -3.836  -4.018  0.00  0.00    +0.031 A 
ATOM     15  C   UNL     1      -2.079  -2.599  -4.400  0.00  0.00    +0.068 A 
ATOM     16  C   UNL     1      -0.747  -2.510  -4.812  0.00  0.00    +0.031 A 
ATOM     17  C   UNL     1       0.045  -3.639  -4.829  0.00  0.00    +0.048 A 
BRANCH  12  19
ATOM     18  C   UNL     1       1.654  -5.807  -4.898  0.00  0.00    +0.277 C 
ATOM     19  O   UNL     1       0.301  -5.976  -4.471  0.00  0.00    -0.495 OA
ENDBRANCH  12  19
ENDBRANCH   1  15
BRANCH   5  20
ATOM     20  C   UNL     1      -1.381  -0.565   0.120  0.00  0.00    -0.003 C 
BRANCH  20  30
ATOM     21  C   UNL     1       0.829  -0.536   1.113  0.00  0.00    -0.073 C 
ATOM     22  C   UNL     1       2.291  -0.253   0.764  0.00  0.00    +0.017 C 
ATOM     23  C   UNL     1       2.456   1.194   0.375  0.00  0.00    -0.048 A 
ATOM     24  C   UNL     1       3.733   1.735   0.365  0.00  0.00    +0.004 A 
ATOM     25  C   UNL     1       3.929   3.055   0.011  0.00  0.00    +0.000 A 
ATOM     26  C   UNL     1       2.846   3.842  -0.336  0.00  0.00    +0.000 A 
ATOM     27  C   UNL     1       1.574   3.305  -0.324  0.00  0.00    +0.002 A 
ATOM     28  C   UNL     1       1.376   1.979   0.033  0.00  0.00    -0.061 A 
ATOM     29  C   UNL     1      -0.031   1.440   0.033  0.00  0.00    -0.042 C 
ATOM     30  N   UNL     1      -0.005  -0.032   0.003  0.00  0.00    +0.387 N 
ATOM     31  H   UNL     1       0.399  -0.343  -0.888  0.00  0.00    -0.081 HD
ENDBRANCH  20  30
ENDBRANCH   5  20
TORSDOF 4
