REMARK  Name = ZINC40225928
REMARK  6 active torsions:
REMARK  status: ('A' for Active; 'I' for Inactive)
REMARK    1  A    between atoms: C_3  and  O_22
REMARK    2  A    between atoms: C_4  and  O_21
REMARK    3  A    between atoms: C_6  and  C_7
REMARK    4  A    between atoms: C_7  and  C_8
REMARK    5  A    between atoms: C_8  and  C_10
REMARK    6  A    between atoms: C_8  and  N_20
REMARK                            x       y       z     vdW  Elec       q    Type
REMARK                         _______ _______ _______ _____ _____    ______ ____
ROOT
ATOM      1  C   UNL     1      -1.746  -1.026  -1.429  0.00  0.00    -0.014 C 
ENDROOT
BRANCH   1   2
ATOM      2  C   UNL     1      -3.100  -1.687  -1.422  0.00  0.00    +0.065 A 
ATOM      3  N   UNL     1      -3.384  -2.922  -1.127  0.00  0.00    -0.246 NA
ATOM      4  C   UNL     1      -4.646  -3.396  -1.157  0.00  0.00    +0.079 A 
ATOM      5  C   UNL     1      -5.133  -4.689  -0.872  0.00  0.00    +0.044 A 
ATOM      6  C   UNL     1      -6.474  -4.963  -0.966  0.00  0.00    +0.020 A 
ATOM      7  C   UNL     1      -7.388  -3.987  -1.342  0.00  0.00    +0.016 A 
ATOM      8  C   UNL     1      -6.942  -2.711  -1.629  0.00  0.00    +0.018 A 
ATOM      9  C   UNL     1      -5.601  -2.427  -1.536  0.00  0.00    +0.039 A 
ATOM     10  S   UNL     1      -4.589  -0.992  -1.787  0.00  0.00    -0.074 S 
ATOM     11 BR   UNL     1      -7.092  -6.707  -0.576  0.00  0.00    -0.050 Br
ENDBRANCH   1   2
BRANCH   1  12
ATOM     12  N   UNL     1      -0.777  -1.903  -2.100  0.00  0.00    +0.384 N 
ATOM     13  H   UNL     1      -0.720  -2.782  -1.606  0.00  0.00    -0.089 HD
ATOM     14  H   UNL     1      -1.075  -2.070  -3.050  0.00  0.00    -0.089 HD
ATOM     15  H   UNL     1       0.130  -1.461  -2.105  0.00  0.00    -0.089 HD
ENDBRANCH   1  12
BRANCH   1  16
ATOM     16  C   UNL     1      -1.294  -0.774   0.010  0.00  0.00    +0.025 C 
BRANCH  16  22
ATOM     17  C   UNL     1      -0.017   1.378   0.010  0.00  0.00    +0.007 A 
ATOM     18  C   UNL     1       1.170   2.089   0.002  0.00  0.00    +0.049 A 
ATOM     19  C   UNL     1       2.380   1.415  -0.013  0.00  0.00    +0.158 A 
ATOM     20  C   UNL     1       2.399   0.024  -0.021  0.00  0.00    +0.158 A 
ATOM     21  C   UNL     1       1.207  -0.682  -0.013  0.00  0.00    +0.052 A 
ATOM     22  C   UNL     1       0.002  -0.004   0.002  0.00  0.00    -0.045 A 
BRANCH  20  23
ATOM     23  O   UNL     1       3.585  -0.642  -0.036  0.00  0.00    -0.503 OA
ATOM     24  H   UNL     1       3.937  -0.839   0.843  0.00  0.00    +0.292 HD
ENDBRANCH  20  23
BRANCH  19  25
ATOM     25  O   UNL     1       3.548   2.113  -0.021  0.00  0.00    -0.503 OA
ATOM     26  H   UNL     1       3.894   2.310   0.860  0.00  0.00    +0.292 HD
ENDBRANCH  19  25
ENDBRANCH  16  22
ENDBRANCH   1  16
TORSDOF 6
