REMARK  Name = ZINC39007003
REMARK  6 active torsions:
REMARK  status: ('A' for Active; 'I' for Inactive)
REMARK    1  A    between atoms: C_1  and  N_2
REMARK    2  A    between atoms: N_2  and  C_3
REMARK    3  A    between atoms: N_2  and  C_4
REMARK    4  A    between atoms: C_7  and  C_10
REMARK    5  A    between atoms: N_16  and  N_17
REMARK    6  A    between atoms: C_18  and  C_19
REMARK                            x       y       z     vdW  Elec       q    Type
REMARK                         _______ _______ _______ _____ _____    ______ ____
ROOT
ATOM      1  C   UNL     1      -5.076  -3.021   0.169  0.00  0.00    +0.264 C 
ATOM      2  N   UNL     1      -5.184  -4.375  -0.395  0.00  0.00    -0.189 NA
ATOM      3  N   UNL     1      -6.085  -4.368  -1.239  0.00  0.00    -0.219 N 
ATOM      4  C   UNL     1      -6.680  -3.153  -1.383  0.00  0.00    +0.174 C 
ATOM      5  S   UNL     1      -7.959  -2.811  -2.469  0.00  0.00    -0.015 S 
ATOM      6  N   UNL     1      -6.115  -2.254  -0.543  0.00  0.00    -0.172 N 
ATOM      7  H   UNL     1      -6.342  -5.151  -1.749  0.00  0.00    +0.176 HD
ENDROOT
BRANCH   1  11
ATOM      8  C   UNL     1      -1.206  -1.379  -0.603  0.00  0.00    +0.029 A 
ATOM      9  C   UNL     1      -1.353  -2.743  -0.387  0.00  0.00    +0.023 A 
ATOM     10  C   UNL     1      -2.605  -3.271  -0.137  0.00  0.00    +0.009 A 
ATOM     11  C   UNL     1      -3.712  -2.442  -0.103  0.00  0.00    -0.002 A 
ATOM     12  C   UNL     1      -3.569  -1.083  -0.317  0.00  0.00    +0.009 A 
ATOM     13  C   UNL     1      -2.319  -0.549  -0.562  0.00  0.00    +0.023 A 
BRANCH   8  15
ATOM     14  C   UNL     1       0.212   0.597  -1.077  0.00  0.00    +0.129 C 
ATOM     15  N   UNL     1       0.058  -0.843  -0.856  0.00  0.00    -0.336 N 
ATOM     16  C   UNL     1       1.231  -1.720  -0.899  0.00  0.00    +0.129 C 
ENDBRANCH   8  15
ENDBRANCH   1  11
BRANCH   6  17
ATOM     17  N   UNL     1      -6.442  -0.901  -0.384  0.00  0.00    -0.183 NA
ATOM     18  C   UNL     1      -7.300  -0.342  -1.183  0.00  0.00    +0.140 C 
BRANCH  18  19
ATOM     19  C   UNL     1      -7.767   1.031  -0.920  0.00  0.00    +0.014 A 
ATOM     20  C   UNL     1      -8.694   1.633  -1.774  0.00  0.00    +0.011 A 
ATOM     21  C   UNL     1      -9.127   2.918  -1.522  0.00  0.00    +0.002 A 
ATOM     22  C   UNL     1      -8.646   3.613  -0.426  0.00  0.00    +0.021 A 
ATOM     23  C   UNL     1      -7.726   3.024   0.425  0.00  0.00    +0.060 A 
ATOM     24  C   UNL     1      -7.288   1.735   0.189  0.00  0.00    +0.068 A 
ATOM     25 CL   UNL     1      -6.140   0.995   1.261  0.00  0.00    -0.081 Cl
ATOM     26 CL   UNL     1      -7.128   3.905   1.797  0.00  0.00    -0.082 Cl
ENDBRANCH  18  19
ENDBRANCH   6  17
TORSDOF 4
