REMARK  Name = ZINC65189226
REMARK  5 active torsions:
REMARK  status: ('A' for Active; 'I' for Inactive)
REMARK    1  A    between atoms: C_1  and  C_2
REMARK    2  A    between atoms: C_2  and  N_3
REMARK    3  A    between atoms: N_6  and  N_7
REMARK    4  A    between atoms: C_8  and  C_10
REMARK    5  A    between atoms: C_10  and  C_16
REMARK                            x       y       z     vdW  Elec       q    Type
REMARK                         _______ _______ _______ _____ _____    ______ ____
ROOT
ATOM      1  C   UNL     1       3.431  -1.041  -5.670  0.00  0.00    +0.079 C 
ATOM      2  C   UNL     1       4.778  -0.410  -5.304  0.00  0.00    +0.049 C 
ATOM      3  C   UNL     1       5.787  -1.521  -5.002  0.00  0.00    +0.161 C 
ATOM      4  O   UNL     1       5.901  -2.382  -6.138  0.00  0.00    -0.380 OA
ATOM      5  C   UNL     1       4.682  -3.036  -6.497  0.00  0.00    +0.161 C 
ATOM      6  C   UNL     1       3.629  -1.986  -6.860  0.00  0.00    +0.049 C 
ENDROOT
BRANCH   1   7
ATOM      7  C   UNL     1       2.451   0.041  -6.044  0.00  0.00    -0.014 A 
ATOM      8  C   UNL     1       1.950   0.105  -7.331  0.00  0.00    +0.007 A 
ATOM      9  C   UNL     1       1.051   1.097  -7.674  0.00  0.00    +0.020 A 
ATOM     10  C   UNL     1       0.651   2.027  -6.730  0.00  0.00    +0.042 A 
ATOM     11  C   UNL     1       1.152   1.962  -5.442  0.00  0.00    +0.040 A 
ATOM     12  C   UNL     1       2.048   0.966  -5.098  0.00  0.00    +0.047 A 
ATOM     13 CL   UNL     1       2.672   0.881  -3.480  0.00  0.00    -0.083 Cl
ATOM     14 CL   UNL     1      -0.477   3.273  -7.161  0.00  0.00    -0.083 Cl
ENDBRANCH   1   7
BRANCH   1  16
ATOM     15  N   UNL     1       1.785  -2.561  -4.623  0.00  0.00    -0.232 N 
ATOM     16  C   UNL     1       2.901  -1.817  -4.492  0.00  0.00    +0.240 C 
ATOM     17  O   UNL     1       3.479  -1.771  -3.427  0.00  0.00    -0.273 OA
ATOM     18  H   UNL     1       1.282  -2.540  -5.452  0.00  0.00    +0.173 HD
BRANCH  15  22
ATOM     19  N   UNL     1      -0.277  -4.313  -4.938  0.00  0.00    -0.298 N 
ATOM     20  C   UNL     1       0.296  -4.187  -3.725  0.00  0.00    +0.316 C 
ATOM     21  O   UNL     1      -0.138  -4.816  -2.779  0.00  0.00    -0.251 OA
ATOM     22  N   UNL     1       1.351  -3.364  -3.560  0.00  0.00    -0.218 N 
ATOM     23  H   UNL     1       0.021  -3.758  -5.676  0.00  0.00    +0.150 HD
ATOM     24  H   UNL     1       1.809  -3.329  -2.706  0.00  0.00    +0.174 HD
BRANCH  19  26
ATOM     25  C   UNL     1      -1.824  -5.229  -6.597  0.00  0.00    +0.024 C 
ATOM     26  C   UNL     1      -1.352  -5.288  -5.143  0.00  0.00    +0.102 C 
ENDBRANCH  19  26
ENDBRANCH  15  22
ENDBRANCH   1  16
TORSDOF 4
