REMARK  Name = ZINC07656920
REMARK  9 active torsions:
REMARK  status: ('A' for Active; 'I' for Inactive)
REMARK    1  A    between atoms: C_1  and  C_2
REMARK    2  A    between atoms: C_8  and  N_10
REMARK    3  A    between atoms: C_14  and  C_16
REMARK    4  A    between atoms: C_16  and  O_17
REMARK    5  A    between atoms: O_17  and  C_18
REMARK    6  A    between atoms: C_18  and  C_20
REMARK    7  A    between atoms: C_23  and  N_28
REMARK    8  A    between atoms: C_25  and  O_26
REMARK    9  A    between atoms: O_26  and  C_27
REMARK                            x       y       z     vdW  Elec       q    Type
REMARK                         _______ _______ _______ _____ _____    ______ ____
ROOT
ATOM      1  C   UNL     1       4.790   4.720  -0.020  0.00  0.00    +0.328 C 
ENDROOT
BRANCH   1   6
ATOM      2  N   UNL     1       9.552   4.065  -0.069  0.00  0.00    -0.296 N 
ATOM      3  C   UNL     1       8.312   3.535  -0.060  0.00  0.00    +0.306 C 
ATOM      4  O   UNL     1       8.166   2.329  -0.065  0.00  0.00    -0.252 OA
ATOM      5  N   UNL     1       7.234   4.344  -0.045  0.00  0.00    -0.237 N 
ATOM      6  C   UNL     1       5.995   3.815  -0.036  0.00  0.00    +0.258 C 
ATOM      7  O   UNL     1       5.849   2.612  -0.041  0.00  0.00    -0.272 OA
ATOM      8  H   UNL     1       9.668   5.028  -0.066  0.00  0.00    +0.151 HD
ATOM      9  H   UNL     1       7.351   5.307  -0.042  0.00  0.00    +0.159 HD
BRANCH   2  16
ATOM     10  C   UNL     1      11.604   4.321   1.959  0.00  0.00    +0.009 C 
ATOM     11  C   UNL     1      11.922   3.922   0.516  0.00  0.00    +0.006 C 
ATOM     12  C   UNL     1      12.215   5.177  -0.307  0.00  0.00    +0.005 C 
ATOM     13  C   UNL     1      12.534   4.778  -1.750  0.00  0.00    +0.000 C 
ATOM     14  C   UNL     1      11.335   4.041  -2.351  0.00  0.00    +0.002 C 
ATOM     15  C   UNL     1      11.042   2.786  -1.528  0.00  0.00    +0.022 C 
ATOM     16  C   UNL     1      10.723   3.185  -0.085  0.00  0.00    +0.077 C 
ENDBRANCH   2  16
ENDBRANCH   1   6
BRANCH   1  17
ATOM     17  O   UNL     1       3.581   3.916  -0.012  0.00  0.00    -0.452 OA
BRANCH  17  18
ATOM     18  C   UNL     1       2.406   4.576   0.003  0.00  0.00    +0.343 C 
ATOM     19  O   UNL     1       2.392   5.792   0.009  0.00  0.00    -0.245 OA
BRANCH  18  20
ATOM     20  C   UNL     1       1.141   3.827   0.011  0.00  0.00    +0.102 A 
ATOM     21  C   UNL     1       1.153   2.427   0.004  0.00  0.00    +0.040 A 
ATOM     22  C   UNL     1      -0.021   1.732   0.012  0.00  0.00    +0.063 A 
ATOM     23  C   UNL     1      -1.241   2.409   0.021  0.00  0.00    +0.047 A 
ATOM     24  C   UNL     1      -1.270   3.798   0.034  0.00  0.00    +0.070 A 
ATOM     25  C   UNL     1      -0.085   4.513   0.026  0.00  0.00    +0.136 A 
ATOM     26 CL   UNL     1       0.002  -0.004   0.002  0.00  0.00    -0.082 Cl
BRANCH  23  27
ATOM     27  N   UNL     1      -2.432   1.691   0.023  0.00  0.00    -0.357 N 
ATOM     28  H   UNL     1      -2.414   0.722   0.018  0.00  0.00    +0.142 HD
ATOM     29  H   UNL     1      -3.281   2.161   0.030  0.00  0.00    +0.142 HD
ENDBRANCH  23  27
BRANCH  25  30
ATOM     30  O   UNL     1      -0.106   5.869   0.033  0.00  0.00    -0.494 OA
ATOM     31  C   UNL     1      -1.390   6.497   0.048  0.00  0.00    +0.277 C 
ENDBRANCH  25  30
ENDBRANCH  18  20
ENDBRANCH  17  18
ENDBRANCH   1  17
TORSDOF 7
