REMARK  Name = ZINC63270435
REMARK  7 active torsions:
REMARK  status: ('A' for Active; 'I' for Inactive)
REMARK    1  A    between atoms: C_4  and  C_7
REMARK    2  A    between atoms: C_13  and  O_19
REMARK    3  A    between atoms: O_19  and  C_20
REMARK    4  A    between atoms: C_20  and  C_21
REMARK    5  A    between atoms: N_23  and  C_24
REMARK    6  A    between atoms: C_24  and  C_25
REMARK    7  A    between atoms: C_25  and  C_26
REMARK                            x       y       z     vdW  Elec       q    Type
REMARK                         _______ _______ _______ _____ _____    ______ ____
ROOT
ATOM      1  C   UNL     1       3.711  -0.707  -0.038  0.00  0.00    +0.128 C 
ATOM      2  C   UNL     1       3.791  -1.607  -1.280  0.00  0.00    +0.245 C 
ATOM      3  O   UNL     1       2.731  -2.562  -1.239  0.00  0.00    -0.490 OA
ATOM      4  C   UNL     1       2.578  -3.317  -0.127  0.00  0.00    +0.134 A 
ATOM      5  C   UNL     1       1.908  -4.528  -0.197  0.00  0.00    +0.092 A 
ATOM      6  C   UNL     1       1.748  -5.297   0.946  0.00  0.00    +0.125 A 
ATOM      7  C   UNL     1       2.255  -4.864   2.168  0.00  0.00    +0.046 A 
ATOM      8  C   UNL     1       2.920  -3.674   2.255  0.00  0.00    +0.018 A 
ATOM      9  C   UNL     1       3.092  -2.889   1.110  0.00  0.00    +0.060 A 
ATOM     10  C   UNL     1       3.815  -1.609   1.179  0.00  0.00    +0.177 C 
ATOM     11  O   UNL     1       4.462  -1.291   2.156  0.00  0.00    -0.291 OA
ENDROOT
BRANCH   1  15
ATOM     12  C   UNL     1      -0.017   1.378   0.010  0.00  0.00    +0.000 A 
ATOM     13  C   UNL     1       1.171   2.086   0.002  0.00  0.00    +0.000 A 
ATOM     14  C   UNL     1       2.377   1.411  -0.013  0.00  0.00    +0.004 A 
ATOM     15  C   UNL     1       2.396   0.029  -0.020  0.00  0.00    -0.034 A 
ATOM     16  C   UNL     1       1.208  -0.679  -0.012  0.00  0.00    +0.004 A 
ATOM     17  C   UNL     1       0.002  -0.004   0.002  0.00  0.00    +0.000 A 
ENDBRANCH   1  15
BRANCH   6  18
ATOM     18  O   UNL     1       1.091  -6.482   0.873  0.00  0.00    -0.483 OA
BRANCH  18  19
ATOM     19  C   UNL     1       0.960  -7.227   2.085  0.00  0.00    +0.324 C 
BRANCH  19  20
ATOM     20  C   UNL     1       0.209  -8.505   1.811  0.00  0.00    +0.251 C 
ATOM     21  O   UNL     1      -0.176  -8.752   0.688  0.00  0.00    -0.272 OA
ATOM     22  N   UNL     1      -0.035  -9.371   2.813  0.00  0.00    -0.312 N 
ATOM     23  H   UNL     1       0.273  -9.173   3.712  0.00  0.00    +0.149 HD
BRANCH  22  24
ATOM     24  C   UNL     1      -0.766 -10.613   2.547  0.00  0.00    +0.110 C 
BRANCH  24  25
ATOM     25  C   UNL     1      -0.906 -11.411   3.845  0.00  0.00    +0.073 C 
BRANCH  25  26
ATOM     26  C   UNL     1      -1.658 -12.688   3.571  0.00  0.00    +0.035 A 
ATOM     27  H   UNL     1      -2.082 -15.659   2.718  0.00  0.00    +0.166 HD
ATOM     28  C   UNL     1      -1.123 -13.841   3.125  0.00  0.00    +0.105 A 
ATOM     29  N   UNL     1      -2.151 -14.738   3.015  0.00  0.00    -0.352 N 
ATOM     30  C   UNL     1      -3.279 -14.101   3.397  0.00  0.00    +0.171 A 
ATOM     31  N   UNL     1      -2.976 -12.877   3.733  0.00  0.00    -0.350 N 
ATOM     32  H   UNL     1      -3.604 -12.209   4.048  0.00  0.00    +0.166 HD
ENDBRANCH  25  26
ENDBRANCH  24  25
ENDBRANCH  22  24
ENDBRANCH  19  20
ENDBRANCH  18  19
ENDBRANCH   6  18
TORSDOF 7
