REMARK  Name = ZINC54201043
REMARK  9 active torsions:
REMARK  status: ('A' for Active; 'I' for Inactive)
REMARK    1  A    between atoms: C_1  and  C_2
REMARK    2  A    between atoms: C_2  and  C_3
REMARK    3  A    between atoms: C_2  and  C_4
REMARK    4  A    between atoms: C_10  and  C_12
REMARK    5  A    between atoms: C_12  and  C_14
REMARK    6  A    between atoms: C_12  and  N_21
REMARK    7  A    between atoms: C_14  and  C_15
REMARK    8  A    between atoms: N_21  and  S_22
REMARK    9  A    between atoms: S_22  and  C_25
REMARK                            x       y       z     vdW  Elec       q    Type
REMARK                         _______ _______ _______ _____ _____    ______ ____
ROOT
ATOM      1  C   UNL     1       3.560  -2.673   6.261  0.00  0.00    +0.167 C 
ENDROOT
BRANCH   1   8
ATOM      2  C   UNL     1       1.717   0.164   0.905  0.00  0.00    +0.106 A 
ATOM      3  N   UNL     1       2.945   0.139   1.381  0.00  0.00    -0.144 NA
ATOM      4  N   UNL     1       3.171  -0.468   2.467  0.00  0.00    -0.126 NA
ATOM      5  C   UNL     1       2.213  -1.077   3.137  0.00  0.00    +0.188 A 
ATOM      6  S   UNL     1       0.867  -0.772   2.168  0.00  0.00    -0.035 S 
ATOM      7  N   UNL     1       2.291  -1.782   4.333  0.00  0.00    -0.262 N 
ATOM      8  C   UNL     1       3.475  -1.909   4.964  0.00  0.00    +0.238 C 
ATOM      9  O   UNL     1       4.473  -1.408   4.489  0.00  0.00    -0.274 OA
ATOM     10  H   UNL     1       1.494  -2.182   4.713  0.00  0.00    +0.157 HD
BRANCH   2  12
ATOM     11  C   UNL     1       1.440   2.312  -0.302  0.00  0.00    +0.014 C 
ATOM     12  C   UNL     1       1.179   0.806  -0.348  0.00  0.00    +0.040 C 
ATOM     13  C   UNL     1       1.878   0.204  -1.570  0.00  0.00    +0.014 C 
ENDBRANCH   2  12
ENDBRANCH   1   8
BRANCH   1  14
ATOM     14  N   UNL     1       4.944  -2.666   6.742  0.00  0.00    -0.178 NA
ATOM     15  H   UNL     1       5.575  -3.325   6.412  0.00  0.00    +0.149 HD
BRANCH  14  16
ATOM     16  S   UNL     1       5.431  -1.534   7.848  0.00  0.00    +0.059 S 
ATOM     17  O   UNL     1       6.797  -1.804   8.131  0.00  0.00    -0.153 OA
ATOM     18  O   UNL     1       4.988  -0.275   7.362  0.00  0.00    -0.153 OA
BRANCH  16  19
ATOM     19  C   UNL     1       4.538  -1.842   9.335  0.00  0.00    +0.105 A 
ATOM     20  C   UNL     1       3.274  -1.307   9.506  0.00  0.00    +0.029 A 
ATOM     21  C   UNL     1       2.573  -1.549  10.672  0.00  0.00    +0.017 A 
ATOM     22  C   UNL     1       3.136  -2.326  11.669  0.00  0.00    +0.018 A 
ATOM     23  C   UNL     1       4.400  -2.860  11.498  0.00  0.00    +0.017 A 
ATOM     24  C   UNL     1       5.098  -2.623  10.329  0.00  0.00    +0.029 A 
ATOM     25 BR   UNL     1       2.177  -2.656  13.265  0.00  0.00    -0.050 Br
ENDBRANCH  16  19
ENDBRANCH  14  16
ENDBRANCH   1  14
BRANCH   1  26
ATOM     26  C   UNL     1       3.106  -4.116   6.033  0.00  0.00    +0.065 C 
BRANCH  26  27
ATOM     27  C   UNL     1       3.052  -4.840   7.353  0.00  0.00    -0.045 A 
ATOM     28  C   UNL     1       4.187  -5.449   7.855  0.00  0.00    +0.004 A 
ATOM     29  C   UNL     1       4.138  -6.113   9.066  0.00  0.00    +0.000 A 
ATOM     30  C   UNL     1       2.953  -6.168   9.776  0.00  0.00    +0.000 A 
ATOM     31  C   UNL     1       1.818  -5.558   9.275  0.00  0.00    +0.000 A 
ATOM     32  C   UNL     1       1.869  -4.891   8.066  0.00  0.00    +0.004 A 
ENDBRANCH  26  27
ENDBRANCH   1  26
TORSDOF 7
