REMARK  Name = ZINC03314656
REMARK  12 active torsions:
REMARK  status: ('A' for Active; 'I' for Inactive)
REMARK    1  A    between atoms: C_1  and  C_2
REMARK    2  A    between atoms: C_5  and  C_8
REMARK    3  A    between atoms: C_10  and  C_18
REMARK    4  A    between atoms: C_21  and  S_24
REMARK    5  A    between atoms: N_22  and  N_23
REMARK    6  A    between atoms: S_24  and  C_25
REMARK    7  A    between atoms: C_25  and  C_26
REMARK    8  A    between atoms: N_28  and  C_29
REMARK    9  A    between atoms: C_29  and  C_31
REMARK   10  A    between atoms: C_29  and  C_32
REMARK   11  A    between atoms: C_32  and  C_33
REMARK   12  A    between atoms: C_32  and  C_34
REMARK                            x       y       z     vdW  Elec       q    Type
REMARK                         _______ _______ _______ _____ _____    ______ ____
ROOT
ATOM      1  C   UNL     1       0.099  -7.089   2.469  0.00  0.00    +0.182 A 
ATOM      2  N   UNL     1       0.121  -8.397   2.592  0.00  0.00    -0.127 NA
ATOM      3  N   UNL     1       0.125  -8.720   3.836  0.00  0.00    -0.121 NA
ATOM      4  C   UNL     1       0.104  -7.636   4.584  0.00  0.00    +0.209 A 
ATOM      5  N   UNL     1       0.093  -6.563   3.742  0.00  0.00    -0.224 N 
ENDROOT
BRANCH   1   8
ATOM      6  C   UNL     1       0.060  -4.255  -0.021  0.00  0.00    +0.072 A 
ATOM      7  C   UNL     1       0.069  -4.936   1.200  0.00  0.00    +0.040 A 
ATOM      8  C   UNL     1       0.087  -6.327   1.206  0.00  0.00    +0.032 A 
ATOM      9  C   UNL     1       0.095  -7.005  -0.092  0.00  0.00    +0.011 A 
ATOM     10  C   UNL     1       0.112  -8.400  -0.188  0.00  0.00    +0.011 A 
ATOM     11  C   UNL     1       0.119  -8.991  -1.418  0.00  0.00    +0.001 A 
ATOM     12  C   UNL     1       0.108  -8.222  -2.578  0.00  0.00    +0.002 A 
ATOM     13  C   UNL     1       0.092  -6.861  -2.519  0.00  0.00    +0.028 A 
ATOM     14  C   UNL     1       0.084  -6.218  -1.269  0.00  0.00    +0.072 A 
ATOM     15  N   UNL     1       0.062  -4.885  -1.180  0.00  0.00    -0.247 NA
BRANCH   6  20
ATOM     16  C   UNL     1      -0.018   1.503   0.010  0.00  0.00    +0.044 C 
ATOM     17  C   UNL     1       0.002  -0.004   0.002  0.00  0.00    -0.050 A 
ATOM     18  C   UNL     1       0.006  -0.686  -1.201  0.00  0.00    +0.004 A 
ATOM     19  C   UNL     1       0.024  -2.066  -1.215  0.00  0.00    +0.010 A 
ATOM     20  C   UNL     1       0.040  -2.772  -0.013  0.00  0.00    +0.000 A 
ATOM     21  C   UNL     1       0.037  -2.079   1.196  0.00  0.00    +0.010 A 
ATOM     22  C   UNL     1       0.023  -0.699   1.198  0.00  0.00    +0.004 A 
ENDBRANCH   6  20
ENDBRANCH   1   8
BRANCH   5  23
ATOM     23  N   UNL     1       0.076  -5.242   4.089  0.00  0.00    -0.295 N 
ATOM     24  H   UNL     1      -0.870  -4.904   4.182  0.00  0.00    +0.163 HD
ATOM     25  H   UNL     1       0.602  -5.084   4.936  0.00  0.00    +0.163 HD
ENDBRANCH   5  23
BRANCH   4  26
ATOM     26  S   UNL     1       0.101  -7.582   6.345  0.00  0.00    -0.075 S 
BRANCH  26  27
ATOM     27  C   UNL     1       0.131  -9.328   6.838  0.00  0.00    +0.173 C 
BRANCH  27  28
ATOM     28  C   UNL     1       0.130  -9.426   8.341  0.00  0.00    +0.224 C 
ATOM     29  O   UNL     1       0.111  -8.417   9.015  0.00  0.00    -0.275 OA
ATOM     30  N   UNL     1       0.151 -10.634   8.938  0.00  0.00    -0.312 N 
ATOM     31  H   UNL     1       0.167 -11.441   8.400  0.00  0.00    +0.149 HD
BRANCH  30  32
ATOM     32  C   UNL     1       0.150 -10.729  10.400  0.00  0.00    +0.072 C 
ATOM     33  C   UNL     1      -1.289 -10.662  10.915  0.00  0.00    +0.028 C 
BRANCH  32  34
ATOM     34  C   UNL     1       0.783 -12.056  10.825  0.00  0.00    +0.003 C 
ATOM     35  C   UNL     1       2.223 -12.122  10.311  0.00  0.00    +0.009 C 
ATOM     36  C   UNL     1       0.782 -12.155  12.352  0.00  0.00    +0.009 C 
ENDBRANCH  32  34
ENDBRANCH  30  32
ENDBRANCH  27  28
ENDBRANCH  26  27
ENDBRANCH   4  26
TORSDOF 8
