REMARK  Name = ZINC02720033
REMARK  4 active torsions:
REMARK  status: ('A' for Active; 'I' for Inactive)
REMARK    1  A    between atoms: C_6  and  N_7
REMARK    2  A    between atoms: C_13  and  S_14
REMARK    3  A    between atoms: S_14  and  C_15
REMARK    4  A    between atoms: C_15  and  C_16
REMARK                            x       y       z     vdW  Elec       q    Type
REMARK                         _______ _______ _______ _____ _____    ______ ____
ROOT
ATOM      1  N   UNL     1       3.842   3.186   0.167  0.00  0.00    -0.255 N 
ATOM      2  C   UNL     1       2.603   3.103   0.703  0.00  0.00    +0.273 A 
ATOM      3  O   UNL     1       2.164   4.001   1.402  0.00  0.00    -0.266 OA
ATOM      4  C   UNL     1       1.834   1.961   0.437  0.00  0.00    +0.094 A 
ATOM      5  C   UNL     1       2.316   0.945  -0.363  0.00  0.00    +0.064 A 
ATOM      6  N   UNL     1       3.565   1.097  -0.853  0.00  0.00    -0.227 NA
ATOM      7  C   UNL     1       4.294   2.157  -0.607  0.00  0.00    +0.177 A 
ATOM      8  C   UNL     1       1.391  -0.223  -0.600  0.00  0.00    +0.068 C 
ATOM      9  C   UNL     1       0.275  -0.297   0.467  0.00  0.00    +0.081 C 
ATOM     10  S   UNL     1       0.203   1.477   0.954  0.00  0.00    -0.118 S 
ENDROOT
BRANCH   1  16
ATOM     11  C   UNL     1       4.592   5.396  -0.459  0.00  0.00    +0.027 A 
ATOM     12  C   UNL     1       5.383   6.504  -0.221  0.00  0.00    +0.017 A 
ATOM     13  C   UNL     1       6.236   6.525   0.868  0.00  0.00    +0.018 A 
ATOM     14  C   UNL     1       6.296   5.440   1.724  0.00  0.00    +0.017 A 
ATOM     15  C   UNL     1       5.504   4.332   1.494  0.00  0.00    +0.027 A 
ATOM     16  C   UNL     1       4.647   4.309   0.402  0.00  0.00    +0.052 A 
ATOM     17 BR   UNL     1       7.322   8.040   1.186  0.00  0.00    -0.050 Br
ENDBRANCH   1  16
BRANCH   7  18
ATOM     18  S   UNL     1       5.912   2.257  -1.298  0.00  0.00    -0.078 S 
BRANCH  18  19
ATOM     19  C   UNL     1       5.971   0.684  -2.190  0.00  0.00    +0.172 C 
BRANCH  19  20
ATOM     20  C   UNL     1       7.304   0.547  -2.879  0.00  0.00    +0.221 C 
ATOM     21  O   UNL     1       8.133   1.427  -2.777  0.00  0.00    -0.275 OA
ATOM     22  N   UNL     1       7.575  -0.553  -3.609  0.00  0.00    -0.329 N 
ATOM     23  H   UNL     1       6.913  -1.256  -3.691  0.00  0.00    +0.145 HD
ATOM     24  H   UNL     1       8.434  -0.641  -4.053  0.00  0.00    +0.145 HD
ENDBRANCH  19  20
ENDBRANCH  18  19
ENDBRANCH   7  18
TORSDOF 4
