REMARK  Name = ZINC50510123
REMARK  5 active torsions:
REMARK  status: ('A' for Active; 'I' for Inactive)
REMARK    1  A    between atoms: C_4  and  CA_7
REMARK    2  A    between atoms: CA_7  and  C_9
REMARK    3  A    between atoms: CA_7  and  N_12
REMARK    4  A    between atoms: N_12  and  C_13
REMARK    5  A    between atoms: C_13  and  C_14
REMARK                            x       y       z     vdW  Elec       q    Type
REMARK                         _______ _______ _______ _____ _____    ______ ____
ROOT
ATOM      1  N   UNL     1       3.611  -1.868  -0.933  0.00  0.00    +0.395 N 
ATOM      2  H1  UNL     1       2.943  -2.525  -0.558  0.00  0.00    -0.084 HD
ATOM      3  H2  UNL     1       3.308  -1.563  -1.846  0.00  0.00    -0.084 HD
ENDROOT
BRANCH   1   4
ATOM      4  CA  UNL     1       3.711  -0.707  -0.038  0.00  0.00    +0.075 C 
BRANCH   4   8
ATOM      5  C   UNL     1      -0.017   1.378   0.010  0.00  0.00    +0.000 A 
ATOM      6  C   UNL     1       1.171   2.086   0.002  0.00  0.00    +0.000 A 
ATOM      7  C   UNL     1       2.377   1.411  -0.013  0.00  0.00    +0.002 A 
ATOM      8  C   UNL     1       2.396   0.029  -0.020  0.00  0.00    -0.051 A 
ATOM      9  C   UNL     1       1.208  -0.679  -0.012  0.00  0.00    +0.002 A 
ATOM     10  C   UNL     1       0.002  -0.004   0.002  0.00  0.00    +0.000 A 
ENDBRANCH   4   8
BRANCH   4  11
ATOM     11  C   UNL     1       4.044  -1.175   1.356  0.00  0.00    +0.347 C 
ATOM     12  O   UNL     1       3.669  -2.270   1.737  0.00  0.00    -0.248 OA
ATOM     13  OXT UNL     1       4.688  -0.457   2.102  0.00  0.00    -0.248 OA
ENDBRANCH   4  11
ENDBRANCH   1   4
BRANCH   1  14
ATOM     14  C   UNL     1       4.925  -2.515  -1.043  0.00  0.00    -0.005 C 
BRANCH  14  15
ATOM     15  C   UNL     1       4.823  -3.706  -1.961  0.00  0.00    +0.091 A 
ATOM     16  C   UNL     1       5.016  -3.691  -3.292  0.00  0.00    +0.059 A 
ATOM     17  C   UNL     1       4.822  -5.016  -3.749  0.00  0.00    +0.070 A 
ATOM     18  C   UNL     1       4.521  -5.761  -2.669  0.00  0.00    +0.184 A 
ATOM     19  O   UNL     1       4.528  -4.962  -1.588  0.00  0.00    -0.454 OA
ATOM     20 BR   UNL     1       4.157  -7.616  -2.671  0.00  0.00    -0.007 Br
ATOM     21 BR   UNL     1       4.959  -5.623  -5.535  0.00  0.00    -0.046 Br
ENDBRANCH  14  15
ENDBRANCH   1  14
TORSDOF 5
