REMARK  Name = ZINC63386406
REMARK  12 active torsions:
REMARK  status: ('A' for Active; 'I' for Inactive)
REMARK    1  A    between atoms: C_1  and  C_2
REMARK    2  A    between atoms: C_6  and  O_8
REMARK    3  A    between atoms: O_8  and  C_9
REMARK    4  A    between atoms: C_9  and  C_11
REMARK    5  A    between atoms: C_12  and  C_36
REMARK    6  A    between atoms: C_14  and  C_19
REMARK    7  A    between atoms: C_19  and  C_20
REMARK    8  A    between atoms: N_22  and  C_23
REMARK    9  A    between atoms: C_23  and  C_24
REMARK   10  A    between atoms: C_24  and  C_25
REMARK   11  A    between atoms: C_28  and  O_34
REMARK   12  A    between atoms: O_34  and  C_35
REMARK                            x       y       z     vdW  Elec       q    Type
REMARK                         _______ _______ _______ _____ _____    ______ ____
ROOT
ATOM      1  C   UNL     1       1.776  -4.846  -1.474  0.00  0.00    +0.111 C 
ENDROOT
BRANCH   1  10
ATOM      2  C   UNL     1       0.146   1.473  -0.043  0.00  0.00    +0.044 C 
ATOM      3  C   UNL     1       0.078  -0.033  -0.032  0.00  0.00    -0.043 A 
ATOM      4  C   UNL     1      -0.002  -0.729  -1.221  0.00  0.00    +0.050 A 
ATOM      5  C   UNL     1      -0.067  -2.119  -1.218  0.00  0.00    +0.139 A 
ATOM      6  C   UNL     1      -0.056  -2.806  -0.018  0.00  0.00    +0.041 A 
ATOM      7  C   UNL     1       0.030  -2.101   1.177  0.00  0.00    +0.139 A 
ATOM      8  C   UNL     1       0.101  -0.717   1.169  0.00  0.00    +0.050 A 
ATOM      9  C   UNL     1      -0.147  -4.310   0.039  0.00  0.00    +0.037 C 
ATOM     10  C   UNL     1       0.256  -4.908  -1.312  0.00  0.00    +0.114 C 
ATOM     11  C   UNL     1      -0.411  -4.084  -2.395  0.00  0.00    +0.317 C 
ATOM     12  O   UNL     1      -1.156  -4.586  -3.203  0.00  0.00    -0.250 OA
ATOM     13  O   UNL     1      -0.135  -2.765  -2.414  0.00  0.00    -0.425 OA
ATOM     14  C   UNL     1      -1.585  -4.721   0.366  0.00  0.00    +0.013 C 
BRANCH   7  15
ATOM     15  O   UNL     1       0.049  -2.772   2.359  0.00  0.00    -0.426 OA
BRANCH  15  16
ATOM     16  C   UNL     1       1.224  -3.259   2.789  0.00  0.00    +0.309 C 
ATOM     17  O   UNL     1       2.240  -3.007   2.185  0.00  0.00    -0.251 OA
ATOM     18  C   UNL     1       1.276  -4.120   4.025  0.00  0.00    +0.136 C 
ENDBRANCH  15  16
ENDBRANCH   7  15
ENDBRANCH   1  10
BRANCH   1  19
ATOM     19  C   UNL     1       2.175  -5.545  -2.748  0.00  0.00    +0.214 C 
ATOM     20  O   UNL     1       1.327  -6.044  -3.457  0.00  0.00    -0.276 OA
ATOM     21  N   UNL     1       3.474  -5.616  -3.100  0.00  0.00    -0.315 N 
ATOM     22  H   UNL     1       4.152  -5.217  -2.533  0.00  0.00    +0.149 HD
BRANCH  21  23
ATOM     23  C   UNL     1       3.861  -6.296  -4.338  0.00  0.00    +0.108 C 
BRANCH  23  24
ATOM     24  C   UNL     1       5.381  -6.234  -4.500  0.00  0.00    +0.052 C 
BRANCH  24  25
ATOM     25  C   UNL     1       5.780  -6.933  -5.774  0.00  0.00    -0.040 C 
ATOM     26  C   UNL     1       5.995  -6.363  -6.981  0.00  0.00    +0.002 A 
ATOM     27  C   UNL     1       5.926  -4.976  -7.453  0.00  0.00    +0.055 A 
ATOM     28  C   UNL     1       6.201  -4.697  -8.750  0.00  0.00    +0.121 A 
ATOM     29  C   UNL     1       6.554  -5.697  -9.673  0.00  0.00    +0.047 A 
ATOM     30  C   UNL     1       6.644  -7.001  -9.334  0.00  0.00    +0.029 A 
ATOM     31  C   UNL     1       6.368  -7.415  -7.955  0.00  0.00    +0.043 A 
ATOM     32  N   UNL     1       6.382  -8.588  -7.373  0.00  0.00    -0.380 N 
ATOM     33  C   UNL     1       6.026  -8.414  -5.960  0.00  0.00    +0.144 C 
ATOM     34  H   UNL     1       6.596  -9.431  -7.803  0.00  0.00    +0.160 HD
BRANCH  28  35
ATOM     35  O   UNL     1       6.133  -3.408  -9.174  0.00  0.00    -0.495 OA
ATOM     36  C   UNL     1       6.431  -3.160 -10.549  0.00  0.00    +0.277 C 
ENDBRANCH  28  35
ENDBRANCH  24  25
ENDBRANCH  23  24
ENDBRANCH  21  23
ENDBRANCH   1  19
TORSDOF 8
