REMARK  Name = ZINC36266769
REMARK  5 active torsions:
REMARK  status: ('A' for Active; 'I' for Inactive)
REMARK    1  A    between atoms: C_5  and  C_8
REMARK    2  A    between atoms: C_5  and  N_21
REMARK    3  A    between atoms: C_8  and  N_9
REMARK    4  A    between atoms: N_9  and  S_10
REMARK    5  A    between atoms: S_10  and  C_13
REMARK                            x       y       z     vdW  Elec       q    Type
REMARK                         _______ _______ _______ _____ _____    ______ ____
ROOT
ATOM      1  C   UNL     1       2.571  -0.720  -0.368  0.00  0.00    +0.092 C 
ENDROOT
BRANCH   1   6
ATOM      2  C   UNL     1       0.596   1.835  -0.186  0.00  0.00    -0.000 C 
ATOM      3  C   UNL     1       2.103   2.072   0.035  0.00  0.00    -0.000 C 
ATOM      4  C   UNL     1       2.408   1.881   1.496  0.00  0.00    -0.001 C 
ATOM      5  C   UNL     1       2.878   0.449   1.818  0.00  0.00    -0.012 C 
ATOM      6  C   UNL     1       2.065  -0.628   1.073  0.00  0.00    -0.057 C 
ATOM      7  C   UNL     1       0.591  -0.326   1.054  0.00  0.00    -0.012 C 
ATOM      8  C   UNL     1       0.261   0.420  -0.255  0.00  0.00    -0.001 C 
BRANCH   6   9
ATOM      9  N   UNL     1       2.277  -1.923   1.732  0.00  0.00    +0.383 N 
ATOM     10  H   UNL     1       1.970  -1.867   2.692  0.00  0.00    -0.089 HD
ATOM     11  H   UNL     1       1.749  -2.636   1.252  0.00  0.00    -0.089 HD
ATOM     12  H   UNL     1       3.258  -2.157   1.707  0.00  0.00    -0.089 HD
ENDBRANCH   6   9
ENDBRANCH   1   6
BRANCH   1  13
ATOM     13  N   UNL     1       2.000  -1.907  -1.010  0.00  0.00    -0.196 NA
ATOM     14  H   UNL     1       1.641  -2.627  -0.468  0.00  0.00    +0.148 HD
BRANCH  13  15
ATOM     15  S   UNL     1       1.967  -2.019  -2.662  0.00  0.00    +0.034 S 
ATOM     16  O   UNL     1       1.307  -3.250  -2.929  0.00  0.00    -0.158 OA
ATOM     17  O   UNL     1       1.407  -0.788  -3.098  0.00  0.00    -0.158 OA
BRANCH  15  18
ATOM     18  C   UNL     1       3.709  -2.124  -3.157  0.00  0.00    +0.170 C 
ATOM     19  C   UNL     1       4.431  -0.816  -2.796  0.00  0.00    +0.052 C 
ATOM     20  C   UNL     1       5.813  -0.766  -3.492  0.00  0.00    +0.168 C 
ATOM     21  S   UNL     1       5.545  -1.791  -4.996  0.00  0.00    -0.029 S 
ATOM     22  O   UNL     1       6.394  -2.929  -4.937  0.00  0.00    -0.174 OA
ATOM     23  O   UNL     1       5.581  -0.950  -6.141  0.00  0.00    -0.174 OA
ATOM     24  C   UNL     1       3.807  -2.323  -4.697  0.00  0.00    +0.193 C 
ENDBRANCH  15  18
ENDBRANCH  13  15
ENDBRANCH   1  13
TORSDOF 5
