REMARK  Name = ZINC23867059
REMARK  7 active torsions:
REMARK  status: ('A' for Active; 'I' for Inactive)
REMARK    1  A    between atoms: C_5  and  C_7
REMARK    2  A    between atoms: C_10  and  C_12
REMARK    3  A    between atoms: C_12  and  N_13
REMARK    4  A    between atoms: N_13  and  C_14
REMARK    5  A    between atoms: N_13  and  C_28
REMARK    6  A    between atoms: C_14  and  N_15
REMARK    7  A    between atoms: N_20  and  C_23
REMARK                            x       y       z     vdW  Elec       q    Type
REMARK                         _______ _______ _______ _____ _____    ______ ____
ROOT
ATOM      1  N   UNL     1       1.685   5.090  -1.390  0.00  0.00    -0.275 NA
ENDROOT
BRANCH   1   2
ATOM      2  C   UNL     1       2.845   4.393  -1.960  0.00  0.00    +0.059 C 
ATOM      3  C   UNL     1       4.108   5.217  -2.219  0.00  0.00    +0.020 C 
ATOM      4  C   UNL     1       3.247   4.745  -3.393  0.00  0.00    +0.020 C 
ENDBRANCH   1   2
BRANCH   1   5
ATOM      5  C   UNL     1       1.885   6.546  -1.407  0.00  0.00    +0.184 C 
BRANCH   5   9
ATOM      6  C   UNL     1      -1.361   8.133  -1.679  0.00  0.00    +0.249 A 
ATOM      7  N   UNL     1      -1.111   8.212  -0.393  0.00  0.00    -0.107 NA
ATOM      8  N   UNL     1       0.030   7.670  -0.148  0.00  0.00    -0.111 NA
ATOM      9  C   UNL     1       0.554   7.237  -1.261  0.00  0.00    +0.232 A 
ATOM     10  O   UNL     1      -0.310   7.514  -2.253  0.00  0.00    -0.419 OA
BRANCH   6  15
ATOM     11  C   UNL     1      -3.829   8.949  -4.390  0.00  0.00    +0.001 A 
ATOM     12  C   UNL     1      -4.832   9.567  -3.664  0.00  0.00    +0.001 A 
ATOM     13  C   UNL     1      -4.710   9.721  -2.295  0.00  0.00    +0.016 A 
ATOM     14  C   UNL     1      -3.584   9.257  -1.643  0.00  0.00    +0.030 A 
ATOM     15  C   UNL     1      -2.569   8.632  -2.370  0.00  0.00    +0.052 A 
ATOM     16  C   UNL     1      -2.697   8.485  -3.752  0.00  0.00    +0.014 A 
ATOM     17 BR   UNL     1      -3.419   9.469   0.229  0.00  0.00    -0.050 Br
ENDBRANCH   6  15
ENDBRANCH   5   9
ENDBRANCH   1   5
BRANCH   1  18
ATOM     18  C   UNL     1       1.401   4.615  -0.029  0.00  0.00    +0.206 C 
BRANCH  18  19
ATOM     19  N   UNL     1       0.645   3.361  -0.098  0.00  0.00    -0.204 N 
ATOM     20  C   UNL     1       1.182   2.122  -0.137  0.00  0.00    +0.311 C 
ATOM     21  O   UNL     1       2.359   1.830  -0.122  0.00  0.00    -0.264 OA
ATOM     22  C   UNL     1       0.013   1.184  -0.202  0.00  0.00    +0.310 C 
ATOM     23  O   UNL     1       0.046  -0.028  -0.251  0.00  0.00    -0.264 OA
ATOM     24  N   UNL     1      -1.082   1.974  -0.200  0.00  0.00    -0.215 N 
ATOM     25  C   UNL     1      -0.693   3.257  -0.133  0.00  0.00    +0.319 C 
ATOM     26  O   UNL     1      -1.454   4.203  -0.111  0.00  0.00    -0.251 OA
BRANCH  24  27
ATOM     27  C   UNL     1      -2.470   1.506  -0.260  0.00  0.00    +0.086 C 
ATOM     28  C   UNL     1      -2.759   0.558   0.922  0.00  0.00    +0.023 C 
ATOM     29  C   UNL     1      -3.695  -0.521   0.322  0.00  0.00    +0.002 C 
ATOM     30  C   UNL     1      -3.115  -0.726  -1.099  0.00  0.00    +0.002 C 
ATOM     31  C   UNL     1      -2.697   0.691  -1.545  0.00  0.00    +0.023 C 
ENDBRANCH  24  27
ENDBRANCH  18  19
ENDBRANCH   1  18
TORSDOF 7
