REMARK  Name = ZINC33316529
REMARK  7 active torsions:
REMARK  status: ('A' for Active; 'I' for Inactive)
REMARK    1  A    between atoms: C_1  and  C_2
REMARK    2  A    between atoms: C_5  and  C_30
REMARK    3  A    between atoms: C_6  and  C_8
REMARK    4  A    between atoms: C_8  and  N_9
REMARK    5  A    between atoms: N_9  and  C_10
REMARK    6  A    between atoms: C_13  and  O_16
REMARK    7  A    between atoms: O_16  and  C_17
REMARK                            x       y       z     vdW  Elec       q    Type
REMARK                         _______ _______ _______ _____ _____    ______ ____
ROOT
ATOM      1  N   UNL     1       1.162   3.483   0.007  0.00  0.00    -0.277 N 
ATOM      2  C   UNL     1      -0.034   4.161  -0.074  0.00  0.00    +0.136 C 
ATOM      3  N   UNL     1      -1.223   3.647  -0.080  0.00  0.00    -0.362 N 
ATOM      4  C   UNL     1      -2.416   4.470  -0.142  0.00  0.00    +0.117 C 
ATOM      5  C   UNL     1      -3.317   4.151   1.075  0.00  0.00    +0.191 C 
ATOM      6  S   UNL     1      -4.053   5.801   1.446  0.00  0.00    -0.028 S 
ATOM      7  O   UNL     1      -4.200   5.944   2.852  0.00  0.00    -0.174 OA
ATOM      8  O   UNL     1      -5.167   6.022   0.593  0.00  0.00    -0.174 OA
ATOM      9  C   UNL     1      -2.630   6.828   0.873  0.00  0.00    +0.182 C 
ATOM     10  C   UNL     1      -2.092   5.964  -0.283  0.00  0.00    +0.099 C 
ATOM     11  S   UNL     1      -0.262   5.924  -0.202  0.00  0.00    -0.085 S 
ATOM     12  H   UNL     1      -1.351   2.555  -0.036  0.00  0.00    +0.162 HD
ENDROOT
BRANCH   1  13
ATOM     13  C   UNL     1       1.176   2.082  -0.013  0.00  0.00    +0.036 A 
ATOM     14  C   UNL     1      -0.019   1.375   0.016  0.00  0.00    +0.027 A 
ATOM     15  C   UNL     1      -0.004  -0.005  -0.003  0.00  0.00    +0.047 A 
ATOM     16  C   UNL     1       1.204  -0.686  -0.052  0.00  0.00    +0.120 A 
ATOM     17  C   UNL     1       2.398   0.020  -0.081  0.00  0.00    +0.047 A 
ATOM     18  C   UNL     1       2.385   1.401  -0.061  0.00  0.00    +0.027 A 
BRANCH  16  19
ATOM     19  O   UNL     1       1.217  -2.046  -0.071  0.00  0.00    -0.495 OA
ATOM     20  C   UNL     1       2.496  -2.681  -0.122  0.00  0.00    +0.277 C 
ENDBRANCH  16  19
ENDBRANCH   1  13
BRANCH   1  21
ATOM     21  C   UNL     1       2.420   4.227   0.113  0.00  0.00    +0.148 C 
BRANCH  21  27
ATOM     22  C   UNL     1       1.919   4.002  -4.861  0.00  0.00    +0.044 C 
ATOM     23  C   UNL     1       2.661   4.493  -3.645  0.00  0.00    -0.050 A 
ATOM     24  C   UNL     1       3.783   5.287  -3.794  0.00  0.00    +0.003 A 
ATOM     25  C   UNL     1       4.463   5.739  -2.678  0.00  0.00    +0.004 A 
ATOM     26  C   UNL     1       4.022   5.395  -1.414  0.00  0.00    -0.046 A 
ATOM     27  C   UNL     1       2.900   4.601  -1.265  0.00  0.00    -0.027 A 
ATOM     28  C   UNL     1       2.223   4.146  -2.381  0.00  0.00    +0.008 A 
ATOM     29  C   UNL     1       4.764   5.887  -0.198  0.00  0.00    +0.044 C 
ENDBRANCH  21  27
ENDBRANCH   1  21
TORSDOF 4
