REMARK  Name = ZINC05604443
REMARK  4 active torsions:
REMARK  status: ('A' for Active; 'I' for Inactive)
REMARK    1  A    between atoms: C_4  and  C_7
REMARK    2  A    between atoms: C_12  and  C_17
REMARK    3  A    between atoms: C_13  and  N_16
REMARK    4  A    between atoms: C_17  and  N_19
REMARK                            x       y       z     vdW  Elec       q    Type
REMARK                         _______ _______ _______ _____ _____    ______ ____
ROOT
ATOM      1  C   UNL     1       2.840  -2.108  -0.634  0.00  0.00    +0.109 A 
ATOM      2  C   UNL     1       1.451  -2.000  -0.493  0.00  0.00    +0.091 A 
ATOM      3  C   UNL     1       1.159  -0.672  -0.234  0.00  0.00    +0.194 A 
ATOM      4  N   UNL     1       0.009  -0.016  -0.018  0.00  0.00    -0.128 NA
ATOM      5  N   UNL     1      -0.013   1.250   0.207  0.00  0.00    -0.142 NA
ATOM      6  C   UNL     1       1.115   1.979   0.236  0.00  0.00    +0.153 A 
ATOM      7  C   UNL     1       2.346   1.355   0.018  0.00  0.00    +0.150 A 
ATOM      8  N   UNL     1       2.355   0.007  -0.220  0.00  0.00    -0.195 N 
ATOM      9  N   UNL     1       3.377  -0.912  -0.471  0.00  0.00    -0.162 NA
ATOM     10 BR   UNL     1       0.201  -3.412  -0.632  0.00  0.00    -0.044 Br
ENDROOT
BRANCH   1  14
ATOM     11  C   UNL     1       4.978  -5.692  -1.452  0.00  0.00    +0.000 A 
ATOM     12  C   UNL     1       5.417  -4.492  -1.981  0.00  0.00    +0.001 A 
ATOM     13  C   UNL     1       4.727  -3.326  -1.718  0.00  0.00    +0.010 A 
ATOM     14  C   UNL     1       3.586  -3.359  -0.920  0.00  0.00    +0.003 A 
ATOM     15  C   UNL     1       3.151  -4.570  -0.386  0.00  0.00    +0.010 A 
ATOM     16  C   UNL     1       3.845  -5.731  -0.659  0.00  0.00    +0.001 A 
ENDBRANCH   1  14
BRANCH   7  17
ATOM     17  N   UNL     1       3.512   2.074   0.042  0.00  0.00    -0.341 N 
ATOM     18  H   UNL     1       4.190   1.920  -0.635  0.00  0.00    +0.144 HD
ATOM     19  H   UNL     1       3.660   2.736   0.735  0.00  0.00    +0.144 HD
ENDBRANCH   7  17
BRANCH   6  20
ATOM     20  C   UNL     1       1.054   3.423   0.495  0.00  0.00    +0.100 C 
ATOM     21  S   UNL     1       2.467   4.378   0.352  0.00  0.00    -0.033 S 
BRANCH  20  22
ATOM     22  N   UNL     1      -0.115   3.996   0.846  0.00  0.00    -0.350 N 
ATOM     23  H   UNL     1      -0.915   3.454   0.927  0.00  0.00    +0.143 HD
ATOM     24  H   UNL     1      -0.155   4.950   1.017  0.00  0.00    +0.143 HD
ENDBRANCH  20  22
ENDBRANCH   6  20
TORSDOF 4
