REMARK  Name = ZINC09383451
REMARK  11 active torsions:
REMARK  status: ('A' for Active; 'I' for Inactive)
REMARK    1  A    between atoms: C_1  and  C_2
REMARK    2  A    between atoms: C_2  and  C_3
REMARK    3  A    between atoms: N_9  and  S_10
REMARK    4  A    between atoms: S_10  and  C_13
REMARK    5  A    between atoms: C_16  and  C_19
REMARK    6  A    between atoms: N_21  and  C_22
REMARK    7  A    between atoms: C_23  and  C_31
REMARK    8  A    between atoms: C_30  and  N_68
REMARK    9  A    between atoms: C_31  and  O_33
REMARK   10  A    between atoms: O_33  and  C_34
REMARK   11  A    between atoms: C_34  and  C_35
REMARK                            x       y       z     vdW  Elec       q    Type
REMARK                         _______ _______ _______ _____ _____    ______ ____
ROOT
ATOM      1  C   UNL     1      -7.311  -0.051   0.392  0.00  0.00    +0.249 C 
ATOM      2  O   UNL     1      -8.228   0.608  -0.060  0.00  0.00    -0.270 OA
ATOM      3  N   UNL     1      -7.532  -0.902   1.412  0.00  0.00    -0.275 N 
ATOM      4  H   UNL     1      -6.801  -1.428   1.773  0.00  0.00    +0.156 HD
ENDROOT
BRANCH   3   5
ATOM      5  C   UNL     1      -8.804  -1.028   1.947  0.00  0.00    +0.086 A 
ATOM      6  C   UNL     1      -9.225  -1.844   2.990  0.00  0.00    +0.091 A 
ATOM      7  C   UNL     1     -10.627  -1.784   3.360  0.00  0.00    -0.025 A 
ATOM      8  C   UNL     1     -11.380  -0.926   2.635  0.00  0.00    -0.021 A 
ATOM      9  S   UNL     1     -10.253  -0.199   1.482  0.00  0.00    -0.079 S 
ATOM     10  C   UNL     1     -12.846  -0.671   2.802  0.00  0.00    -0.036 C 
ATOM     11  C   UNL     1     -12.601  -1.954   4.843  0.00  0.00    -0.074 C 
ATOM     12  C   UNL     1     -11.263  -2.603   4.478  0.00  0.00    +0.018 C 
ATOM     13  C   UNL     1     -14.811  -1.474   3.976  0.00  0.00    -0.096 C 
ATOM     14  N   UNL     1     -13.408  -1.774   3.618  0.00  0.00    +0.381 N 
ATOM     15  H   UNL     1     -13.382  -2.642   3.070  0.00  0.00    -0.082 HD
BRANCH   6  16
ATOM     16  C   UNL     1      -8.292  -2.730   3.688  0.00  0.00    +0.342 C 
ATOM     17  O   UNL     1      -7.689  -2.329   4.666  0.00  0.00    -0.245 OA
BRANCH  16  18
ATOM     18  O   UNL     1      -8.099  -3.990   3.246  0.00  0.00    -0.461 OA
BRANCH  18  19
ATOM     19  C   UNL     1      -7.159  -4.811   3.987  0.00  0.00    +0.229 C 
ATOM     20  C   UNL     1      -7.074  -6.196   3.342  0.00  0.00    +0.048 C 
ENDBRANCH  18  19
ENDBRANCH  16  18
ENDBRANCH   6  16
ENDBRANCH   3   5
BRANCH   1  24
ATOM     21  C   UNL     1      -3.412   0.332  -1.248  0.00  0.00    +0.106 A 
ATOM     22  C   UNL     1      -3.637  -0.547  -0.204  0.00  0.00    +0.029 A 
ATOM     23  C   UNL     1      -4.900  -0.672   0.337  0.00  0.00    +0.015 A 
ATOM     24  C   UNL     1      -5.954   0.083  -0.179  0.00  0.00    +0.037 A 
ATOM     25  C   UNL     1      -5.722   0.964  -1.236  0.00  0.00    +0.015 A 
ATOM     26  C   UNL     1      -4.453   1.084  -1.764  0.00  0.00    +0.029 A 
BRANCH  21  27
ATOM     27  S   UNL     1      -1.795   0.491  -1.929  0.00  0.00    +0.061 S 
ATOM     28  O   UNL     1      -1.944   1.142  -3.183  0.00  0.00    -0.153 OA
ATOM     29  O   UNL     1      -1.174  -0.781  -1.800  0.00  0.00    -0.153 OA
BRANCH  27  35
ATOM     30  C   UNL     1      -1.116   2.984  -1.090  0.00  0.00    +0.080 C 
ATOM     31  C   UNL     1      -1.476   3.570   0.279  0.00  0.00    +0.021 C 
ATOM     32  C   UNL     1      -0.420   3.150   1.303  0.00  0.00    +0.003 C 
ATOM     33  C   UNL     1      -0.396   1.624   1.423  0.00  0.00    +0.017 C 
ATOM     34  C   UNL     1      -0.027   1.016   0.066  0.00  0.00    +0.110 C 
ATOM     35  N   UNL     1      -0.952   1.530  -0.953  0.00  0.00    -0.174 NA
BRANCH  30  37
ATOM     36  C   UNL     1      -2.486   4.790  -2.139  0.00  0.00    +0.005 C 
ATOM     37  C   UNL     1      -2.235   3.282  -2.090  0.00  0.00    +0.017 C 
ENDBRANCH  30  37
ENDBRANCH  27  35
ENDBRANCH  21  27
ENDBRANCH   1  24
TORSDOF 8
