REMARK  Name = ZINC36148379
REMARK  7 active torsions:
REMARK  status: ('A' for Active; 'I' for Inactive)
REMARK    1  A    between atoms: C_1  and  C_2
REMARK    2  A    between atoms: N_8  and  C_9
REMARK    3  A    between atoms: C_10  and  C_20
REMARK    4  A    between atoms: C_11  and  C_14
REMARK    5  A    between atoms: C_20  and  N_21
REMARK    6  A    between atoms: N_21  and  C_22
REMARK    7  A    between atoms: C_22  and  C_23
REMARK                            x       y       z     vdW  Elec       q    Type
REMARK                         _______ _______ _______ _____ _____    ______ ____
ROOT
ATOM      1  C   UNL     1       1.500   0.381   1.959  0.00  0.00    +0.222 A 
ATOM      2  C   UNL     1       2.178   0.057   3.090  0.00  0.00    +0.025 A 
ATOM      3  C   UNL     1       2.469   1.252   3.779  0.00  0.00    +0.117 A 
ATOM      4  N   UNL     1       1.981   2.252   3.081  0.00  0.00    -0.076 NA
ATOM      5  O   UNL     1       1.367   1.717   1.922  0.00  0.00    -0.339 OA
ENDROOT
BRANCH   1  12
ATOM      6  C   UNL     1      -1.032  -0.489   2.329  0.00  0.00    +0.028 C 
ATOM      7  C   UNL     1      -0.355  -0.989   1.051  0.00  0.00    +0.073 C 
ATOM      8  C   UNL     1      -0.352  -2.520   1.037  0.00  0.00    +0.022 C 
ATOM      9  C   UNL     1       0.447  -3.014  -0.172  0.00  0.00    +0.003 C 
ATOM     10  C   UNL     1       1.894  -2.528  -0.061  0.00  0.00    +0.019 C 
ATOM     11  C   UNL     1       1.916  -0.996  -0.059  0.00  0.00    +0.108 C 
ATOM     12  N   UNL     1       1.033  -0.509   1.009  0.00  0.00    -0.296 N 
ENDBRANCH   1  12
BRANCH   3  13
ATOM     13  C   UNL     1       3.199   1.362   5.067  0.00  0.00    +0.004 A 
ATOM     14  C   UNL     1       4.165   2.351   5.242  0.00  0.00    +0.010 A 
ATOM     15  C   UNL     1       4.840   2.448   6.441  0.00  0.00    +0.001 A 
ATOM     16  C   UNL     1       4.560   1.566   7.469  0.00  0.00    +0.000 A 
ATOM     17  C   UNL     1       3.602   0.583   7.301  0.00  0.00    +0.001 A 
ATOM     18  C   UNL     1       2.917   0.479   6.108  0.00  0.00    +0.010 A 
ENDBRANCH   3  13
BRANCH   2  19
ATOM     19  C   UNL     1       2.553  -1.334   3.530  0.00  0.00    -0.039 C 
BRANCH  19  20
ATOM     20  N   UNL     1       3.916  -1.641   3.076  0.00  0.00    +0.382 N 
ATOM     21  H   UNL     1       3.956  -1.585   2.070  0.00  0.00    -0.085 HD
ATOM     22  H   UNL     1       4.561  -0.976   3.476  0.00  0.00    -0.085 HD
BRANCH  20  23
ATOM     23  C   UNL     1       4.282  -2.997   3.506  0.00  0.00    -0.079 C 
BRANCH  23  24
ATOM     24  C   UNL     1       5.702  -3.317   3.033  0.00  0.00    -0.028 C 
ATOM     25  C   UNL     1       5.872  -4.459   2.030  0.00  0.00    +0.002 C 
ATOM     26  C   UNL     1       6.314  -4.644   3.483  0.00  0.00    +0.002 C 
ENDBRANCH  23  24
ENDBRANCH  20  23
ENDBRANCH  19  20
ENDBRANCH   2  19
TORSDOF 6
