REMARK  Name = ZINC52604269
REMARK  6 active torsions:
REMARK  status: ('A' for Active; 'I' for Inactive)
REMARK    1  A    between atoms: C_1  and  N_2
REMARK    2  A    between atoms: C_6  and  C_8
REMARK    3  A    between atoms: C_8  and  C_9
REMARK    4  A    between atoms: C_12  and  C_18
REMARK    5  A    between atoms: N_21  and  S_24
REMARK    6  A    between atoms: S_24  and  C_27
REMARK                            x       y       z     vdW  Elec       q    Type
REMARK                         _______ _______ _______ _____ _____    ______ ____
ROOT
ATOM      1  C   UNL     1      -5.060  -1.108  -0.853  0.00  0.00    -0.042 C 
ATOM      2  C   UNL     1      -5.231  -2.409  -0.838  0.00  0.00    -0.006 C 
ATOM      3  C   UNL     1      -5.810  -3.181  -1.991  0.00  0.00    +0.137 C 
ATOM      4  N   UNL     1      -6.373  -2.239  -2.968  0.00  0.00    -0.172 NA
ATOM      5  C   UNL     1      -5.579  -1.039  -3.286  0.00  0.00    +0.114 C 
ATOM      6  C   UNL     1      -5.435  -0.218  -2.000  0.00  0.00    +0.052 C 
ENDROOT
BRANCH   1  10
ATOM      7  C   UNL     1      -1.348  -0.258   2.424  0.00  0.00    -0.043 C 
ATOM      8  C   UNL     1      -2.577  -0.152   1.863  0.00  0.00    -0.001 A 
ATOM      9  C   UNL     1      -3.175  -0.773   0.680  0.00  0.00    +0.018 A 
ATOM     10  C   UNL     1      -4.464  -0.478   0.342  0.00  0.00    -0.021 A 
ATOM     11  C   UNL     1      -5.264   0.447   1.135  0.00  0.00    +0.010 A 
ATOM     12  C   UNL     1      -4.772   1.052   2.234  0.00  0.00    +0.026 A 
ATOM     13  C   UNL     1      -3.395   0.786   2.665  0.00  0.00    +0.043 A 
ATOM     14  N   UNL     1      -2.701   1.242   3.679  0.00  0.00    -0.380 N 
ATOM     15  C   UNL     1      -1.364   0.639   3.641  0.00  0.00    +0.144 C 
ATOM     16  H   UNL     1      -3.020   1.870   4.346  0.00  0.00    +0.160 HD
BRANCH   7  17
ATOM     17  C   UNL     1      -0.200  -1.104   1.937  0.00  0.00    +0.018 C 
BRANCH  17  23
ATOM     18  C   UNL     1       0.004   1.638  -0.235  0.00  0.00    -0.096 C 
ATOM     19  N   UNL     1       0.016   0.171  -0.155  0.00  0.00    +0.380 N 
ATOM     20  C   UNL     1       0.723  -0.385  -1.329  0.00  0.00    -0.079 C 
ATOM     21  C   UNL     1       2.175  -0.620  -0.842  0.00  0.00    -0.020 C 
ATOM     22  C   UNL     1       1.943  -1.091   0.618  0.00  0.00    -0.017 C 
ATOM     23  C   UNL     1       0.727  -0.254   1.065  0.00  0.00    -0.065 C 
ATOM     24  H   UNL     1      -0.931  -0.176  -0.135  0.00  0.00    -0.082 HD
ENDBRANCH  17  23
ENDBRANCH   7  17
ENDBRANCH   1  10
BRANCH   4  25
ATOM     25  S   UNL     1      -7.840  -2.515  -3.684  0.00  0.00    +0.062 S 
ATOM     26  O   UNL     1      -7.909  -1.655  -4.814  0.00  0.00    -0.153 OA
ATOM     27  O   UNL     1      -7.982  -3.925  -3.790  0.00  0.00    -0.153 OA
BRANCH  25  28
ATOM     28  C   UNL     1      -9.080  -1.967  -2.559  0.00  0.00    +0.113 A 
ATOM     29  C   UNL     1      -9.899  -2.869  -1.951  0.00  0.00    +0.029 A 
ATOM     30  C   UNL     1     -10.885  -2.455  -1.058  0.00  0.00    +0.003 A 
ATOM     31  C   UNL     1     -11.059  -1.136  -0.768  0.00  0.00    +0.008 A 
ATOM     32  C   UNL     1     -10.233  -0.176  -1.376  0.00  0.00    -0.016 A 
ATOM     33  C   UNL     1      -9.226  -0.598  -2.279  0.00  0.00    +0.008 A 
ATOM     34  C   UNL     1      -8.396   0.362  -2.883  0.00  0.00    +0.010 A 
ATOM     35  C   UNL     1      -8.566   1.680  -2.588  0.00  0.00    +0.001 A 
ATOM     36  C   UNL     1      -9.552   2.094  -1.695  0.00  0.00    +0.001 A 
ATOM     37  C   UNL     1     -10.383   1.194  -1.102  0.00  0.00    +0.008 A 
ENDBRANCH  25  28
ENDBRANCH   4  25
TORSDOF 5
