REMARK  Name = ZINC63195386
REMARK  8 active torsions:
REMARK  status: ('A' for Active; 'I' for Inactive)
REMARK    1  A    between atoms: C_1  and  C_2
REMARK    2  A    between atoms: C_2  and  O_3
REMARK    3  A    between atoms: O_3  and  C_4
REMARK    4  A    between atoms: C_7  and  C_9
REMARK    5  A    between atoms: C_9  and  N_10
REMARK    6  A    between atoms: C_15  and  C_17
REMARK    7  A    between atoms: C_17  and  C_19
REMARK    8  A    between atoms: C_17  and  N_20
REMARK                            x       y       z     vdW  Elec       q    Type
REMARK                         _______ _______ _______ _____ _____    ______ ____
ROOT
ATOM      1  N   UNL     1       2.236  -5.594  -3.757  0.00  0.00    -0.293 NA
ATOM      2  C   UNL     1       3.149  -6.076  -2.713  0.00  0.00    +0.085 C 
ATOM      3  C   UNL     1       2.963  -7.584  -2.527  0.00  0.00    +0.015 C 
ATOM      4  C   UNL     1       3.250  -8.296  -3.852  0.00  0.00    +0.003 C 
ATOM      5  C   UNL     1       2.318  -7.741  -4.933  0.00  0.00    +0.017 C 
ATOM      6  C   UNL     1       2.523  -6.229  -5.049  0.00  0.00    +0.042 C 
ENDROOT
BRANCH   6   7
ATOM      7  C   UNL     1       1.580  -5.668  -6.115  0.00  0.00    -0.061 C 
ATOM      8  C   UNL     1       1.846  -6.365  -7.450  0.00  0.00    -0.013 C 
BRANCH   7   9
ATOM      9  N   UNL     1       0.188  -5.901  -5.708  0.00  0.00    +0.381 N 
ATOM     10  H   UNL     1       0.013  -5.441  -4.828  0.00  0.00    -0.090 HD
ATOM     11  H   UNL     1      -0.434  -5.531  -6.411  0.00  0.00    -0.090 HD
ATOM     12  H   UNL     1       0.029  -6.893  -5.607  0.00  0.00    -0.090 HD
ENDBRANCH   7   9
ENDBRANCH   6   7
BRANCH   1  13
ATOM     13  C   UNL     1       2.288  -4.130  -3.867  0.00  0.00    +0.181 C 
BRANCH  13  17
ATOM     14  C   UNL     1       0.964  -1.618  -1.469  0.00  0.00    +0.407 C 
ATOM     15  O   UNL     1       0.495  -2.329  -0.602  0.00  0.00    -0.226 OA
ATOM     16  N   UNL     1       1.556  -2.171  -2.546  0.00  0.00    -0.221 N 
ATOM     17  C   UNL     1       1.626  -3.512  -2.662  0.00  0.00    +0.236 C 
ATOM     18  O   UNL     1       1.158  -4.221  -1.798  0.00  0.00    -0.274 OA
ATOM     19  H   UNL     1       1.930  -1.604  -3.238  0.00  0.00    +0.161 HD
BRANCH  14  20
ATOM     20  O   UNL     1       0.893  -0.279  -1.353  0.00  0.00    -0.450 OA
BRANCH  20  22
ATOM     21  C   UNL     1       0.268   1.767  -0.229  0.00  0.00    +0.048 C 
ATOM     22  C   UNL     1       0.253   0.238  -0.185  0.00  0.00    +0.230 C 
ENDBRANCH  20  22
ENDBRANCH  14  20
ENDBRANCH  13  17
ENDBRANCH   1  13
TORSDOF 6
