REMARK  Name = ZINC39012098
REMARK  7 active torsions:
REMARK  status: ('A' for Active; 'I' for Inactive)
REMARK    1  A    between atoms: C_1  and  C_2
REMARK    2  A    between atoms: C_7  and  C_14
REMARK    3  A    between atoms: C_14  and  N_15
REMARK    4  A    between atoms: N_15  and  C_16
REMARK    5  A    between atoms: N_15  and  S_23
REMARK    6  A    between atoms: C_16  and  C_17
REMARK    7  A    between atoms: S_23  and  C_26
REMARK                            x       y       z     vdW  Elec       q    Type
REMARK                         _______ _______ _______ _____ _____    ______ ____
ROOT
ATOM      1  N   UNL     1      -1.041  -6.678   2.477  0.00  0.00    -0.171 NA
ENDROOT
BRANCH   1   2
ATOM      2  S   UNL     1      -0.204  -8.102   2.358  0.00  0.00    +0.061 S 
ATOM      3  O   UNL     1      -0.654  -8.927   3.424  0.00  0.00    -0.153 OA
ATOM      4  O   UNL     1      -0.281  -8.506   0.998  0.00  0.00    -0.153 OA
BRANCH   2   5
ATOM      5  C   UNL     1       1.490  -7.740   2.680  0.00  0.00    +0.106 A 
ATOM      6  C   UNL     1       2.331  -7.390   1.641  0.00  0.00    +0.030 A 
ATOM      7  C   UNL     1       3.660  -7.106   1.894  0.00  0.00    +0.022 A 
ATOM      8  C   UNL     1       4.148  -7.171   3.187  0.00  0.00    +0.041 A 
ATOM      9  C   UNL     1       3.305  -7.522   4.226  0.00  0.00    +0.022 A 
ATOM     10  C   UNL     1       1.975  -7.800   3.974  0.00  0.00    +0.030 A 
ATOM     11 CL   UNL     1       5.817  -6.815   3.505  0.00  0.00    -0.084 Cl
ENDBRANCH   2   5
ENDBRANCH   1   2
BRANCH   1  12
ATOM     12  C   UNL     1      -1.221  -5.833   1.293  0.00  0.00    +0.126 C 
BRANCH  12  19
ATOM     13  C   UNL     1      -0.161   1.523   0.308  0.00  0.00    +0.044 C 
ATOM     14  C   UNL     1      -0.168   0.020   0.202  0.00  0.00    -0.049 A 
ATOM     15  C   UNL     1      -0.347  -0.562  -1.053  0.00  0.00    +0.004 A 
ATOM     16  C   UNL     1      -0.362  -1.911  -1.212  0.00  0.00    +0.010 A 
ATOM     17  C   UNL     1      -0.185  -2.762  -0.035  0.00  0.00    -0.007 A 
ATOM     18  C   UNL     1      -0.193  -4.120  -0.147  0.00  0.00    -0.003 C 
ATOM     19  C   UNL     1      -0.003  -4.923   1.125  0.00  0.00    +0.114 C 
ATOM     20  C   UNL     1       0.180  -4.153   2.413  0.00  0.00    +0.225 C 
ATOM     21  O   UNL     1       0.338  -4.747   3.463  0.00  0.00    -0.275 OA
ATOM     22  N   UNL     1       0.170  -2.830   2.393  0.00  0.00    -0.284 N 
ATOM     23  C   UNL     1       0.002  -2.120   1.278  0.00  0.00    +0.041 A 
ATOM     24  C   UNL     1       0.007  -0.714   1.332  0.00  0.00    +0.027 A 
ATOM     25  H   UNL     1       0.289  -2.355   3.231  0.00  0.00    +0.155 HD
ENDBRANCH  12  19
ENDBRANCH   1  12
BRANCH   1  26
ATOM     26  C   UNL     1      -1.601  -6.262   3.765  0.00  0.00    +0.146 C 
BRANCH  26  27
ATOM     27  C   UNL     1      -3.033  -6.721   3.862  0.00  0.00    -0.014 A 
ATOM     28  C   UNL     1      -4.062  -5.909   3.413  0.00  0.00    +0.008 A 
ATOM     29  C   UNL     1      -5.364  -6.372   3.522  0.00  0.00    +0.020 A 
ATOM     30  C   UNL     1      -5.591  -7.620   4.072  0.00  0.00    +0.111 A 
ATOM     31  N   UNL     1      -4.587  -8.366   4.489  0.00  0.00    -0.263 NA
ATOM     32  C   UNL     1      -3.336  -7.960   4.395  0.00  0.00    +0.115 A 
ENDBRANCH  26  27
ENDBRANCH   1  26
TORSDOF 6
