REMARK  Name = ZINC38517778
REMARK  10 active torsions:
REMARK  status: ('A' for Active; 'I' for Inactive)
REMARK    1  A    between atoms: C_1  and  N_2
REMARK    2  A    between atoms: C_9  and  C_11
REMARK    3  A    between atoms: C_11  and  C_13
REMARK    4  A    between atoms: C_11  and  N_31
REMARK    5  A    between atoms: C_13  and  N_14
REMARK    6  A    between atoms: N_17  and  C_18
REMARK    7  A    between atoms: C_18  and  C_19
REMARK    8  A    between atoms: C_18  and  C_25
REMARK    9  A    between atoms: N_31  and  C_32
REMARK   10  A    between atoms: N_31  and  C_33
REMARK                            x       y       z     vdW  Elec       q    Type
REMARK                         _______ _______ _______ _____ _____    ______ ____
ROOT
ATOM      1  N   UNL     1       0.813  -4.867   6.115  0.00  0.00    -0.301 N 
ATOM      2  C   UNL     1       1.808  -5.219   6.953  0.00  0.00    +0.300 C 
ATOM      3  O   UNL     1       2.953  -4.893   6.708  0.00  0.00    -0.253 OA
ATOM      4  N   UNL     1       1.533  -5.933   8.063  0.00  0.00    -0.289 N 
ATOM      5  H   UNL     1      -0.101  -5.128   6.311  0.00  0.00    +0.150 HD
ATOM      6  H   UNL     1       0.620  -6.193   8.259  0.00  0.00    +0.151 HD
ENDROOT
BRANCH   1   7
ATOM      7  C   UNL     1       1.111  -4.091   4.909  0.00  0.00    +0.095 C 
BRANCH   7   8
ATOM      8  C   UNL     1      -0.194  -3.745   4.189  0.00  0.00    -0.021 C 
BRANCH   8  17
ATOM      9  C   UNL     1      -2.607  -9.384   1.415  0.00  0.00    +0.129 C 
ATOM     10  N   UNL     1      -2.815  -8.503   2.566  0.00  0.00    -0.332 N 
ATOM     11  C   UNL     1      -3.824  -8.708   3.609  0.00  0.00    +0.109 C 
ATOM     12  C   UNL     1      -3.644  -7.531   4.581  0.00  0.00    +0.056 C 
ATOM     13  C   UNL     1      -2.509  -6.723   3.993  0.00  0.00    -0.025 A 
ATOM     14  C   UNL     1      -2.077  -7.349   2.834  0.00  0.00    +0.033 A 
ATOM     15  C   UNL     1      -1.023  -6.786   2.112  0.00  0.00    +0.023 A 
ATOM     16  C   UNL     1      -0.420  -5.626   2.551  0.00  0.00    +0.004 A 
ATOM     17  C   UNL     1      -0.856  -5.012   3.711  0.00  0.00    -0.059 A 
ATOM     18  C   UNL     1      -1.905  -5.559   4.427  0.00  0.00    +0.007 A 
ENDBRANCH   8  17
BRANCH   8  19
ATOM     19  N   UNL     1       0.096  -2.880   3.038  0.00  0.00    +0.382 N 
ATOM     20  C   UNL     1      -1.152  -2.585   2.321  0.00  0.00    -0.096 C 
ATOM     21  C   UNL     1       0.699  -1.626   3.508  0.00  0.00    -0.096 C 
ATOM     22  H   UNL     1       0.737  -3.350   2.417  0.00  0.00    -0.082 HD
ENDBRANCH   8  19
ENDBRANCH   7   8
ENDBRANCH   1   7
BRANCH   4  23
ATOM     23  C   UNL     1       2.615  -6.316   8.974  0.00  0.00    +0.135 C 
BRANCH  23  24
ATOM     24  C   UNL     1       2.055  -6.531  10.356  0.00  0.00    -0.023 A 
ATOM     25  C   UNL     1       0.839  -7.168  10.518  0.00  0.00    +0.006 A 
ATOM     26  C   UNL     1       0.326  -7.365  11.786  0.00  0.00    +0.000 A 
ATOM     27  C   UNL     1       1.028  -6.926  12.893  0.00  0.00    +0.000 A 
ATOM     28  C   UNL     1       2.244  -6.289  12.731  0.00  0.00    +0.000 A 
ATOM     29  C   UNL     1       2.760  -6.096  11.463  0.00  0.00    +0.006 A 
ENDBRANCH  23  24
BRANCH  23  30
ATOM     30  C   UNL     1       3.254  -7.590   8.487  0.00  0.00    -0.023 A 
ATOM     31  C   UNL     1       2.469  -8.603   7.968  0.00  0.00    +0.006 A 
ATOM     32  C   UNL     1       3.056  -9.773   7.522  0.00  0.00    +0.000 A 
ATOM     33  C   UNL     1       4.427  -9.929   7.593  0.00  0.00    +0.000 A 
ATOM     34  C   UNL     1       5.213  -8.916   8.111  0.00  0.00    +0.000 A 
ATOM     35  C   UNL     1       4.626  -7.745   8.554  0.00  0.00    +0.006 A 
ENDBRANCH  23  30
ENDBRANCH   4  23
TORSDOF 7
