REMARK  Name = ZINC03112703
REMARK  12 active torsions:
REMARK  status: ('A' for Active; 'I' for Inactive)
REMARK    1  A    between atoms: C_1  and  C_2
REMARK    2  A    between atoms: C_5  and  S_8
REMARK    3  A    between atoms: S_8  and  N_11
REMARK    4  A    between atoms: N_11  and  C_12
REMARK    5  A    between atoms: C_12  and  C_14
REMARK    6  A    between atoms: C_12  and  C_21
REMARK    7  A    between atoms: C_14  and  C_15
REMARK    8  A    between atoms: N_23  and  N_24
REMARK    9  A    between atoms: C_25  and  C_26
REMARK   10  A    between atoms: C_29  and  O_32
REMARK   11  A    between atoms: O_32  and  C_33
REMARK   12  A    between atoms: C_33  and  C_34
REMARK                            x       y       z     vdW  Elec       q    Type
REMARK                         _______ _______ _______ _____ _____    ______ ____
ROOT
ATOM      1  C   UNL     1       0.131  -0.588   1.450  0.00  0.00    +0.168 C 
ENDROOT
BRANCH   1   2
ATOM      2  C   UNL     1       0.367  -2.075   1.522  0.00  0.00    +0.251 C 
ATOM      3  O   UNL     1      -0.414  -2.785   2.121  0.00  0.00    -0.272 OA
ATOM      4  N   UNL     1       1.445  -2.616   0.922  0.00  0.00    -0.206 N 
ATOM      5  H   UNL     1       2.069  -2.049   0.443  0.00  0.00    +0.177 HD
BRANCH   4   6
ATOM      6  N   UNL     1       1.664  -3.998   0.989  0.00  0.00    -0.188 NA
ATOM      7  C   UNL     1       2.703  -4.520   0.411  0.00  0.00    +0.138 C 
BRANCH   7   8
ATOM      8  C   UNL     1       2.933  -5.974   0.482  0.00  0.00    -0.005 A 
ATOM      9  C   UNL     1       2.038  -6.793   1.176  0.00  0.00    +0.013 A 
ATOM     10  C   UNL     1       2.256  -8.152   1.235  0.00  0.00    +0.046 A 
ATOM     11  C   UNL     1       3.367  -8.708   0.615  0.00  0.00    +0.121 A 
ATOM     12  C   UNL     1       4.263  -7.897  -0.071  0.00  0.00    +0.046 A 
ATOM     13  C   UNL     1       4.051  -6.538  -0.140  0.00  0.00    +0.013 A 
BRANCH  11  14
ATOM     14  O   UNL     1       3.580 -10.048   0.680  0.00  0.00    -0.487 OA
BRANCH  14  15
ATOM     15  C   UNL     1       2.620 -10.823   1.402  0.00  0.00    +0.264 C 
BRANCH  15  16
ATOM     16  C   UNL     1       3.019 -12.276   1.367  0.00  0.00    -0.010 A 
ATOM     17  C   UNL     1       2.562 -13.093   0.350  0.00  0.00    +0.007 A 
ATOM     18  C   UNL     1       2.932 -14.425   0.314  0.00  0.00    +0.000 A 
ATOM     19  C   UNL     1       3.749 -14.941   1.302  0.00  0.00    +0.000 A 
ATOM     20  C   UNL     1       4.201 -14.125   2.323  0.00  0.00    +0.000 A 
ATOM     21  C   UNL     1       3.836 -12.793   2.355  0.00  0.00    +0.007 A 
ENDBRANCH  15  16
ENDBRANCH  14  15
ENDBRANCH  11  14
ENDBRANCH   7   8
ENDBRANCH   4   6
ENDBRANCH   1   2
BRANCH   1  22
ATOM     22  N   UNL     1      -1.097  -0.253   2.176  0.00  0.00    -0.178 NA
ATOM     23  H   UNL     1      -1.957  -0.324   1.732  0.00  0.00    +0.149 HD
BRANCH  22  24
ATOM     24  S   UNL     1      -1.016   0.247   3.752  0.00  0.00    +0.059 S 
ATOM     25  O   UNL     1      -2.346   0.549   4.151  0.00  0.00    -0.153 OA
ATOM     26  O   UNL     1      -0.212  -0.702   4.439  0.00  0.00    -0.153 OA
BRANCH  24  31
ATOM     27  C   UNL     1       2.028   5.456   3.819  0.00  0.00    +0.044 C 
ATOM     28  C   UNL     1       1.268   4.155   3.803  0.00  0.00    -0.050 A 
ATOM     29  C   UNL     1      -0.114   4.162   3.752  0.00  0.00    +0.005 A 
ATOM     30  C   UNL     1      -0.811   2.969   3.737  0.00  0.00    +0.029 A 
ATOM     31  C   UNL     1      -0.127   1.768   3.772  0.00  0.00    +0.105 A 
ATOM     32  C   UNL     1       1.254   1.761   3.827  0.00  0.00    +0.029 A 
ATOM     33  C   UNL     1       1.952   2.954   3.838  0.00  0.00    +0.005 A 
ENDBRANCH  24  31
ENDBRANCH  22  24
ENDBRANCH   1  22
BRANCH   1  34
ATOM     34  C   UNL     1      -0.010  -0.165  -0.013  0.00  0.00    +0.065 C 
BRANCH  34  35
ATOM     35  C   UNL     1      -0.160   1.332  -0.091  0.00  0.00    -0.045 A 
ATOM     36  C   UNL     1      -1.420   1.898  -0.157  0.00  0.00    +0.004 A 
ATOM     37  C   UNL     1      -1.558   3.272  -0.223  0.00  0.00    +0.000 A 
ATOM     38  C   UNL     1      -0.436   4.080  -0.234  0.00  0.00    +0.000 A 
ATOM     39  C   UNL     1       0.823   3.514  -0.173  0.00  0.00    +0.000 A 
ATOM     40  C   UNL     1       0.962   2.140  -0.102  0.00  0.00    +0.004 A 
ENDBRANCH  34  35
ENDBRANCH   1  34
TORSDOF 11
