REMARK  Name = ZINC30682009
REMARK  8 active torsions:
REMARK  status: ('A' for Active; 'I' for Inactive)
REMARK    1  A    between atoms: C_1  and  C_2
REMARK    2  A    between atoms: C_5  and  C_7
REMARK    3  A    between atoms: N_9  and  C_10
REMARK    4  A    between atoms: C_13  and  C_16
REMARK    5  A    between atoms: N_18  and  C_19
REMARK    6  A    between atoms: C_19  and  C_20
REMARK    7  A    between atoms: C_20  and  C_21
REMARK    8  A    between atoms: C_21  and  N_22
REMARK                            x       y       z     vdW  Elec       q    Type
REMARK                         _______ _______ _______ _____ _____    ______ ____
ROOT
ATOM      1  C   UNL     1      -0.228   1.205   4.918  0.00  0.00    +0.244 C 
ATOM      2  O   UNL     1       0.773   0.521   5.012  0.00  0.00    -0.270 OA
ATOM      3  N   UNL     1      -0.714   1.524   3.702  0.00  0.00    -0.311 N 
ATOM      4  H   UNL     1      -1.620   2.143   3.617  0.00  0.00    +0.149 HD
ENDROOT
BRANCH   1   8
ATOM      5  C   UNL     1      -2.193   2.586   8.421  0.00  0.00    +0.033 A 
ATOM      6  C   UNL     1      -1.048   1.803   8.530  0.00  0.00    +0.024 A 
ATOM      7  C   UNL     1      -0.408   1.354   7.397  0.00  0.00    +0.015 A 
ATOM      8  C   UNL     1      -0.911   1.684   6.136  0.00  0.00    +0.037 A 
ATOM      9  C   UNL     1      -2.059   2.475   6.029  0.00  0.00    +0.015 A 
ATOM     10  C   UNL     1      -2.696   2.917   7.167  0.00  0.00    +0.024 A 
BRANCH   5  13
ATOM     11  C   UNL     1      -3.423   4.253   9.582  0.00  0.00    +0.221 C 
ATOM     12  O   UNL     1      -3.460   4.917   8.567  0.00  0.00    -0.275 OA
ATOM     13  N   UNL     1      -2.838   3.039   9.571  0.00  0.00    -0.285 N 
ATOM     14  H   UNL     1      -2.870   2.406  10.470  0.00  0.00    +0.155 HD
BRANCH  11  18
ATOM     15  C   UNL     1      -4.556   7.057  12.043  0.00  0.00    +0.008 C 
ATOM     16  C   UNL     1      -4.678   6.171  10.801  0.00  0.00    -0.002 C 
ATOM     17  C   UNL     1      -5.553   4.920  10.908  0.00  0.00    +0.017 C 
ATOM     18  C   UNL     1      -4.030   4.787  10.854  0.00  0.00    +0.078 C 
ENDBRANCH  11  18
ENDBRANCH   5  13
ENDBRANCH   1   8
BRANCH   3  19
ATOM     19  C   UNL     1      -0.036   1.048   2.494  0.00  0.00    +0.106 C 
BRANCH  19  20
ATOM     20  C   UNL     1      -0.786   1.548   1.258  0.00  0.00    +0.038 C 
BRANCH  20  21
ATOM     21  C   UNL     1      -0.079   1.051  -0.004  0.00  0.00    +0.119 C 
BRANCH  21  22
ATOM     22  N   UNL     1      -0.797   1.529  -1.188  0.00  0.00    -0.224 N 
ATOM     23  C   UNL     1      -0.539   2.699  -1.811  0.00  0.00    +0.246 C 
ATOM     24  O   UNL     1       0.298   3.523  -1.511  0.00  0.00    -0.273 OA
ATOM     25  C   UNL     1      -1.514   2.762  -2.959  0.00  0.00    +0.113 C 
ATOM     26  C   UNL     1      -0.778   2.847  -4.303  0.00  0.00    +0.035 C 
ATOM     27  C   UNL     1      -1.686   3.757  -5.170  0.00  0.00    +0.003 C 
ATOM     28  C   UNL     1      -2.203   4.802  -4.149  0.00  0.00    +0.003 C 
ATOM     29  C   UNL     1      -2.420   3.990  -2.852  0.00  0.00    +0.035 C 
ATOM     30  N   UNL     1      -2.282   1.520  -2.855  0.00  0.00    -0.285 N 
ATOM     31  C   UNL     1      -1.787   0.858  -1.790  0.00  0.00    +0.309 C 
ATOM     32  O   UNL     1      -2.196  -0.224  -1.416  0.00  0.00    -0.252 OA
ATOM     33  H   UNL     1      -3.081   1.305  -3.580  0.00  0.00    +0.151 HD
ENDBRANCH  21  22
ENDBRANCH  20  21
ENDBRANCH  19  20
ENDBRANCH   3  19
TORSDOF 7
