REMARK  Name = ZINC34889335
REMARK  9 active torsions:
REMARK  status: ('A' for Active; 'I' for Inactive)
REMARK    1  A    between atoms: C_1  and  C_2
REMARK    2  A    between atoms: C_7  and  C_8
REMARK    3  A    between atoms: C_7  and  C_9
REMARK    4  A    between atoms: C_11  and  N_13
REMARK    5  A    between atoms: C_14  and  C_16
REMARK    6  A    between atoms: C_16  and  S_17
REMARK    7  A    between atoms: S_17  and  C_18
REMARK    8  A    between atoms: C_21  and  C_24
REMARK    9  A    between atoms: N_22  and  N_23
REMARK                            x       y       z     vdW  Elec       q    Type
REMARK                         _______ _______ _______ _____ _____    ______ ____
ROOT
ATOM      1  C   UNL     1      -4.509   0.608   1.851  0.00  0.00    +0.173 C 
ENDROOT
BRANCH   1   3
ATOM      2  N   UNL     1      -2.268  -0.017   1.012  0.00  0.00    -0.311 N 
ATOM      3  C   UNL     1      -3.606  -0.100   0.874  0.00  0.00    +0.224 C 
ATOM      4  O   UNL     1      -4.083  -0.745  -0.035  0.00  0.00    -0.275 OA
ATOM      5  H   UNL     1      -1.886   0.499   1.739  0.00  0.00    +0.149 HD
BRANCH   2  15
ATOM      6  C   UNL     1      -0.019   1.526   0.010  0.00  0.00    +0.013 C 
ATOM      7  C   UNL     1       0.002  -0.004   0.002  0.00  0.00    -0.008 C 
ATOM      8  C   UNL     1       0.744  -0.669  -1.197  0.00  0.00    +0.009 C 
ATOM      9  C   UNL     1       1.062  -2.103  -0.714  0.00  0.00    +0.005 C 
ATOM     10  C   UNL     1       0.481  -2.169   0.732  0.00  0.00    -0.003 C 
ATOM     11  C   UNL     1       0.727  -0.695   1.211  0.00  0.00    -0.025 C 
ATOM     12  C   UNL     1       2.216  -0.348   1.260  0.00  0.00    +0.012 C 
ATOM     13  C   UNL     1       0.031  -0.400   2.541  0.00  0.00    +0.012 C 
ATOM     14  C   UNL     1      -1.065  -2.175   0.532  0.00  0.00    +0.027 C 
ATOM     15  C   UNL     1      -1.389  -0.705   0.062  0.00  0.00    +0.080 C 
ENDBRANCH   2  15
ENDBRANCH   1   3
BRANCH   1  16
ATOM     16  S   UNL     1      -6.240   0.306   1.402  0.00  0.00    -0.075 S 
BRANCH  16  17
ATOM     17  C   UNL     1      -7.157   1.188   2.621  0.00  0.00    +0.209 A 
ATOM     18  N   UNL     1      -6.659   1.896   3.609  0.00  0.00    -0.121 NA
ATOM     19  N   UNL     1      -7.607   2.405   4.311  0.00  0.00    -0.126 NA
ATOM     20  C   UNL     1      -8.772   2.054   3.813  0.00  0.00    +0.188 A 
ATOM     21  N   UNL     1      -8.519   1.267   2.711  0.00  0.00    -0.223 N 
BRANCH  20  22
ATOM     22  C   UNL     1     -10.096   2.433   4.332  0.00  0.00    +0.058 A 
ATOM     23  C   UNL     1     -10.424   3.423   5.224  0.00  0.00    +0.019 A 
ATOM     24  C   UNL     1     -11.747   3.595   5.563  0.00  0.00    +0.008 A 
ATOM     25  C   UNL     1     -12.684   2.783   5.008  0.00  0.00    +0.046 A 
ATOM     26  S   UNL     1     -11.695   1.732   3.958  0.00  0.00    -0.093 S 
ENDBRANCH  20  22
BRANCH  21  27
ATOM     27  N   UNL     1      -9.437   0.686   1.883  0.00  0.00    -0.295 N 
ATOM     28  H   UNL     1      -9.688  -0.234   2.211  0.00  0.00    +0.163 HD
ATOM     29  H   UNL     1     -10.253   1.270   1.782  0.00  0.00    +0.163 HD
ENDBRANCH  21  27
ENDBRANCH  16  17
ENDBRANCH   1  16
TORSDOF 6
