REMARK  Name = ZINC06408446
REMARK  10 active torsions:
REMARK  status: ('A' for Active; 'I' for Inactive)
REMARK    1  A    between atoms: C_1  and  C_2
REMARK    2  A    between atoms: C_9  and  C_14
REMARK    3  A    between atoms: C_14  and  N_15
REMARK    4  A    between atoms: N_15  and  C_16
REMARK    5  A    between atoms: N_15  and  S_22
REMARK    6  A    between atoms: C_16  and  C_17
REMARK    7  A    between atoms: S_22  and  C_25
REMARK    8  A    between atoms: C_26  and  C_33
REMARK    9  A    between atoms: C_28  and  C_32
REMARK   10  A    between atoms: C_30  and  C_31
REMARK                            x       y       z     vdW  Elec       q    Type
REMARK                         _______ _______ _______ _____ _____    ______ ____
ROOT
ATOM      1  N   UNL     1       4.017   5.096  -0.312  0.00  0.00    -0.165 NA
ENDROOT
BRANCH   1   2
ATOM      2  S   UNL     1       2.990   4.421   0.798  0.00  0.00    +0.062 S 
ATOM      3  O   UNL     1       2.090   5.447   1.195  0.00  0.00    -0.153 OA
ATOM      4  O   UNL     1       3.802   3.718   1.728  0.00  0.00    -0.153 OA
BRANCH   2   5
ATOM      5  C   UNL     1       2.031   3.210  -0.050  0.00  0.00    +0.111 A 
ATOM      6  C   UNL     1       0.812   3.556  -0.601  0.00  0.00    -0.024 A 
ATOM      7  C   UNL     1       0.060   2.605  -1.266  0.00  0.00    +0.008 A 
ATOM      8  C   UNL     1       0.524   1.308  -1.375  0.00  0.00    -0.050 A 
ATOM      9  C   UNL     1       1.746   0.964  -0.828  0.00  0.00    +0.008 A 
ATOM     10  C   UNL     1       2.499   1.914  -0.163  0.00  0.00    -0.024 A 
ATOM     11  C   UNL     1       3.829   1.537   0.438  0.00  0.00    +0.046 C 
ATOM     12  C   UNL     1      -0.298   0.271  -2.094  0.00  0.00    +0.044 C 
ATOM     13  C   UNL     1       0.302   4.968  -0.477  0.00  0.00    +0.046 C 
ENDBRANCH   2   5
ENDBRANCH   1   2
BRANCH   1  14
ATOM     14  C   UNL     1       3.645   6.338  -0.994  0.00  0.00    +0.150 C 
BRANCH  14  23
ATOM     15  C   UNL     1       9.731  10.522  -2.030  0.00  0.00    +0.044 C 
ATOM     16  C   UNL     1       8.509  10.155  -1.227  0.00  0.00    -0.050 A 
ATOM     17  C   UNL     1       8.221  10.847  -0.058  0.00  0.00    +0.005 A 
ATOM     18  C   UNL     1       7.109  10.528   0.691  0.00  0.00    +0.026 A 
ATOM     19  C   UNL     1       6.266   9.502   0.275  0.00  0.00    +0.049 A 
ATOM     20  C   UNL     1       6.562   8.804  -0.911  0.00  0.00    -0.001 A 
ATOM     21  C   UNL     1       7.696   9.145  -1.656  0.00  0.00    +0.013 A 
ATOM     22  C   UNL     1       5.669   7.727  -1.341  0.00  0.00    +0.020 A 
ATOM     23  C   UNL     1       4.585   7.441  -0.579  0.00  0.00    +0.033 A 
ATOM     24  C   UNL     1       4.330   8.176   0.598  0.00  0.00    +0.254 A 
ATOM     25  O   UNL     1       3.347   7.906   1.266  0.00  0.00    -0.268 OA
ATOM     26  N   UNL     1       5.147   9.163   1.005  0.00  0.00    -0.322 N 
ATOM     27  H   UNL     1       4.945   9.645   1.821  0.00  0.00    +0.169 HD
ENDBRANCH  14  23
ENDBRANCH   1  14
BRANCH   1  28
ATOM     28  C   UNL     1       5.299   4.452  -0.611  0.00  0.00    +0.184 C 
BRANCH  28  29
ATOM     29  C   UNL     1       5.217   3.770  -1.952  0.00  0.00    +0.120 A 
ATOM     30  C   UNL     1       5.593   4.301  -3.129  0.00  0.00    +0.046 A 
ATOM     31  C   UNL     1       5.344   3.322  -4.118  0.00  0.00    +0.041 A 
ATOM     32  C   UNL     1       4.831   2.252  -3.487  0.00  0.00    +0.195 A 
ATOM     33  O   UNL     1       4.761   2.526  -2.174  0.00  0.00    -0.466 OA
ENDBRANCH  28  29
ENDBRANCH   1  28
TORSDOF 6
