REMARK  Name = ZINC59891602
REMARK  9 active torsions:
REMARK  status: ('A' for Active; 'I' for Inactive)
REMARK    1  A    between atoms: C_1  and  C_2
REMARK    2  A    between atoms: C_3  and  C_13
REMARK    3  A    between atoms: C_4  and  C_12
REMARK    4  A    between atoms: C_9  and  C_10
REMARK    5  A    between atoms: C_13  and  C_14
REMARK    6  A    between atoms: C_14  and  C_15
REMARK    7  A    between atoms: N_17  and  C_18
REMARK    8  A    between atoms: C_18  and  C_19
REMARK    9  A    between atoms: C_19  and  C_23
REMARK                            x       y       z     vdW  Elec       q    Type
REMARK                         _______ _______ _______ _____ _____    ______ ____
ROOT
ATOM      1  C   UNL     1      -3.326   1.385   2.402  0.00  0.00    +0.213 C 
ATOM      2  O   UNL     1      -3.581   1.446   1.218  0.00  0.00    -0.276 OA
ATOM      3  N   UNL     1      -4.255   1.740   3.311  0.00  0.00    -0.314 N 
ATOM      4  H   UNL     1      -4.051   1.691   4.258  0.00  0.00    +0.149 HD
ENDROOT
BRANCH   1   5
ATOM      5  C   UNL     1      -1.969   0.912   2.857  0.00  0.00    +0.100 C 
BRANCH   5   6
ATOM      6  C   UNL     1      -1.111   0.575   1.636  0.00  0.00    +0.046 C 
BRANCH   6   9
ATOM      7  C   UNL     1       0.987   2.508   2.226  0.00  0.00    +0.045 C 
ATOM      8  C   UNL     1       1.249   1.032   2.373  0.00  0.00    -0.023 A 
ATOM      9  C   UNL     1       0.246   0.102   2.091  0.00  0.00    -0.024 A 
ATOM     10  C   UNL     1       0.490  -1.225   2.226  0.00  0.00    +0.019 A 
ATOM     11  N   UNL     1       1.700  -1.679   2.633  0.00  0.00    -0.325 N 
ATOM     12  H   UNL     1       1.847  -2.634   2.721  0.00  0.00    +0.169 HD
ATOM     13  C   UNL     1       2.702  -0.826   2.918  0.00  0.00    +0.267 A 
ATOM     14  O   UNL     1       3.784  -1.253   3.283  0.00  0.00    -0.266 OA
ATOM     15  C   UNL     1       2.497   0.572   2.786  0.00  0.00    +0.119 A 
ATOM     16  C   UNL     1      -0.605  -2.214   1.917  0.00  0.00    +0.063 C 
BRANCH  15  17
ATOM     17  C   UNL     1       3.552   1.495   3.079  0.00  0.00    +0.105 C 
ATOM     18  N   UNL     1       4.389   2.227   3.311  0.00  0.00    -0.191 NA
ENDBRANCH  15  17
ENDBRANCH   6   9
ENDBRANCH   5   6
ENDBRANCH   1   5
BRANCH   3  19
ATOM     19  C   UNL     1      -5.574   2.199   2.869  0.00  0.00    +0.115 C 
BRANCH  19  20
ATOM     20  C   UNL     1      -6.472   2.420   4.088  0.00  0.00    +0.011 C 
ATOM     21  C   UNL     1      -7.709   3.285   3.793  0.00  0.00    +0.013 C 
ATOM     22  C   UNL     1      -6.842   4.505   4.145  0.00  0.00    +0.002 C 
ATOM     23  C   UNL     1      -5.994   3.556   5.008  0.00  0.00    +0.013 C 
BRANCH  20  24
ATOM     24  C   UNL     1      -6.788   1.142   4.821  0.00  0.00    -0.039 A 
ATOM     25  C   UNL     1      -6.316   0.947   6.106  0.00  0.00    +0.004 A 
ATOM     26  C   UNL     1      -6.605  -0.225   6.779  0.00  0.00    +0.001 A 
ATOM     27  C   UNL     1      -7.367  -1.203   6.168  0.00  0.00    +0.015 A 
ATOM     28  C   UNL     1      -7.841  -1.009   4.883  0.00  0.00    +0.018 A 
ATOM     29  C   UNL     1      -7.555   0.167   4.211  0.00  0.00    +0.019 A 
ATOM     30 BR   UNL     1      -8.883  -2.346   4.046  0.00  0.00    -0.050 Br
ENDBRANCH  20  24
ENDBRANCH  19  20
ENDBRANCH   3  19
TORSDOF 7
