REMARK  Name = ZINC64166936
REMARK  5 active torsions:
REMARK  status: ('A' for Active; 'I' for Inactive)
REMARK    1  A    between atoms: C_8  and  C_24
REMARK    2  A    between atoms: N_10  and  C_16
REMARK    3  A    between atoms: C_16  and  C_17
REMARK    4  A    between atoms: C_17  and  C_18
REMARK    5  A    between atoms: C_18  and  N_19
REMARK                            x       y       z     vdW  Elec       q    Type
REMARK                         _______ _______ _______ _____ _____    ______ ____
ROOT
ATOM      1  C   UNL     1      -0.810   0.576  -0.236  0.00  0.00    +0.001 A 
ATOM      2  C   UNL     1       0.212   1.526  -0.105  0.00  0.00    +0.002 A 
ATOM      3  C   UNL     1       1.515   1.185  -0.012  0.00  0.00    +0.026 A 
ATOM      4  C   UNL     1       1.907  -0.180  -0.043  0.00  0.00    +0.043 A 
ATOM      5  N   UNL     1       3.090  -0.751   0.005  0.00  0.00    -0.376 N 
ATOM      6  C   UNL     1       2.905  -2.198   0.029  0.00  0.00    +0.128 C 
ATOM      7  C   UNL     1       3.655  -2.907  -1.102  0.00  0.00    +0.113 C 
ATOM      8  N   UNL     1       3.179  -4.298  -1.172  0.00  0.00    -0.293 NA
ATOM      9  C   UNL     1       1.781  -4.409  -1.596  0.00  0.00    +0.089 C 
ATOM     10  C   UNL     1       0.856  -3.782  -0.537  0.00  0.00    +0.049 C 
ATOM     11  C   UNL     1       1.419  -2.416  -0.212  0.00  0.00    -0.035 C 
ATOM     12  C   UNL     1       0.845  -1.207  -0.190  0.00  0.00    -0.001 A 
ATOM     13  C   UNL     1      -0.547  -0.749  -0.281  0.00  0.00    +0.010 A 
ATOM     14  H   UNL     1       3.942  -0.288   0.021  0.00  0.00    +0.160 HD
ENDROOT
BRANCH   7  15
ATOM     15  C   UNL     1       3.381  -2.209  -2.409  0.00  0.00    -0.028 A 
ATOM     16  C   UNL     1       2.079  -1.980  -2.810  0.00  0.00    +0.008 A 
ATOM     17  C   UNL     1       1.826  -1.340  -4.009  0.00  0.00    +0.038 A 
ATOM     18  C   UNL     1       2.879  -0.928  -4.808  0.00  0.00    +0.123 A 
ATOM     19  C   UNL     1       4.184  -1.157  -4.405  0.00  0.00    +0.038 A 
ATOM     20  C   UNL     1       4.434  -1.793  -3.203  0.00  0.00    +0.008 A 
ATOM     21  F   UNL     1       2.634  -0.302  -5.980  0.00  0.00    -0.205 F 
ENDBRANCH   7  15
BRANCH   8  22
ATOM     22  C   UNL     1       4.055  -5.111  -2.026  0.00  0.00    +0.087 C 
BRANCH  22  23
ATOM     23  C   UNL     1       3.682  -6.588  -1.879  0.00  0.00    +0.039 C 
BRANCH  23  24
ATOM     24  C   UNL     1       4.594  -7.435  -2.769  0.00  0.00    +0.144 C 
BRANCH  24  25
ATOM     25  N   UNL     1       4.237  -8.849  -2.628  0.00  0.00    -0.271 N 
ATOM     26  C   UNL     1       3.916  -9.690  -3.633  0.00  0.00    +0.108 A 
ATOM     27  C   UNL     1       3.653 -10.901  -3.089  0.00  0.00    +0.041 A 
ATOM     28  C   UNL     1       3.819 -10.796  -1.704  0.00  0.00    +0.134 A 
ATOM     29  N   UNL     1       4.175  -9.568  -1.427  0.00  0.00    -0.180 NA
ENDBRANCH  24  25
ENDBRANCH  23  24
ENDBRANCH  22  23
ENDBRANCH   8  22
TORSDOF 5
