REMARK  Name = ZINC16506052
REMARK  11 active torsions:
REMARK  status: ('A' for Active; 'I' for Inactive)
REMARK    1  A    between atoms: C_1  and  O_2
REMARK    2  A    between atoms: O_2  and  C_3
REMARK    3  A    between atoms: C_3  and  C_4
REMARK    4  A    between atoms: C_4  and  C_5
REMARK    5  A    between atoms: C_5  and  N_6
REMARK    6  A    between atoms: N_6  and  C_7
REMARK    7  A    between atoms: C_7  and  C_8
REMARK    8  A    between atoms: C_18  and  C_20
REMARK    9  A    between atoms: C_27  and  C_29
REMARK   10  A    between atoms: C_29  and  C_30
REMARK   11  A    between atoms: C_30  and  C_31
REMARK                            x       y       z     vdW  Elec       q    Type
REMARK                         _______ _______ _______ _____ _____    ______ ____
ROOT
ATOM      1  C   UNL     1      -1.532   4.094  -1.485  0.00  0.00    +0.234 C 
ATOM      2  O   UNL     1      -1.513   3.347  -2.440  0.00  0.00    -0.274 OA
ATOM      3  N   UNL     1      -1.422   5.425  -1.668  0.00  0.00    -0.289 N 
ATOM      4  C   UNL     1      -1.579   6.349  -0.535  0.00  0.00    +0.114 C 
ATOM      5  C   UNL     1      -0.230   7.059  -0.308  0.00  0.00    +0.062 C 
ATOM      6  C   UNL     1       0.330   7.457  -1.634  0.00  0.00    -0.003 A 
ATOM      7  C   UNL     1      -0.035   7.007  -2.865  0.00  0.00    -0.012 A 
ATOM      8  C   UNL     1       0.654   7.537  -3.955  0.00  0.00    +0.013 A 
ATOM      9  C   UNL     1       1.629   8.454  -3.758  0.00  0.00    +0.046 A 
ATOM     10  S   UNL     1       1.625   8.619  -1.979  0.00  0.00    -0.101 S 
ATOM     11  C   UNL     1      -1.150   5.973  -3.003  0.00  0.00    +0.137 C 
ENDROOT
BRANCH  11  12
ATOM     12  C   UNL     1      -0.711   4.867  -3.929  0.00  0.00    -0.022 A 
ATOM     13  C   UNL     1       0.455   4.171  -3.670  0.00  0.00    +0.008 A 
ATOM     14  C   UNL     1       0.856   3.154  -4.515  0.00  0.00    +0.038 A 
ATOM     15  C   UNL     1       0.095   2.840  -5.628  0.00  0.00    +0.123 A 
ATOM     16  C   UNL     1      -1.070   3.541  -5.890  0.00  0.00    +0.038 A 
ATOM     17  C   UNL     1      -1.472   4.554  -5.040  0.00  0.00    +0.008 A 
ATOM     18  F   UNL     1       0.489   1.849  -6.458  0.00  0.00    -0.205 F 
ENDBRANCH  11  12
BRANCH   1  19
ATOM     19  C   UNL     1      -1.677   3.534  -0.093  0.00  0.00    +0.203 C 
BRANCH  19  20
ATOM     20  N   UNL     1      -1.776   2.074  -0.161  0.00  0.00    -0.293 N 
ATOM     21  C   UNL     1      -0.661   1.319  -0.106  0.00  0.00    +0.216 C 
ATOM     22  O   UNL     1       0.425   1.849  -0.004  0.00  0.00    -0.276 OA
BRANCH  20  23
ATOM     23  C   UNL     1      -3.088   1.435  -0.291  0.00  0.00    +0.110 C 
BRANCH  23  24
ATOM     24  C   UNL     1      -3.658   1.153   1.101  0.00  0.00    +0.047 C 
BRANCH  24  25
ATOM     25  C   UNL     1      -5.027   0.485   0.966  0.00  0.00    +0.161 C 
BRANCH  25  27
ATOM     26  C   UNL     1      -6.843  -0.405   2.253  0.00  0.00    +0.193 C 
ATOM     27  O   UNL     1      -5.559   0.222   2.266  0.00  0.00    -0.383 OA
ENDBRANCH  25  27
ENDBRANCH  24  25
ENDBRANCH  23  24
ENDBRANCH  20  23
BRANCH  21  28
ATOM     28  C   UNL     1      -0.764  -0.183  -0.176  0.00  0.00    +0.096 C 
BRANCH  28  29
ATOM     29  C   UNL     1       0.636  -0.794  -0.099  0.00  0.00    +0.013 C 
BRANCH  29  30
ATOM     30  C   UNL     1       0.532  -2.319  -0.171  0.00  0.00    -0.011 C 
ATOM     31  C   UNL     1      -0.146  -2.862   1.104  0.00  0.00    +0.003 C 
ATOM     32  C   UNL     1       0.601  -4.187   1.397  0.00  0.00    +0.000 C 
ATOM     33  C   UNL     1       2.065  -3.842   1.026  0.00  0.00    +0.000 C 
ATOM     34  C   UNL     1       1.938  -2.942  -0.220  0.00  0.00    +0.003 C 
ENDBRANCH  29  30
ENDBRANCH  28  29
ENDBRANCH  21  28
ENDBRANCH  19  20
ENDBRANCH   1  19
TORSDOF 10
