REMARK  Name = ZINC20757679
REMARK  5 active torsions:
REMARK  status: ('A' for Active; 'I' for Inactive)
REMARK    1  A    between atoms: C_1  and  C_2
REMARK    2  A    between atoms: C_2  and  N_3
REMARK    3  A    between atoms: C_16  and  C_18
REMARK    4  A    between atoms: N_24  and  C_27
REMARK    5  A    between atoms: C_30  and  C_33
REMARK                            x       y       z     vdW  Elec       q    Type
REMARK                         _______ _______ _______ _____ _____    ______ ____
ROOT
ATOM      1  N   UNL     1      -0.692   0.521  -1.054  0.00  0.00    +0.388 N 
ATOM      2  C   UNL     1      -0.929   1.456   0.055  0.00  0.00    -0.073 C 
ATOM      3  C   UNL     1      -2.336   1.229   0.625  0.00  0.00    +0.019 C 
ATOM      4  C   UNL     1      -2.498  -0.249   0.879  0.00  0.00    -0.022 A 
ATOM      5  C   UNL     1      -3.488  -0.944   1.670  0.00  0.00    +0.003 A 
ATOM      6  C   UNL     1      -4.577  -0.506   2.429  0.00  0.00    +0.010 A 
ATOM      7  C   UNL     1      -5.320  -1.470   3.064  0.00  0.00    +0.001 A 
ATOM      8  C   UNL     1      -5.015  -2.818   2.966  0.00  0.00    +0.002 A 
ATOM      9  C   UNL     1      -3.943  -3.280   2.221  0.00  0.00    +0.026 A 
ATOM     10  C   UNL     1      -3.171  -2.324   1.565  0.00  0.00    +0.047 A 
ATOM     11  N   UNL     1      -2.068  -2.429   0.766  0.00  0.00    -0.359 N 
ATOM     12  H   UNL     1      -1.633  -3.261   0.523  0.00  0.00    +0.166 HD
ATOM     13  C   UNL     1      -1.671  -1.185   0.358  0.00  0.00    +0.011 A 
ATOM     14  C   UNL     1      -0.504  -0.843  -0.536  0.00  0.00    +0.021 C 
ATOM     15  H   UNL     1      -1.486   0.536  -1.676  0.00  0.00    -0.080 HD
ENDROOT
BRANCH  14  16
ATOM     16  C   UNL     1      -0.445  -1.816  -1.685  0.00  0.00    +0.074 A 
ATOM     17  C   UNL     1      -1.484  -1.865  -2.632  0.00  0.00    +0.260 A 
ATOM     18  N   UNL     1      -1.412  -2.743  -3.652  0.00  0.00    -0.274 N 
ATOM     19  H   UNL     1      -2.127  -2.779  -4.307  0.00  0.00    +0.173 HD
ATOM     20  C   UNL     1      -0.356  -3.568  -3.771  0.00  0.00    +0.337 A 
ATOM     21  O   UNL     1      -0.310  -4.352  -4.699  0.00  0.00    -0.246 OA
ATOM     22  N   UNL     1       0.650  -3.539  -2.877  0.00  0.00    -0.229 N 
ATOM     23  C   UNL     1       0.619  -2.656  -1.825  0.00  0.00    +0.267 A 
ATOM     24  O   UNL     1       1.633  -2.625  -0.933  0.00  0.00    -0.267 OA
ATOM     25  O   UNL     1      -2.442  -1.120  -2.530  0.00  0.00    -0.267 OA
BRANCH  22  26
ATOM     26  C   UNL     1       1.737  -4.410  -3.024  0.00  0.00    +0.054 A 
ATOM     27  C   UNL     1       2.846  -4.020  -3.764  0.00  0.00    +0.026 A 
ATOM     28  C   UNL     1       3.917  -4.880  -3.907  0.00  0.00    +0.005 A 
ATOM     29  C   UNL     1       3.885  -6.130  -3.315  0.00  0.00    -0.050 A 
ATOM     30  C   UNL     1       2.783  -6.521  -2.578  0.00  0.00    +0.005 A 
ATOM     31  C   UNL     1       1.711  -5.662  -2.426  0.00  0.00    +0.026 A 
ATOM     32  C   UNL     1       5.055  -7.066  -3.473  0.00  0.00    +0.044 C 
ENDBRANCH  22  26
ENDBRANCH  14  16
BRANCH   1  34
ATOM     33  C   UNL     1       0.271   2.300  -2.434  0.00  0.00    -0.017 C 
ATOM     34  C   UNL     1       0.510   0.933  -1.789  0.00  0.00    -0.081 C 
ENDBRANCH   1  34
TORSDOF 3
