REMARK  Name = ZINC64519932
REMARK  11 active torsions:
REMARK  status: ('A' for Active; 'I' for Inactive)
REMARK    1  A    between atoms: C_1  and  C_2
REMARK    2  A    between atoms: C_2  and  N_3
REMARK    3  A    between atoms: N_3  and  C_4
REMARK    4  A    between atoms: C_4  and  C_5
REMARK    5  A    between atoms: C_6  and  C_8
REMARK    6  A    between atoms: C_8  and  N_9
REMARK    7  A    between atoms: N_12  and  C_13
REMARK    8  A    between atoms: C_18  and  C_19
REMARK    9  A    between atoms: C_19  and  N_20
REMARK   10  A    between atoms: N_20  and  C_21
REMARK   11  A    between atoms: N_20  and  C_22
REMARK                            x       y       z     vdW  Elec       q    Type
REMARK                         _______ _______ _______ _____ _____    ______ ____
ROOT
ATOM      1  C   UNL     1      -0.389  -2.303  -8.156  0.00  0.00    +0.036 A 
ATOM      2  C   UNL     1       0.937  -2.610  -8.432  0.00  0.00    +0.023 A 
ATOM      3  C   UNL     1       1.311  -2.961  -9.713  0.00  0.00    +0.002 A 
ATOM      4  C   UNL     1       0.367  -3.008 -10.723  0.00  0.00    +0.000 A 
ATOM      5  C   UNL     1      -0.954  -2.703 -10.452  0.00  0.00    +0.003 A 
ATOM      6  C   UNL     1      -1.336  -2.356  -9.171  0.00  0.00    -0.043 A 
ENDROOT
BRANCH   1  10
ATOM      7  N   UNL     1      -0.333  -0.818  -4.863  0.00  0.00    -0.291 N 
ATOM      8  C   UNL     1       0.069  -1.239  -6.078  0.00  0.00    +0.304 C 
ATOM      9  O   UNL     1       1.190  -0.981  -6.471  0.00  0.00    -0.252 OA
ATOM     10  N   UNL     1      -0.772  -1.947  -6.858  0.00  0.00    -0.269 N 
ATOM     11  H   UNL     1      -1.228  -1.024  -4.549  0.00  0.00    +0.151 HD
ATOM     12  H   UNL     1      -1.643  -2.209  -6.520  0.00  0.00    +0.156 HD
BRANCH   7  13
ATOM     13  C   UNL     1       0.581  -0.049  -4.014  0.00  0.00    +0.201 C 
BRANCH  13  15
ATOM     14  N   UNL     1       0.547   1.006  -1.778  0.00  0.00    -0.301 N 
ATOM     15  C   UNL     1      -0.106   0.297  -2.719  0.00  0.00    +0.233 C 
ATOM     16  O   UNL     1      -1.248  -0.064  -2.523  0.00  0.00    -0.274 OA
BRANCH  14  18
ATOM     17  C   UNL     1      -0.841   2.685  -0.665  0.00  0.00    +0.024 C 
ATOM     18  C   UNL     1      -0.122   1.343  -0.518  0.00  0.00    +0.104 C 
ENDBRANCH  14  18
BRANCH  14  19
ATOM     19  C   UNL     1       1.926   1.441  -2.014  0.00  0.00    +0.104 C 
ATOM     20  C   UNL     1       2.893   0.368  -1.510  0.00  0.00    +0.024 C 
ENDBRANCH  14  19
ENDBRANCH  13  15
ENDBRANCH   7  13
ENDBRANCH   1  10
BRANCH   6  21
ATOM     21  C   UNL     1      -2.777  -2.030  -8.876  0.00  0.00    -0.041 C 
BRANCH  21  22
ATOM     22  N   UNL     1      -2.951  -0.571  -8.840  0.00  0.00    +0.382 N 
ATOM     23  C   UNL     1      -2.692  -0.014 -10.174  0.00  0.00    -0.095 C 
ATOM     24  H   UNL     1      -2.304  -0.172  -8.177  0.00  0.00    -0.081 HD
BRANCH  22  25
ATOM     25  C   UNL     1      -4.327  -0.253  -8.435  0.00  0.00    -0.069 C 
ATOM     26  C   UNL     1      -4.509   1.266  -8.398  0.00  0.00    -0.015 C 
ATOM     27  C   UNL     1      -5.941   1.598  -7.976  0.00  0.00    -0.002 C 
ATOM     28  C   UNL     1      -6.211   1.018  -6.586  0.00  0.00    -0.000 C 
ATOM     29  C   UNL     1      -6.030  -0.500  -6.623  0.00  0.00    -0.002 C 
ATOM     30  C   UNL     1      -4.597  -0.833  -7.045  0.00  0.00    -0.015 C 
ENDBRANCH  22  25
ENDBRANCH  21  22
ENDBRANCH   6  21
TORSDOF 8
