REMARK  Name = ZINC02503811
REMARK  12 active torsions:
REMARK  status: ('A' for Active; 'I' for Inactive)
REMARK    1  A    between atoms: C_1  and  C_2
REMARK    2  A    between atoms: C_3  and  N_23
REMARK    3  A    between atoms: C_5  and  C_20
REMARK    4  A    between atoms: C_6  and  O_19
REMARK    5  A    between atoms: C_7  and  S_8
REMARK    6  A    between atoms: S_8  and  C_11
REMARK    7  A    between atoms: C_14  and  O_17
REMARK    8  A    between atoms: O_17  and  C_18
REMARK    9  A    between atoms: C_20  and  C_21
REMARK   10  A    between atoms: C_20  and  C_22
REMARK   11  A    between atoms: N_23  and  S_24
REMARK   12  A    between atoms: S_24  and  C_27
REMARK                            x       y       z     vdW  Elec       q    Type
REMARK                         _______ _______ _______ _____ _____    ______ ____
ROOT
ATOM      1  C   UNL     1       3.697  -1.222  -4.660  0.00  0.00    +0.048 C 
ATOM      2  C   UNL     1       4.220   0.004  -3.957  0.00  0.00    +0.001 A 
ATOM      3  C   UNL     1       4.632  -0.078  -2.633  0.00  0.00    +0.053 A 
ATOM      4  C   UNL     1       5.109   1.053  -1.985  0.00  0.00    +0.032 A 
ATOM      5  C   UNL     1       5.184   2.256  -2.660  0.00  0.00    +0.000 A 
ATOM      6  C   UNL     1       4.771   2.337  -3.982  0.00  0.00    +0.146 A 
ATOM      7  C   UNL     1       4.289   1.208  -4.628  0.00  0.00    +0.140 A 
ENDROOT
BRANCH   7   8
ATOM      8  S   UNL     1       3.767   1.312  -6.308  0.00  0.00    +0.029 S 
ATOM      9  O   UNL     1       2.792   0.295  -6.493  0.00  0.00    -0.164 OA
ATOM     10  O   UNL     1       3.496   2.683  -6.565  0.00  0.00    -0.164 OA
BRANCH   8  11
ATOM     11  C   UNL     1       5.148   0.874  -7.311  0.00  0.00    +0.094 A 
ATOM     12  C   UNL     1       6.024   1.852  -7.744  0.00  0.00    +0.031 A 
ATOM     13  C   UNL     1       7.111   1.511  -8.525  0.00  0.00    +0.047 A 
ATOM     14  C   UNL     1       7.316   0.187  -8.886  0.00  0.00    +0.120 A 
ATOM     15  C   UNL     1       6.432  -0.791  -8.456  0.00  0.00    +0.047 A 
ATOM     16  C   UNL     1       5.350  -0.446  -7.670  0.00  0.00    +0.031 A 
BRANCH  14  17
ATOM     17  O   UNL     1       8.381  -0.150  -9.660  0.00  0.00    -0.495 OA
ATOM     18  C   UNL     1       9.249   0.909 -10.066  0.00  0.00    +0.277 C 
ENDBRANCH  14  17
ENDBRANCH   8  11
ENDBRANCH   7   8
BRANCH   5  19
ATOM     19  C   UNL     1       5.707   3.483  -1.958  0.00  0.00    +0.017 C 
ATOM     20  C   UNL     1       4.829   3.788  -0.743  0.00  0.00    +0.012 C 
ATOM     21  C   UNL     1       7.145   3.233  -1.499  0.00  0.00    +0.012 C 
ENDBRANCH   5  19
BRANCH   6  22
ATOM     22  O   UNL     1       4.840   3.523  -4.644  0.00  0.00    -0.505 OA
ATOM     23  H   UNL     1       4.040   4.062  -4.568  0.00  0.00    +0.292 HD
ENDBRANCH   6  22
BRANCH   3  24
ATOM     24  N   UNL     1       4.562  -1.298  -1.952  0.00  0.00    -0.216 N 
ATOM     25  H   UNL     1       4.740  -2.127  -2.422  0.00  0.00    +0.174 HD
BRANCH  24  26
ATOM     26  S   UNL     1       4.174  -1.327  -0.342  0.00  0.00    +0.072 S 
ATOM     27  O   UNL     1       5.073  -0.439   0.308  0.00  0.00    -0.150 OA
ATOM     28  O   UNL     1       4.056  -2.695   0.023  0.00  0.00    -0.150 OA
BRANCH  26  29
ATOM     29  C   UNL     1       2.567  -0.622  -0.181  0.00  0.00    +0.108 A 
ATOM     30  C   UNL     1       1.448  -1.430  -0.255  0.00  0.00    +0.029 A 
ATOM     31  C   UNL     1       0.187  -0.878  -0.128  0.00  0.00    +0.002 A 
ATOM     32  C   UNL     1       0.045   0.483   0.072  0.00  0.00    +0.000 A 
ATOM     33  C   UNL     1       1.165   1.290   0.146  0.00  0.00    +0.002 A 
ATOM     34  C   UNL     1       2.425   0.738   0.020  0.00  0.00    +0.029 A 
ENDBRANCH  26  29
ENDBRANCH  24  26
ENDBRANCH   3  24
TORSDOF 8
