REMARK  Name = ZINC40752268
REMARK  7 active torsions:
REMARK  status: ('A' for Active; 'I' for Inactive)
REMARK    1  A    between atoms: C_1  and  C_2
REMARK    2  A    between atoms: C_9  and  O_12
REMARK    3  A    between atoms: O_12  and  C_13
REMARK    4  A    between atoms: C_14  and  N_27
REMARK    5  A    between atoms: C_15  and  N_19
REMARK    6  A    between atoms: N_19  and  N_20
REMARK    7  A    between atoms: N_20  and  C_21
REMARK                            x       y       z     vdW  Elec       q    Type
REMARK                         _______ _______ _______ _____ _____    ______ ____
ROOT
ATOM      1  C   UNL     1      -0.045  -2.684   4.744  0.00  0.00    +0.246 A 
ATOM      2  C   UNL     1      -0.164  -2.024   5.966  0.00  0.00    +0.129 A 
ATOM      3  C   UNL     1      -0.253  -2.797   7.127  0.00  0.00    +0.163 A 
ATOM      4  N   UNL     1      -0.221  -4.123   7.022  0.00  0.00    -0.217 NA
ATOM      5  C   UNL     1      -0.106  -4.706   5.846  0.00  0.00    +0.227 A 
ATOM      6  N   UNL     1      -0.025  -4.013   4.728  0.00  0.00    -0.199 NA
ENDROOT
BRANCH   2   7
ATOM      7  N   UNL     1      -0.194  -0.622   6.029  0.00  0.00    -0.351 N 
ATOM      8  H   UNL     1      -0.131  -0.099   5.215  0.00  0.00    +0.143 HD
ATOM      9  H   UNL     1      -0.278  -0.177   6.887  0.00  0.00    +0.143 HD
ENDBRANCH   2   7
BRANCH   3  10
ATOM     10  N   UNL     1      -0.374  -2.190   8.371  0.00  0.00    -0.249 N 
ATOM     11  H   UNL     1      -0.396  -1.223   8.439  0.00  0.00    +0.172 HD
BRANCH  10  12
ATOM     12  N   UNL     1      -0.462  -2.975   9.528  0.00  0.00    -0.265 N 
ATOM     13  H   UNL     1      -0.439  -3.943   9.461  0.00  0.00    +0.170 HD
BRANCH  12  14
ATOM     14  C   UNL     1      -0.583  -2.365  10.779  0.00  0.00    +0.044 A 
ATOM     15  C   UNL     1      -0.621  -0.980  10.877  0.00  0.00    +0.024 A 
ATOM     16  C   UNL     1      -0.741  -0.380  12.115  0.00  0.00    +0.002 A 
ATOM     17  C   UNL     1      -0.823  -1.157  13.257  0.00  0.00    +0.000 A 
ATOM     18  C   UNL     1      -0.785  -2.536  13.162  0.00  0.00    +0.002 A 
ATOM     19  C   UNL     1      -0.670  -3.143  11.927  0.00  0.00    +0.024 A 
ENDBRANCH  12  14
ENDBRANCH  10  12
ENDBRANCH   3  10
BRANCH   1  20
ATOM     20  O   UNL     1       0.045  -1.980   3.588  0.00  0.00    -0.434 OA
BRANCH  20  29
ATOM     21  C   UNL     1      -4.711  -2.867   2.351  0.00  0.00    +0.065 C 
ATOM     22  C   UNL     1      -3.386  -3.204   1.718  0.00  0.00    +0.039 A 
ATOM     23  C   UNL     1      -3.368  -3.919   0.522  0.00  0.00    +0.023 A 
ATOM     24  C   UNL     1      -2.176  -4.233  -0.066  0.00  0.00    +0.012 A 
ATOM     25  C   UNL     1      -0.991  -3.816   0.569  0.00  0.00    +0.004 A 
ATOM     26  C   UNL     1       0.271  -4.102   0.024  0.00  0.00    +0.010 A 
ATOM     27  C   UNL     1       1.396  -3.682   0.666  0.00  0.00    +0.004 A 
ATOM     28  C   UNL     1       1.314  -2.971   1.861  0.00  0.00    +0.048 A 
ATOM     29  C   UNL     1       0.105  -2.674   2.422  0.00  0.00    +0.156 A 
ATOM     30  C   UNL     1      -1.082  -3.093   1.784  0.00  0.00    +0.113 A 
ATOM     31  N   UNL     1      -2.280  -2.813   2.304  0.00  0.00    -0.248 NA
ENDBRANCH  20  29
ENDBRANCH   1  20
TORSDOF 6
