REMARK  Name = ZINC32124856
REMARK  9 active torsions:
REMARK  status: ('A' for Active; 'I' for Inactive)
REMARK    1  A    between atoms: C_1  and  O_2
REMARK    2  A    between atoms: O_2  and  C_3
REMARK    3  A    between atoms: C_6  and  N_9
REMARK    4  A    between atoms: C_15  and  C_16
REMARK    5  A    between atoms: C_19  and  S_25
REMARK    6  A    between atoms: C_20  and  N_22
REMARK    7  A    between atoms: S_25  and  C_26
REMARK    8  A    between atoms: C_26  and  C_27
REMARK    9  A    between atoms: C_27  and  O_28
REMARK                            x       y       z     vdW  Elec       q    Type
REMARK                         _______ _______ _______ _____ _____    ______ ____
ROOT
ATOM      1  N   UNL     1       2.357  -2.483  -4.248  0.00  0.00    -0.226 NA
ATOM      2  C   UNL     1       3.140  -3.535  -4.043  0.00  0.00    +0.166 C 
ATOM      3  N   UNL     1       3.570  -4.443  -4.971  0.00  0.00    -0.260 N 
ATOM      4  C   UNL     1       4.354  -5.431  -4.555  0.00  0.00    +0.256 C 
ATOM      5  O   UNL     1       4.790  -6.289  -5.299  0.00  0.00    -0.269 OA
ATOM      6  C   UNL     1       4.651  -5.395  -3.107  0.00  0.00    +0.078 C 
ATOM      7  C   UNL     1       5.436  -6.276  -2.353  0.00  0.00    +0.028 C 
ATOM      8  S   UNL     1       3.819  -4.031  -2.592  0.00  0.00    -0.049 S 
ATOM      9  H   UNL     1       3.310  -4.368  -5.902  0.00  0.00    +0.157 HD
ENDROOT
BRANCH   1  13
ATOM     10  C   UNL     1       1.356  -0.028  -1.116  0.00  0.00    +0.120 A 
ATOM     11  C   UNL     1       1.754   0.529  -2.336  0.00  0.00    +0.048 A 
ATOM     12  C   UNL     1       2.087  -0.277  -3.380  0.00  0.00    +0.031 A 
ATOM     13  C   UNL     1       2.031  -1.683  -3.228  0.00  0.00    +0.067 A 
ATOM     14  C   UNL     1       1.627  -2.238  -1.990  0.00  0.00    +0.031 A 
ATOM     15  C   UNL     1       1.302  -1.417  -0.955  0.00  0.00    +0.048 A 
BRANCH  10  17
ATOM     16  C   UNL     1       1.101   2.190  -0.312  0.00  0.00    +0.277 C 
ATOM     17  O   UNL     1       1.026   0.781  -0.083  0.00  0.00    -0.495 OA
ENDBRANCH  10  17
ENDBRANCH   1  13
BRANCH   7  18
ATOM     18  C   UNL     1       6.191  -7.270  -2.998  0.00  0.00    -0.022 A 
ATOM     19  C   UNL     1       6.865  -6.978  -4.206  0.00  0.00    +0.009 A 
ATOM     20  C   UNL     1       7.594  -7.943  -4.825  0.00  0.00    +0.017 A 
ATOM     21  C   UNL     1       7.679  -9.228  -4.267  0.00  0.00    +0.038 A 
ATOM     22  C   UNL     1       7.012  -9.524  -3.069  0.00  0.00    +0.140 A 
ATOM     23  C   UNL     1       6.285  -8.565  -2.438  0.00  0.00    +0.041 A 
BRANCH  22  24
ATOM     24  N   UNL     1       7.106 -10.882  -2.487  0.00  0.00    +0.058 N 
ATOM     25  O   UNL     1       6.481 -11.161  -1.362  0.00  0.00    -0.126 OA
ATOM     26  O   UNL     1       7.814 -11.811  -3.095  0.00  0.00    -0.126 OA
ENDBRANCH  22  24
BRANCH  21  27
ATOM     27  S   UNL     1       8.626 -10.475  -5.075  0.00  0.00    -0.121 S 
BRANCH  27  28
ATOM     28  C   UNL     1       9.282  -9.642  -6.547  0.00  0.00    +0.102 C 
BRANCH  28  29
ATOM     29  C   UNL     1      10.136 -10.625  -7.351  0.00  0.00    +0.167 C 
BRANCH  29  30
ATOM     30  O   UNL     1      10.653  -9.969  -8.510  0.00  0.00    -0.394 OA
ATOM     31  H   UNL     1      11.205 -10.534  -9.069  0.00  0.00    +0.209 HD
ENDBRANCH  29  30
ENDBRANCH  28  29
ENDBRANCH  27  28
ENDBRANCH  21  27
ENDBRANCH   7  18
TORSDOF 8
