REMARK  Name = ZINC20603723
REMARK  5 active torsions:
REMARK  status: ('A' for Active; 'I' for Inactive)
REMARK    1  A    between atoms: C_3  and  O_30
REMARK    2  A    between atoms: C_6  and  C_7
REMARK    3  A    between atoms: C_9  and  C_26
REMARK    4  A    between atoms: N_13  and  C_19
REMARK    5  A    between atoms: C_19  and  C_20
REMARK                            x       y       z     vdW  Elec       q    Type
REMARK                         _______ _______ _______ _____ _____    ______ ____
ROOT
ATOM      1  C   UNL     1      -1.998   6.551   1.557  0.00  0.00    +0.074 A 
ATOM      2  C   UNL     1      -3.110   7.199   2.102  0.00  0.00    +0.041 A 
ATOM      3  C   UNL     1      -4.365   6.877   1.655  0.00  0.00    +0.073 A 
ATOM      4  C   UNL     1      -4.481   5.903   0.662  0.00  0.00    +0.093 A 
ATOM      5  C   UNL     1      -3.323   5.285   0.154  0.00  0.00    +0.149 A 
ATOM      6  N   UNL     1      -2.132   5.627   0.614  0.00  0.00    -0.229 NA
ATOM      7  N   UNL     1      -3.473   4.325  -0.828  0.00  0.00    -0.303 N 
ATOM      8  C   UNL     1      -4.710   3.997  -1.287  0.00  0.00    +0.162 A 
ATOM      9  N   UNL     1      -5.816   4.549  -0.832  0.00  0.00    -0.302 N 
ATOM     10  C   UNL     1      -5.788   5.493   0.121  0.00  0.00    +0.262 A 
ATOM     11  O   UNL     1      -6.820   5.998   0.530  0.00  0.00    -0.267 OA
ATOM     12  S   UNL     1      -4.841   2.770  -2.545  0.00  0.00    -0.013 S 
ATOM     13  H   UNL     1      -6.792   4.239  -1.233  0.00  0.00    +0.171 HD
ENDROOT
BRANCH   1  19
ATOM     14  C   UNL     1      -0.484   7.874   3.029  0.00  0.00    +0.013 A 
ATOM     15  C   UNL     1       0.777   8.194   3.483  0.00  0.00    +0.046 A 
ATOM     16  C   UNL     1       1.891   7.556   2.950  0.00  0.00    +0.117 A 
ATOM     17  C   UNL     1       1.736   6.592   1.963  0.00  0.00    +0.046 A 
ATOM     18  C   UNL     1       0.477   6.263   1.509  0.00  0.00    +0.013 A 
ATOM     19  C   UNL     1      -0.643   6.901   2.042  0.00  0.00    +0.001 A 
BRANCH  16  20
ATOM     20  O   UNL     1       3.133   7.877   3.396  0.00  0.00    -0.507 OA
ATOM     21  H   UNL     1       4.015   7.373   2.975  0.00  0.00    +0.292 HD
ENDBRANCH  16  20
ENDBRANCH   1  19
BRANCH   3  22
ATOM     22  C   UNL     1      -5.586   7.556   2.221  0.00  0.00    +0.418 C 
ATOM     23  F   UNL     1      -5.196   8.483   3.193  0.00  0.00    -0.166 F 
ATOM     24  F   UNL     1      -6.270   8.217   1.195  0.00  0.00    -0.166 F 
ATOM     25  F   UNL     1      -6.426   6.599   2.800  0.00  0.00    -0.166 F 
ENDBRANCH   3  22
BRANCH   7  26
ATOM     26  C   UNL     1      -2.291   3.661  -1.382  0.00  0.00    +0.157 C 
BRANCH  26  27
ATOM     27  C   UNL     1      -1.978   2.408  -0.561  0.00  0.00    +0.138 C 
ATOM     28  C   UNL     1      -0.811   1.623  -1.201  0.00  0.00    +0.035 C 
ATOM     29  C   UNL     1      -0.013   1.086   0.008  0.00  0.00    +0.031 C 
ATOM     30  C   UNL     1      -0.788   1.610   1.237  0.00  0.00    +0.160 C 
ATOM     31  O   UNL     1      -1.501   2.772   0.753  0.00  0.00    -0.375 OA
ENDBRANCH  26  27
ENDBRANCH   7  26
TORSDOF 5
