REMARK  Name = ZINC39839916
REMARK  11 active torsions:
REMARK  status: ('A' for Active; 'I' for Inactive)
REMARK    1  A    between atoms: C_1  and  C_2
REMARK    2  A    between atoms: C_2  and  C_3
REMARK    3  A    between atoms: C_2  and  O_4
REMARK    4  A    between atoms: O_4  and  C_5
REMARK    5  A    between atoms: C_5  and  C_6
REMARK    6  A    between atoms: C_6  and  C_7
REMARK    7  A    between atoms: C_7  and  N_8
REMARK    8  A    between atoms: C_9  and  C_25
REMARK    9  A    between atoms: C_28  and  C_31
REMARK   10  A    between atoms: C_31  and  O_33
REMARK   11  A    between atoms: O_33  and  C_34
REMARK                            x       y       z     vdW  Elec       q    Type
REMARK                         _______ _______ _______ _____ _____    ______ ____
ROOT
ATOM      1  N   UNL     1       4.779  -1.794  -3.407  0.00  0.00    -0.284 N 
ATOM      2  C   UNL     1       4.938  -3.200  -3.813  0.00  0.00    +0.144 C 
ATOM      3  C   UNL     1       5.579  -3.164  -5.162  0.00  0.00    +0.072 A 
ATOM      4  C   UNL     1       5.991  -4.244  -6.064  0.00  0.00    +0.199 A 
ATOM      5  O   UNL     1       5.694  -5.412  -5.887  0.00  0.00    -0.287 OA
ATOM      6  C   UNL     1       6.805  -3.779  -7.216  0.00  0.00    +0.065 A 
ATOM      7  C   UNL     1       7.438  -4.699  -8.050  0.00  0.00    +0.030 A 
ATOM      8  C   UNL     1       8.194  -4.249  -9.111  0.00  0.00    +0.019 A 
ATOM      9  C   UNL     1       8.322  -2.886  -9.345  0.00  0.00    +0.019 A 
ATOM     10  C   UNL     1       7.699  -1.969  -8.529  0.00  0.00    +0.048 A 
ATOM     11  C   UNL     1       6.928  -2.399  -7.450  0.00  0.00    +0.140 A 
ATOM     12  O   UNL     1       6.319  -1.477  -6.670  0.00  0.00    -0.450 OA
ATOM     13  C   UNL     1       5.765  -1.854  -5.501  0.00  0.00    +0.199 A 
ATOM     14  C   UNL     1       5.259  -1.016  -4.399  0.00  0.00    +0.283 C 
ATOM     15  O   UNL     1       5.275   0.199  -4.386  0.00  0.00    -0.267 OA
ATOM     16 BR   UNL     1       9.057  -5.488 -10.250  0.00  0.00    -0.050 Br
ENDROOT
BRANCH   2  17
ATOM     17  C   UNL     1       3.592  -3.873  -3.893  0.00  0.00    -0.022 A 
ATOM     18  C   UNL     1       2.511  -3.191  -4.422  0.00  0.00    +0.006 A 
ATOM     19  C   UNL     1       1.276  -3.801  -4.498  0.00  0.00    +0.015 A 
ATOM     20  C   UNL     1       1.119  -5.110  -4.038  0.00  0.00    +0.059 A 
ATOM     21  C   UNL     1       2.214  -5.793  -3.505  0.00  0.00    +0.015 A 
ATOM     22  C   UNL     1       3.445  -5.172  -3.440  0.00  0.00    +0.006 A 
BRANCH  20  23
ATOM     23  C   UNL     1      -0.200  -5.770  -4.115  0.00  0.00    +0.339 C 
ATOM     24  O   UNL     1      -1.151  -5.174  -4.580  0.00  0.00    -0.245 OA
BRANCH  23  25
ATOM     25  O   UNL     1      -0.349  -7.033  -3.671  0.00  0.00    -0.464 OA
ATOM     26  C   UNL     1      -1.652  -7.609  -3.777  0.00  0.00    +0.280 C 
ENDBRANCH  23  25
ENDBRANCH  20  23
ENDBRANCH   2  17
BRANCH   1  27
ATOM     27  C   UNL     1       4.197  -1.321  -2.149  0.00  0.00    +0.111 C 
BRANCH  27  28
ATOM     28  C   UNL     1       2.688  -1.133  -2.324  0.00  0.00    +0.047 C 
BRANCH  28  29
ATOM     29  C   UNL     1       2.080  -0.640  -1.010  0.00  0.00    +0.161 C 
BRANCH  29  30
ATOM     30  O   UNL     1       0.671  -0.465  -1.174  0.00  0.00    -0.377 OA
BRANCH  30  32
ATOM     31  C   UNL     1      -0.019   1.526   0.010  0.00  0.00    +0.037 C 
ATOM     32  C   UNL     1       0.002  -0.004   0.002  0.00  0.00    +0.112 C 
ATOM     33  C   UNL     1      -1.433  -0.534   0.013  0.00  0.00    +0.037 C 
ENDBRANCH  30  32
ENDBRANCH  29  30
ENDBRANCH  28  29
ENDBRANCH  27  28
ENDBRANCH   1  27
TORSDOF 8
