REMARK  Name = ZINC04837351
REMARK  6 active torsions:
REMARK  status: ('A' for Active; 'I' for Inactive)
REMARK    1  A    between atoms: C_1  and  C_2
REMARK    2  A    between atoms: C_4  and  N_15
REMARK    3  A    between atoms: C_6  and  C_8
REMARK    4  A    between atoms: C_13  and  O_14
REMARK    5  A    between atoms: N_15  and  N_16
REMARK    6  A    between atoms: C_17  and  C_18
REMARK                            x       y       z     vdW  Elec       q    Type
REMARK                         _______ _______ _______ _____ _____    ______ ____
ROOT
ATOM      1  C   UNL     1       6.032   3.151  -0.037  0.00  0.00    +0.066 C 
ATOM      2  C   UNL     1       4.734   3.916  -0.021  0.00  0.00    +0.044 A 
ATOM      3  C   UNL     1       4.738   5.298  -0.014  0.00  0.00    +0.068 A 
ATOM      4  C   UNL     1       3.512   5.969   0.001  0.00  0.00    +0.142 A 
ATOM      5  N   UNL     1       2.389   5.259   0.002  0.00  0.00    -0.211 NA
ATOM      6  C   UNL     1       2.428   3.933   0.000  0.00  0.00    +0.166 A 
ATOM      7  N   UNL     1       3.578   3.272  -0.014  0.00  0.00    -0.232 NA
ENDROOT
BRANCH   6   8
ATOM      8  C   UNL     1       1.157   3.173   0.008  0.00  0.00    +0.061 A 
ATOM      9  C   UNL     1       1.174   1.779   0.000  0.00  0.00    +0.015 A 
ATOM     10  C   UNL     1      -0.013   1.076   0.008  0.00  0.00    +0.001 A 
ATOM     11  C   UNL     1      -1.222   1.749   0.017  0.00  0.00    +0.004 A 
ATOM     12  C   UNL     1      -1.252   3.130   0.030  0.00  0.00    +0.046 A 
ATOM     13  C   UNL     1      -0.067   3.850   0.022  0.00  0.00    +0.128 A 
BRANCH  13  14
ATOM     14  O   UNL     1      -0.095   5.207   0.029  0.00  0.00    -0.506 OA
ATOM     15  H   UNL     1      -0.111   5.605  -0.852  0.00  0.00    +0.292 HD
ENDBRANCH  13  14
ENDBRANCH   6   8
BRANCH   4  16
ATOM     16  N   UNL     1       3.469   7.354   0.007  0.00  0.00    -0.221 N 
ATOM     17  H   UNL     1       4.293   7.865   0.002  0.00  0.00    +0.176 HD
BRANCH  16  18
ATOM     18  N   UNL     1       2.234   8.016   0.022  0.00  0.00    -0.189 NA
ATOM     19  C   UNL     1       2.193   9.313   0.028  0.00  0.00    +0.138 C 
BRANCH  19  20
ATOM     20  C   UNL     1       0.893  10.009   0.044  0.00  0.00    -0.005 A 
ATOM     21  C   UNL     1      -0.296   9.276   0.045  0.00  0.00    +0.010 A 
ATOM     22  C   UNL     1      -1.508   9.934   0.065  0.00  0.00    +0.016 A 
ATOM     23  C   UNL     1      -1.548  11.318   0.072  0.00  0.00    +0.018 A 
ATOM     24  C   UNL     1      -0.373  12.051   0.065  0.00  0.00    +0.016 A 
ATOM     25  C   UNL     1       0.845  11.406   0.051  0.00  0.00    +0.010 A 
ATOM     26 BR   UNL     1      -3.215  12.211   0.091  0.00  0.00    -0.050 Br
ENDBRANCH  19  20
ENDBRANCH  16  18
ENDBRANCH   4  16
TORSDOF 5
