REMARK  Name = ZINC60161527
REMARK  7 active torsions:
REMARK  status: ('A' for Active; 'I' for Inactive)
REMARK    1  A    between atoms: C_4  and  C_7
REMARK    2  A    between atoms: C_7  and  N_8
REMARK    3  A    between atoms: C_13  and  C_15
REMARK    4  A    between atoms: C_15  and  N_16
REMARK    5  A    between atoms: N_19  and  C_20
REMARK    6  A    between atoms: C_20  and  C_21
REMARK    7  A    between atoms: N_23  and  C_24
REMARK                            x       y       z     vdW  Elec       q    Type
REMARK                         _______ _______ _______ _____ _____    ______ ____
ROOT
ATOM      1  N   UNL     1       6.698   0.426   1.194  0.00  0.00    -0.301 N 
ATOM      2  C   UNL     1       7.465   1.357   0.593  0.00  0.00    +0.300 C 
ATOM      3  O   UNL     1       8.009   1.105  -0.465  0.00  0.00    -0.253 OA
ATOM      4  N   UNL     1       7.628   2.567   1.163  0.00  0.00    -0.291 N 
ATOM      5  H   UNL     1       6.264   0.627   2.038  0.00  0.00    +0.150 HD
ATOM      6  H   UNL     1       7.194   2.768   2.007  0.00  0.00    +0.151 HD
ENDROOT
BRANCH   1   7
ATOM      7  C   UNL     1       6.520  -0.889   0.573  0.00  0.00    +0.090 C 
BRANCH   7  13
ATOM      8  N   UNL     1       4.272  -0.938   1.541  0.00  0.00    +0.385 N 
ATOM      9  C   UNL     1       3.275  -1.744   2.256  0.00  0.00    -0.078 C 
ATOM     10  C   UNL     1       3.778  -2.050   3.668  0.00  0.00    -0.019 C 
ATOM     11  C   UNL     1       5.094  -2.828   3.578  0.00  0.00    -0.003 C 
ATOM     12  C   UNL     1       6.104  -2.011   2.767  0.00  0.00    -0.014 C 
ATOM     13  C   UNL     1       5.514  -1.706   1.388  0.00  0.00    -0.051 C 
ATOM     14  H   UNL     1       4.461  -0.097   2.066  0.00  0.00    -0.081 HD
BRANCH   8  15
ATOM     15  C   UNL     1       3.752  -0.581   0.215  0.00  0.00    -0.043 C 
BRANCH  15  19
ATOM     16  C   UNL     1       0.323   1.928   0.656  0.00  0.00    +0.000 A 
ATOM     17  C   UNL     1       1.584   2.489   0.570  0.00  0.00    +0.000 A 
ATOM     18  C   UNL     1       2.693   1.677   0.427  0.00  0.00    +0.002 A 
ATOM     19  C   UNL     1       2.542   0.304   0.371  0.00  0.00    -0.064 A 
ATOM     20  C   UNL     1       1.282  -0.257   0.459  0.00  0.00    +0.002 A 
ATOM     21  C   UNL     1       0.172   0.555   0.600  0.00  0.00    +0.000 A 
ENDBRANCH  15  19
ENDBRANCH   8  15
ENDBRANCH   7  13
ENDBRANCH   1   7
BRANCH   4  22
ATOM     22  C   UNL     1       8.462   3.579   0.510  0.00  0.00    +0.202 C 
BRANCH  22  23
ATOM     23  C   UNL     1       8.480   4.832   1.347  0.00  0.00    +0.234 C 
ATOM     24  O   UNL     1       7.858   4.875   2.387  0.00  0.00    -0.274 OA
ATOM     25  N   UNL     1       9.188   5.904   0.939  0.00  0.00    -0.282 N 
ATOM     26  H   UNL     1       9.741   5.846   0.144  0.00  0.00    +0.155 HD
BRANCH  25  27
ATOM     27  C   UNL     1       9.124   7.102   1.663  0.00  0.00    +0.072 A 
ATOM     28  C   UNL     1       8.982   7.073   3.044  0.00  0.00    +0.029 A 
ATOM     29  C   UNL     1       8.919   8.254   3.757  0.00  0.00    +0.043 A 
ATOM     30  C   UNL     1       8.997   9.469   3.098  0.00  0.00    +0.161 A 
ATOM     31  C   UNL     1       9.139   9.503   1.719  0.00  0.00    +0.195 A 
ATOM     32  C   UNL     1       9.209   8.321   1.001  0.00  0.00    +0.182 A 
ATOM     33  F   UNL     1       9.353   8.353  -0.342  0.00  0.00    -0.200 F 
ATOM     34  F   UNL     1       9.215  10.689   1.077  0.00  0.00    -0.199 F 
ATOM     35  F   UNL     1       8.935  10.622   3.799  0.00  0.00    -0.202 F 
ENDBRANCH  25  27
ENDBRANCH  22  23
ENDBRANCH   4  22
TORSDOF 7
