REMARK  Name = ZINC35456431
REMARK  9 active torsions:
REMARK  status: ('A' for Active; 'I' for Inactive)
REMARK    1  A    between atoms: C_1  and  C_2
REMARK    2  A    between atoms: C_5  and  C_8
REMARK    3  A    between atoms: N_14  and  C_15
REMARK    4  A    between atoms: C_15  and  C_16
REMARK    5  A    between atoms: N_18  and  C_19
REMARK    6  A    between atoms: C_19  and  C_20
REMARK    7  A    between atoms: C_20  and  C_21
REMARK    8  A    between atoms: N_29  and  C_31
REMARK    9  A    between atoms: C_31  and  C_32
REMARK                            x       y       z     vdW  Elec       q    Type
REMARK                         _______ _______ _______ _____ _____    ______ ____
ROOT
ATOM      1  C   UNL     1       0.047  -4.251  -0.020  0.00  0.00    +0.144 A 
ATOM      2  N   UNL     1      -0.044  -4.891  -1.165  0.00  0.00    -0.235 NA
ATOM      3  C   UNL     1      -0.018  -6.227  -1.227  0.00  0.00    +0.035 A 
ATOM      4  C   UNL     1       0.109  -6.951  -0.084  0.00  0.00    +0.035 A 
ATOM      5  C   UNL     1       0.204  -6.274   1.150  0.00  0.00    +0.258 A 
ATOM      6  O   UNL     1       0.313  -6.898   2.193  0.00  0.00    -0.267 OA
ATOM      7  N   UNL     1       0.177  -4.925   1.157  0.00  0.00    -0.284 N 
ATOM      8  C   UNL     1       0.155  -8.456  -0.097  0.00  0.00    +0.024 C 
ATOM      9  C   UNL     1      -0.358  -8.978  -1.440  0.00  0.00    -0.073 C 
ATOM     10  N   UNL     1       0.349  -8.269  -2.518  0.00  0.00    +0.386 N 
ATOM     11  C   UNL     1      -0.134  -6.887  -2.576  0.00  0.00    -0.021 C 
ATOM     12  H   UNL     1       1.341  -8.273  -2.331  0.00  0.00    -0.081 HD
ENDROOT
BRANCH   1  17
ATOM     13  C   UNL     1      -0.078   1.502   0.015  0.00  0.00    +0.044 C 
ATOM     14  C   UNL     1      -0.046  -0.005   0.006  0.00  0.00    -0.050 A 
ATOM     15  C   UNL     1       0.998  -0.675   0.619  0.00  0.00    +0.004 A 
ATOM     16  C   UNL     1       1.034  -2.054   0.615  0.00  0.00    +0.012 A 
ATOM     17  C   UNL     1       0.015  -2.774  -0.011  0.00  0.00    +0.018 A 
ATOM     18  C   UNL     1      -1.036  -2.091  -0.628  0.00  0.00    +0.012 A 
ATOM     19  C   UNL     1      -1.062  -0.712  -0.611  0.00  0.00    +0.004 A 
ENDBRANCH   1  17
BRANCH   7  20
ATOM     20  C   UNL     1       0.282  -4.191   2.421  0.00  0.00    +0.222 C 
BRANCH  20  21
ATOM     21  C   UNL     1      -1.084  -4.067   3.045  0.00  0.00    +0.233 C 
ATOM     22  O   UNL     1      -2.050  -4.546   2.489  0.00  0.00    -0.274 OA
ATOM     23  N   UNL     1      -1.232  -3.426   4.221  0.00  0.00    -0.314 N 
ATOM     24  H   UNL     1      -0.459  -3.043   4.665  0.00  0.00    +0.149 HD
BRANCH  23  25
ATOM     25  C   UNL     1      -2.560  -3.306   4.827  0.00  0.00    +0.108 C 
BRANCH  25  26
ATOM     26  C   UNL     1      -2.450  -2.539   6.147  0.00  0.00    +0.049 C 
BRANCH  26  27
ATOM     27  C   UNL     1      -3.817  -2.416   6.771  0.00  0.00    -0.072 C 
ATOM     28  C   UNL     1      -4.160  -3.293   7.659  0.00  0.00    -0.028 C 
ATOM     29  C   UNL     1      -5.488  -3.307   8.358  0.00  0.00    +0.027 C 
ATOM     30  C   UNL     1      -6.178  -1.950   8.205  0.00  0.00    +0.004 C 
ATOM     31  C   UNL     1      -6.147  -1.553   6.724  0.00  0.00    +0.005 C 
ATOM     32  C   UNL     1      -4.692  -1.280   6.329  0.00  0.00    +0.030 C 
ENDBRANCH  26  27
ENDBRANCH  25  26
ENDBRANCH  23  25
ENDBRANCH  20  21
ENDBRANCH   7  20
BRANCH  10  33
ATOM     33  C   UNL     1       0.086  -8.936  -3.800  0.00  0.00    -0.042 C 
BRANCH  33  34
ATOM     34  C   UNL     1       0.907  -8.284  -4.883  0.00  0.00    -0.064 A 
ATOM     35  C   UNL     1       0.392  -7.215  -5.591  0.00  0.00    +0.002 A 
ATOM     36  C   UNL     1       1.145  -6.617  -6.585  0.00  0.00    +0.000 A 
ATOM     37  C   UNL     1       2.413  -7.089  -6.869  0.00  0.00    +0.000 A 
ATOM     38  C   UNL     1       2.928  -8.158  -6.160  0.00  0.00    +0.000 A 
ATOM     39  C   UNL     1       2.177  -8.753  -5.164  0.00  0.00    +0.002 A 
ENDBRANCH  33  34
ENDBRANCH  10  33
TORSDOF 8
