REMARK  Name = ZINC66895924
REMARK  13 active torsions:
REMARK  status: ('A' for Active; 'I' for Inactive)
REMARK    1  A    between atoms: C_1  and  C_2
REMARK    2  A    between atoms: C_2  and  C_4
REMARK    3  A    between atoms: C_2  and  N_10
REMARK    4  A    between atoms: C_4  and  C_5
REMARK    5  A    between atoms: C_5  and  C_6
REMARK    6  A    between atoms: C_6  and  C_7
REMARK    7  A    between atoms: C_7  and  C_8
REMARK    8  A    between atoms: C_7  and  C_9
REMARK    9  A    between atoms: C_11  and  C_13
REMARK   10  A    between atoms: C_13  and  N_14
REMARK   11  A    between atoms: C_17  and  N_20
REMARK   12  A    between atoms: C_21  and  O_23
REMARK   13  A    between atoms: O_23  and  C_24
REMARK                            x       y       z     vdW  Elec       q    Type
REMARK                         _______ _______ _______ _____ _____    ______ ____
ROOT
ATOM      1  N   UNL     1      -0.241  -1.014  -4.708  0.00  0.00    +0.385 N 
ATOM      2  C   UNL     1      -0.750   0.323  -5.034  0.00  0.00    -0.076 C 
ATOM      3  C   UNL     1      -1.800   0.218  -6.142  0.00  0.00    +0.004 C 
ATOM      4  C   UNL     1      -1.160  -0.405  -7.387  0.00  0.00    +0.073 C 
ATOM      5  C   UNL     1      -0.567  -1.767  -7.017  0.00  0.00    +0.004 C 
ATOM      6  C   UNL     1       0.437  -1.588  -5.876  0.00  0.00    -0.076 C 
ATOM      7  H   UNL     1      -1.012  -1.609  -4.442  0.00  0.00    -0.081 HD
ENDROOT
BRANCH   4   8
ATOM      8  N   UNL     1      -2.178  -0.579  -8.426  0.00  0.00    -0.278 N 
ATOM      9  C   UNL     1      -1.816  -0.620  -9.723  0.00  0.00    +0.406 C 
ATOM     10  O   UNL     1      -0.645  -0.512 -10.031  0.00  0.00    -0.226 OA
ATOM     11  H   UNL     1      -3.112  -0.664  -8.180  0.00  0.00    +0.152 HD
BRANCH   9  12
ATOM     12  O   UNL     1      -2.752  -0.780 -10.679  0.00  0.00    -0.412 OA
BRANCH  12  13
ATOM     13  C   UNL     1      -2.356  -0.713 -11.977  0.00  0.00    +0.133 A 
ATOM     14  C   UNL     1      -2.600   0.432 -12.721  0.00  0.00    +0.046 A 
ATOM     15  C   UNL     1      -2.197   0.497 -14.040  0.00  0.00    +0.004 A 
ATOM     16  C   UNL     1      -1.550  -0.578 -14.620  0.00  0.00    +0.000 A 
ATOM     17  C   UNL     1      -1.305  -1.721 -13.882  0.00  0.00    +0.004 A 
ATOM     18  C   UNL     1      -1.701  -1.789 -12.560  0.00  0.00    +0.046 A 
ENDBRANCH  12  13
ENDBRANCH   9  12
ENDBRANCH   4   8
BRANCH   1  19
ATOM     19  C   UNL     1       0.708  -0.917  -3.591  0.00  0.00    +0.019 C 
BRANCH  19  21
ATOM     20  N   UNL     1       0.660  -0.279  -1.202  0.00  0.00    -0.314 N 
ATOM     21  C   UNL     1      -0.015  -0.444  -2.357  0.00  0.00    +0.197 C 
ATOM     22  O   UNL     1      -1.204  -0.210  -2.402  0.00  0.00    -0.278 OA
ATOM     23  H   UNL     1       1.611  -0.466  -1.165  0.00  0.00    +0.149 HD
BRANCH  20  25
ATOM     24  C   UNL     1      -0.114   1.709  -0.007  0.00  0.00    +0.028 C 
ATOM     25  C   UNL     1      -0.043   0.181  -0.002  0.00  0.00    +0.070 C 
BRANCH  25  26
ATOM     26  C   UNL     1       0.712  -0.290   1.243  0.00  0.00    +0.022 C 
BRANCH  26  27
ATOM     27  C   UNL     1       0.675  -1.818   1.314  0.00  0.00    +0.002 C 
BRANCH  27  28
ATOM     28  C   UNL     1       1.430  -2.289   2.559  0.00  0.00    +0.003 C 
BRANCH  28  29
ATOM     29  C   UNL     1       1.394  -3.817   2.629  0.00  0.00    -0.017 C 
ATOM     30  C   UNL     1       2.165  -4.401   1.444  0.00  0.00    +0.007 C 
ATOM     31  C   UNL     1       2.039  -4.283   3.936  0.00  0.00    +0.007 C 
ENDBRANCH  28  29
ENDBRANCH  27  28
ENDBRANCH  26  27
ENDBRANCH  25  26
ENDBRANCH  20  25
ENDBRANCH  19  21
ENDBRANCH   1  19
TORSDOF 10
