REMARK  Name = ZINC21371296
REMARK  7 active torsions:
REMARK  status: ('A' for Active; 'I' for Inactive)
REMARK    1  A    between atoms: C_8  and  C_10
REMARK    2  A    between atoms: C_13  and  C_16
REMARK    3  A    between atoms: C_21  and  C_23
REMARK    4  A    between atoms: C_23  and  S_24
REMARK    5  A    between atoms: S_24  and  C_25
REMARK    6  A    between atoms: C_28  and  C_31
REMARK    7  A    between atoms: N_29  and  N_30
REMARK                            x       y       z     vdW  Elec       q    Type
REMARK                         _______ _______ _______ _____ _____    ______ ____
ROOT
ATOM      1  C   UNL     1      -0.659   5.820   1.066  0.00  0.00    +0.104 C 
ATOM      2  N   UNL     1      -0.400   4.629   0.641  0.00  0.00    -0.178 NA
ATOM      3  N   UNL     1      -0.867   3.614   1.474  0.00  0.00    -0.181 N 
ATOM      4  C   UNL     1      -1.531   4.221   2.638  0.00  0.00    +0.173 C 
ATOM      5  C   UNL     1      -1.401   5.735   2.381  0.00  0.00    +0.093 C 
ATOM      6  C   UNL     1      -0.728   2.292   1.252  0.00  0.00    +0.246 C 
ATOM      7  O   UNL     1      -1.171   1.493   2.050  0.00  0.00    -0.273 OA
ENDROOT
BRANCH   1  15
ATOM      8  C   UNL     1       1.086  10.651  -2.111  0.00  0.00    +0.001 A 
ATOM      9  C   UNL     1       0.484  11.322  -1.056  0.00  0.00    +0.004 A 
ATOM     10  C   UNL     1      -0.096  10.626  -0.016  0.00  0.00    +0.047 A 
ATOM     11  C   UNL     1      -0.079   9.237  -0.020  0.00  0.00    +0.136 A 
ATOM     12  C   UNL     1       0.532   8.562  -1.092  0.00  0.00    +0.021 A 
ATOM     13  C   UNL     1       1.114   9.285  -2.135  0.00  0.00    +0.011 A 
ATOM     14  C   UNL     1       0.387   7.136  -0.796  0.00  0.00    +0.059 A 
ATOM     15  C   UNL     1      -0.285   7.063   0.383  0.00  0.00    +0.152 A 
ATOM     16  O   UNL     1      -0.552   8.306   0.833  0.00  0.00    -0.454 OA
ENDBRANCH   1  15
BRANCH   4  17
ATOM     17  C   UNL     1      -2.980   3.812   2.695  0.00  0.00    +0.128 A 
ATOM     18  C   UNL     1      -3.672   3.521   3.811  0.00  0.00    +0.046 A 
ATOM     19  C   UNL     1      -4.986   3.191   3.404  0.00  0.00    +0.041 A 
ATOM     20  C   UNL     1      -5.017   3.300   2.063  0.00  0.00    +0.195 A 
ATOM     21  O   UNL     1      -3.801   3.682   1.640  0.00  0.00    -0.466 OA
ENDBRANCH   4  17
BRANCH   6  22
ATOM     22  C   UNL     1      -0.022   1.806   0.012  0.00  0.00    +0.175 C 
BRANCH  22  23
ATOM     23  S   UNL     1       0.002  -0.004   0.002  0.00  0.00    -0.075 S 
BRANCH  23  24
ATOM     24  C   UNL     1       0.859  -0.290  -1.510  0.00  0.00    +0.209 A 
ATOM     25  N   UNL     1       1.316   0.625  -2.334  0.00  0.00    -0.121 NA
ATOM     26  N   UNL     1       1.888   0.062  -3.338  0.00  0.00    -0.123 NA
ATOM     27  C   UNL     1       1.832  -1.234  -3.216  0.00  0.00    +0.255 A 
ATOM     28  N   UNL     1       1.180  -1.505  -2.045  0.00  0.00    -0.220 N 
BRANCH  27  29
ATOM     29  C   UNL     1       2.389  -2.247  -4.183  0.00  0.00    +0.454 C 
ATOM     30  F   UNL     1       3.272  -1.614  -5.065  0.00  0.00    -0.163 F 
ATOM     31  F   UNL     1       3.070  -3.243  -3.475  0.00  0.00    -0.163 F 
ATOM     32  F   UNL     1       1.341  -2.825  -4.908  0.00  0.00    -0.163 F 
ENDBRANCH  27  29
BRANCH  28  33
ATOM     33  N   UNL     1       0.904  -2.736  -1.520  0.00  0.00    -0.295 N 
ATOM     34  H   UNL     1       1.219  -3.644  -2.053  0.00  0.00    +0.163 HD
ATOM     35  H   UNL     1       0.366  -2.818  -0.564  0.00  0.00    +0.163 HD
ENDBRANCH  28  33
ENDBRANCH  23  24
ENDBRANCH  22  23
ENDBRANCH   6  22
TORSDOF 7
