REMARK  Name = ZINC12301893
REMARK  8 active torsions:
REMARK  status: ('A' for Active; 'I' for Inactive)
REMARK    1  A    between atoms: C_1  and  C_2
REMARK    2  A    between atoms: C_5  and  C_9
REMARK    3  A    between atoms: C_7  and  C_8
REMARK    4  A    between atoms: C_10  and  C_15
REMARK    5  A    between atoms: C_15  and  N_49
REMARK    6  A    between atoms: C_16  and  C_17
REMARK    7  A    between atoms: C_16  and  N_49
REMARK    8  A    between atoms: C_19  and  C_23
REMARK                            x       y       z     vdW  Elec       q    Type
REMARK                         _______ _______ _______ _____ _____    ______ ____
ROOT
ATOM      1  N   UNL     1       4.053   0.547  -1.405  0.00  0.00    +0.386 N 
ATOM      2  H   UNL     1       3.688   1.288  -2.016  0.00  0.00    -0.085 HD
ATOM      3  H   UNL     1       3.714  -0.365  -1.733  0.00  0.00    -0.085 HD
ENDROOT
BRANCH   1   4
ATOM      4  C   UNL     1       3.578   0.776  -0.027  0.00  0.00    -0.043 C 
BRANCH   4   6
ATOM      5  C   UNL     1       1.258  -0.396  -0.012  0.00  0.00    +0.094 A 
ATOM      6  C   UNL     1       2.071   0.754  -0.014  0.00  0.00    -0.019 A 
ATOM      7  C   UNL     1       1.260   1.834  -0.000  0.00  0.00    +0.107 A 
ATOM      8  N   UNL     1      -0.017   1.397   0.010  0.00  0.00    -0.284 N 
ATOM      9  H   UNL     1      -0.835   1.972   0.021  0.00  0.00    +0.188 HD
ATOM     10  N   UNL     1       0.002  -0.004   0.002  0.00  0.00    -0.174 NA
BRANCH   5  15
ATOM     11  C   UNL     1       3.105  -5.851  -0.057  0.00  0.00    +0.044 C 
ATOM     12  C   UNL     1       2.622  -4.424  -0.045  0.00  0.00    -0.047 A 
ATOM     13  C   UNL     1       3.325  -3.453  -0.735  0.00  0.00    +0.004 A 
ATOM     14  C   UNL     1       2.887  -2.144  -0.727  0.00  0.00    +0.010 A 
ATOM     15  C   UNL     1       1.734  -1.802  -0.023  0.00  0.00    +0.003 A 
ATOM     16  C   UNL     1       1.033  -2.783   0.674  0.00  0.00    +0.013 A 
ATOM     17  C   UNL     1       1.477  -4.090   0.655  0.00  0.00    -0.047 A 
ATOM     18  C   UNL     1       0.717  -5.153   1.405  0.00  0.00    +0.044 C 
ENDBRANCH   5  15
ENDBRANCH   4   6
ENDBRANCH   1   4
BRANCH   1  19
ATOM     19  C   UNL     1       5.527   0.564  -1.448  0.00  0.00    -0.024 C 
BRANCH  19  20
ATOM     20  C   UNL     1       5.982   0.328  -2.866  0.00  0.00    +0.047 A 
ATOM     21  C   UNL     1       6.304   1.320  -3.792  0.00  0.00    +0.050 A 
ATOM     22  C   UNL     1       6.669   0.704  -4.956  0.00  0.00    +0.066 A 
ATOM     23  N   UNL     1       6.574  -0.640  -4.750  0.00  0.00    -0.277 N 
ATOM     24  H   UNL     1       6.773  -1.355  -5.420  0.00  0.00    +0.189 HD
ATOM     25  N   UNL     1       6.146  -0.841  -3.431  0.00  0.00    -0.180 NA
BRANCH  22  26
ATOM     26  C   UNL     1       7.090   1.371  -6.208  0.00  0.00    -0.000 A 
ATOM     27  C   UNL     1       7.136   2.764  -6.277  0.00  0.00    +0.010 A 
ATOM     28  C   UNL     1       7.535   3.380  -7.445  0.00  0.00    +0.001 A 
ATOM     29  C   UNL     1       7.878   2.621  -8.550  0.00  0.00    +0.000 A 
ATOM     30  C   UNL     1       7.828   1.239  -8.489  0.00  0.00    +0.001 A 
ATOM     31  C   UNL     1       7.437   0.611  -7.325  0.00  0.00    +0.010 A 
ENDBRANCH  22  26
ENDBRANCH  19  20
ENDBRANCH   1  19
TORSDOF 6
