REMARK  Name = ZINC06504603
REMARK  9 active torsions:
REMARK  status: ('A' for Active; 'I' for Inactive)
REMARK    1  A    between atoms: C_1  and  C_2
REMARK    2  A    between atoms: C_7  and  C_8
REMARK    3  A    between atoms: N_10  and  C_11
REMARK    4  A    between atoms: C_11  and  N_13
REMARK    5  A    between atoms: N_13  and  N_14
REMARK    6  A    between atoms: C_15  and  C_17
REMARK    7  A    between atoms: C_17  and  O_18
REMARK    8  A    between atoms: O_18  and  C_19
REMARK    9  A    between atoms: C_23  and  C_25
REMARK                            x       y       z     vdW  Elec       q    Type
REMARK                         _______ _______ _______ _____ _____    ______ ____
ROOT
ATOM      1  N   UNL     1       2.190   1.092  -1.167  0.00  0.00    -0.245 N 
ATOM      2  H   UNL     1       2.997   1.602  -1.339  0.00  0.00    +0.172 HD
ENDROOT
BRANCH   1   3
ATOM      3  N   UNL     1       2.234  -0.308  -1.155  0.00  0.00    -0.232 N 
ATOM      4  C   UNL     1       3.398  -0.947  -1.383  0.00  0.00    +0.267 C 
ATOM      5  O   UNL     1       4.408  -0.310  -1.598  0.00  0.00    -0.271 OA
ATOM      6  H   UNL     1       1.427  -0.818  -0.983  0.00  0.00    +0.173 HD
BRANCH   4   7
ATOM      7  C   UNL     1       3.446  -2.454  -1.370  0.00  0.00    +0.326 C 
BRANCH   7   8
ATOM      8  O   UNL     1       4.781  -2.890  -1.636  0.00  0.00    -0.483 OA
BRANCH   8   9
ATOM      9  C   UNL     1       4.998  -4.231  -1.660  0.00  0.00    +0.122 A 
ATOM     10  C   UNL     1       3.949  -5.109  -1.427  0.00  0.00    +0.047 A 
ATOM     11  C   UNL     1       4.171  -6.472  -1.457  0.00  0.00    +0.024 A 
ATOM     12  C   UNL     1       5.440  -6.962  -1.708  0.00  0.00    +0.044 A 
ATOM     13  C   UNL     1       6.489  -6.089  -1.936  0.00  0.00    -0.029 A 
ATOM     14  C   UNL     1       6.270  -4.725  -1.912  0.00  0.00    +0.050 A 
ATOM     15  C   UNL     1       7.870  -6.625  -2.210  0.00  0.00    +0.045 C 
ATOM     16 CL   UNL     1       5.718  -8.676  -1.740  0.00  0.00    -0.083 Cl
ENDBRANCH   8   9
ENDBRANCH   7   8
ENDBRANCH   4   7
ENDBRANCH   1   3
BRANCH   1  17
ATOM     17  C   UNL     1       1.025   1.731  -0.939  0.00  0.00    +0.153 C 
ATOM     18  S   UNL     1       0.971   3.442  -0.953  0.00  0.00    -0.017 S 
BRANCH  17  21
ATOM     19  C   UNL     1      -1.262   1.663  -0.477  0.00  0.00    +0.250 C 
ATOM     20  O   UNL     1      -1.301   2.877  -0.487  0.00  0.00    -0.270 OA
ATOM     21  N   UNL     1      -0.097   1.024  -0.700  0.00  0.00    -0.263 N 
ATOM     22  H   UNL     1      -0.066   0.054  -0.692  0.00  0.00    +0.157 HD
BRANCH  19  29
ATOM     23  C   UNL     1      -3.697   3.043   0.255  0.00  0.00    +0.044 C 
ATOM     24  C   UNL     1      -3.674   1.541   0.133  0.00  0.00    -0.038 A 
ATOM     25  C   UNL     1      -4.820   0.811   0.371  0.00  0.00    +0.004 A 
ATOM     26  C   UNL     1      -4.800  -0.568   0.259  0.00  0.00    +0.000 A 
ATOM     27  C   UNL     1      -3.633  -1.224  -0.092  0.00  0.00    +0.001 A 
ATOM     28  C   UNL     1      -2.482  -0.505  -0.338  0.00  0.00    +0.013 A 
ATOM     29  C   UNL     1      -2.493   0.886  -0.221  0.00  0.00    +0.040 A 
ENDBRANCH  19  29
ENDBRANCH  17  21
ENDBRANCH   1  17
TORSDOF 7
