REMARK  Name = ZINC16529593
REMARK  13 active torsions:
REMARK  status: ('A' for Active; 'I' for Inactive)
REMARK    1  A    between atoms: C_1  and  C_2
REMARK    2  A    between atoms: C_2  and  C_3
REMARK    3  A    between atoms: C_3  and  C_5
REMARK    4  A    between atoms: C_3  and  C_11
REMARK    5  A    between atoms: N_13  and  C_14
REMARK    6  A    between atoms: N_13  and  C_19
REMARK    7  A    between atoms: C_14  and  C_15
REMARK    8  A    between atoms: C_15  and  C_16
REMARK    9  A    between atoms: C_16  and  O_17
REMARK   10  A    between atoms: O_17  and  C_18
REMARK   11  A    between atoms: C_19  and  C_20
REMARK   12  A    between atoms: C_30  and  C_32
REMARK   13  A    between atoms: C_37  and  C_38
REMARK                            x       y       z     vdW  Elec       q    Type
REMARK                         _______ _______ _______ _____ _____    ______ ____
ROOT
ATOM      1  C   UNL     1       4.205  -2.504  -0.875  0.00  0.00    +0.203 C 
ENDROOT
BRANCH   1   2
ATOM      2  C   UNL     1       3.020  -2.063  -1.694  0.00  0.00    +0.234 C 
ATOM      3  O   UNL     1       2.439  -2.861  -2.398  0.00  0.00    -0.274 OA
ATOM      4  N   UNL     1       2.606  -0.781  -1.645  0.00  0.00    -0.289 N 
ATOM      5  C   UNL     1       3.365   0.219  -0.879  0.00  0.00    +0.114 C 
ATOM      6  C   UNL     1       3.925   1.257  -1.863  0.00  0.00    +0.062 C 
ATOM      7  C   UNL     1       2.860   1.603  -2.852  0.00  0.00    -0.003 A 
ATOM      8  C   UNL     1       1.713   0.920  -3.118  0.00  0.00    -0.012 A 
ATOM      9  C   UNL     1       0.878   1.457  -4.097  0.00  0.00    +0.013 A 
ATOM     10  C   UNL     1       1.227   2.599  -4.732  0.00  0.00    +0.046 A 
ATOM     11  S   UNL     1       2.788   2.989  -3.955  0.00  0.00    -0.101 S 
ATOM     12  C   UNL     1       1.390  -0.363  -2.355  0.00  0.00    +0.138 C 
BRANCH  12  13
ATOM     13  C   UNL     1       0.968  -1.440  -3.322  0.00  0.00    -0.020 A 
ATOM     14  C   UNL     1       1.612  -1.567  -4.538  0.00  0.00    +0.006 A 
ATOM     15  C   UNL     1       1.228  -2.557  -5.423  0.00  0.00    +0.000 A 
ATOM     16  C   UNL     1       0.194  -3.414  -5.095  0.00  0.00    +0.000 A 
ATOM     17  C   UNL     1      -0.453  -3.283  -3.881  0.00  0.00    +0.004 A 
ATOM     18  C   UNL     1      -0.066  -2.296  -2.994  0.00  0.00    -0.045 A 
ATOM     19  C   UNL     1      -0.772  -2.153  -1.670  0.00  0.00    +0.044 C 
ENDBRANCH  12  13
ENDBRANCH   1   2
BRANCH   1  22
ATOM     20  C   UNL     1       5.140  -4.331  -2.189  0.00  0.00    +0.223 C 
ATOM     21  O   UNL     1       5.414  -5.503  -2.335  0.00  0.00    -0.275 OA
ATOM     22  N   UNL     1       4.452  -3.930  -1.101  0.00  0.00    -0.292 N 
BRANCH  20  23
ATOM     23  C   UNL     1       5.567  -3.322  -3.224  0.00  0.00    +0.105 C 
BRANCH  23  24
ATOM     24  C   UNL     1       5.905  -4.033  -4.509  0.00  0.00    -0.036 A 
ATOM     25  C   UNL     1       6.915  -4.976  -4.532  0.00  0.00    +0.004 A 
ATOM     26  C   UNL     1       7.221  -5.632  -5.710  0.00  0.00    +0.000 A 
ATOM     27  C   UNL     1       6.524  -5.337  -6.867  0.00  0.00    +0.000 A 
ATOM     28  C   UNL     1       5.518  -4.389  -6.845  0.00  0.00    +0.000 A 
ATOM     29  C   UNL     1       5.208  -3.737  -5.666  0.00  0.00    +0.004 A 
ENDBRANCH  23  24
BRANCH  23  31
ATOM     30  C   UNL     1       7.121  -1.420  -3.681  0.00  0.00    +0.005 C 
ATOM     31  C   UNL     1       6.798  -2.566  -2.720  0.00  0.00    +0.014 C 
ENDBRANCH  23  31
ENDBRANCH  20  23
BRANCH  22  32
ATOM     32  C   UNL     1       3.951  -4.921  -0.145  0.00  0.00    +0.110 C 
BRANCH  32  33
ATOM     33  C   UNL     1       2.589  -5.438  -0.613  0.00  0.00    +0.047 C 
BRANCH  33  34
ATOM     34  C   UNL     1       2.053  -6.450   0.401  0.00  0.00    +0.161 C 
BRANCH  34  35
ATOM     35  O   UNL     1       0.780  -6.933  -0.036  0.00  0.00    -0.383 OA
ATOM     36  C   UNL     1       0.188  -7.890   0.845  0.00  0.00    +0.193 C 
ENDBRANCH  34  35
ENDBRANCH  33  34
ENDBRANCH  32  33
ENDBRANCH  22  32
ENDBRANCH   1  22
TORSDOF 10
