REMARK  Name = ZINC38899568
REMARK  4 active torsions:
REMARK  status: ('A' for Active; 'I' for Inactive)
REMARK    1  A    between atoms: C_1  and  C_2
REMARK    2  A    between atoms: C_8  and  C_27
REMARK    3  A    between atoms: N_11  and  N_12
REMARK    4  A    between atoms: C_13  and  C_14
REMARK                            x       y       z     vdW  Elec       q    Type
REMARK                         _______ _______ _______ _____ _____    ______ ____
ROOT
ATOM      1  C   UNL     1       0.778   1.456   0.035  0.00  0.00    +0.044 C 
ATOM      2  C   UNL     1       0.582  -0.038   0.020  0.00  0.00    -0.050 A 
ATOM      3  C   UNL     1       0.576  -0.718  -1.196  0.00  0.00    +0.005 A 
ATOM      4  C   UNL     1       0.401  -2.068  -1.245  0.00  0.00    +0.029 A 
ATOM      5  C   UNL     1       0.226  -2.787  -0.053  0.00  0.00    +0.077 A 
ATOM      6  C   UNL     1       0.233  -2.093   1.183  0.00  0.00    +0.027 A 
ATOM      7  C   UNL     1       0.419  -0.707   1.197  0.00  0.00    +0.015 A 
ATOM      8  C   UNL     1       0.054  -2.841   2.374  0.00  0.00    +0.084 A 
ATOM      9  N   UNL     1      -0.112  -4.152   2.273  0.00  0.00    -0.213 NA
ATOM     10  C   UNL     1      -0.112  -4.763   1.092  0.00  0.00    +0.236 A 
ATOM     11  N   UNL     1      -0.289  -6.135   1.055  0.00  0.00    -0.205 N 
ATOM     12  N   UNL     1       0.051  -4.115  -0.047  0.00  0.00    -0.213 NA
ATOM     13  H   UNL     1      -0.411  -6.631   1.879  0.00  0.00    +0.177 HD
ENDROOT
BRANCH   8  14
ATOM     14  C   UNL     1       0.052  -2.174   3.696  0.00  0.00    +0.001 A 
ATOM     15  C   UNL     1      -0.660  -0.989   3.881  0.00  0.00    +0.010 A 
ATOM     16  C   UNL     1      -0.658  -0.373   5.116  0.00  0.00    +0.001 A 
ATOM     17  C   UNL     1       0.048  -0.928   6.168  0.00  0.00    +0.000 A 
ATOM     18  C   UNL     1       0.756  -2.103   5.990  0.00  0.00    +0.001 A 
ATOM     19  C   UNL     1       0.757  -2.732   4.762  0.00  0.00    +0.010 A 
ENDBRANCH   8  14
BRANCH  11  20
ATOM     20  N   UNL     1      -0.294  -6.807  -0.174  0.00  0.00    -0.191 NA
ATOM     21  C   UNL     1      -0.459  -8.076  -0.209  0.00  0.00    +0.120 C 
BRANCH  21  22
ATOM     22  C   UNL     1      -0.464  -8.800  -1.531  0.00  0.00    +0.141 C 
ATOM     23  C   UNL     1      -1.840  -9.407  -1.724  0.00  0.00    +0.001 C 
ATOM     24  C   UNL     1      -1.909 -10.757  -1.900  0.00  0.00    -0.007 A 
ATOM     25  C   UNL     1      -3.196 -11.425  -2.092  0.00  0.00    +0.009 A 
ATOM     26  C   UNL     1      -3.216 -12.772  -2.263  0.00  0.00    +0.001 A 
ATOM     27  C   UNL     1      -2.041 -13.522  -2.258  0.00  0.00    +0.002 A 
ATOM     28  C   UNL     1      -0.815 -12.963  -2.084  0.00  0.00    +0.024 A 
ATOM     29  C   UNL     1      -0.683 -11.574  -1.899  0.00  0.00    +0.040 A 
ATOM     30  N   UNL     1       0.525 -11.036  -1.730  0.00  0.00    -0.284 N 
ATOM     31  C   UNL     1       0.719  -9.741  -1.549  0.00  0.00    +0.229 C 
ATOM     32  O   UNL     1       1.846  -9.309  -1.399  0.00  0.00    -0.274 OA
ATOM     33  H   UNL     1       1.297 -11.623  -1.739  0.00  0.00    +0.155 HD
ENDBRANCH  21  22
ENDBRANCH  11  20
TORSDOF 3
