REMARK  Name = ZINC09944511
REMARK  9 active torsions:
REMARK  status: ('A' for Active; 'I' for Inactive)
REMARK    1  A    between atoms: C_1  and  C_2
REMARK    2  A    between atoms: C_2  and  C_3
REMARK    3  A    between atoms: C_10  and  C_12
REMARK    4  A    between atoms: C_15  and  S_20
REMARK    5  A    between atoms: N_16  and  C_17
REMARK    6  A    between atoms: C_17  and  C_18
REMARK    7  A    between atoms: S_20  and  C_21
REMARK    8  A    between atoms: C_21  and  C_23
REMARK    9  A    between atoms: C_21  and  C_24
REMARK                            x       y       z     vdW  Elec       q    Type
REMARK                         _______ _______ _______ _____ _____    ______ ____
ROOT
ATOM      1  C   UNL     1      -5.977   2.863  -0.832  0.00  0.00    +0.172 A 
ATOM      2  N   UNL     1      -5.123   3.767  -0.405  0.00  0.00    -0.128 NA
ATOM      3  N   UNL     1      -3.961   3.239  -0.261  0.00  0.00    -0.122 NA
ATOM      4  C   UNL     1      -3.996   1.969  -0.596  0.00  0.00    +0.193 A 
ATOM      5  N   UNL     1      -5.280   1.683  -0.967  0.00  0.00    -0.298 N 
ENDROOT
BRANCH   1  12
ATOM      6  C   UNL     1     -11.732   5.167  -1.682  0.00  0.00    -0.007 C 
ATOM      7  C   UNL     1     -12.330   3.758  -1.655  0.00  0.00    +0.009 C 
ATOM      8  C   UNL     1     -11.364   2.799  -2.368  0.00  0.00    +0.043 C 
ATOM      9  C   UNL     1      -9.986   3.046  -1.845  0.00  0.00    -0.006 A 
ATOM     10  C   UNL     1      -9.553   4.115  -1.119  0.00  0.00    -0.036 A 
ATOM     11  C   UNL     1      -8.214   4.116  -0.745  0.00  0.00    +0.023 A 
ATOM     12  C   UNL     1      -7.407   3.072  -1.111  0.00  0.00    +0.057 A 
ATOM     13  S   UNL     1      -8.540   2.035  -2.023  0.00  0.00    -0.090 S 
ATOM     14  C   UNL     1     -10.519   5.239  -0.753  0.00  0.00    +0.039 C 
BRANCH   6  16
ATOM     15  C   UNL     1     -12.232   7.594  -1.359  0.00  0.00    +0.004 C 
ATOM     16  C   UNL     1     -12.785   6.175  -1.216  0.00  0.00    +0.000 C 
ENDBRANCH   6  16
ENDBRANCH   1  12
BRANCH   5  17
ATOM     17  C   UNL     1      -5.806   0.390  -1.415  0.00  0.00    +0.152 C 
BRANCH  17  18
ATOM     18  C   UNL     1      -6.298  -0.391  -0.224  0.00  0.00    -0.013 C 
ATOM     19  C   UNL     1      -7.528  -0.843  -0.200  0.00  0.00    +0.005 C 
ENDBRANCH  17  18
ENDBRANCH   5  17
BRANCH   4  20
ATOM     20  S   UNL     1      -2.642   0.842  -0.565  0.00  0.00    -0.073 S 
BRANCH  20  21
ATOM     21  C   UNL     1      -1.330   1.944   0.019  0.00  0.00    +0.137 C 
ATOM     22  C   UNL     1      -1.646   2.404   1.444  0.00  0.00    +0.029 C 
BRANCH  21  23
ATOM     23  C   UNL     1      -0.014   1.208   0.009  0.00  0.00    +0.233 C 
ATOM     24  O   UNL     1       0.002  -0.004   0.002  0.00  0.00    -0.274 OA
ATOM     25  N   UNL     1       1.143   1.898   0.001  0.00  0.00    -0.239 N 
ATOM     26  C   UNL     1       2.320   1.240  -0.013  0.00  0.00    +0.303 C 
ATOM     27  O   UNL     1       2.336   0.025  -0.020  0.00  0.00    -0.253 OA
ATOM     28  N   UNL     1       3.478   1.930  -0.021  0.00  0.00    -0.313 N 
ATOM     29  H   UNL     1       1.130   2.868   0.007  0.00  0.00    +0.159 HD
ATOM     30  H   UNL     1       3.465   2.900  -0.015  0.00  0.00    +0.146 HD
ATOM     31  H   UNL     1       4.324   1.456  -0.031  0.00  0.00    +0.146 HD
ENDBRANCH  21  23
ENDBRANCH  20  21
ENDBRANCH   4  20
TORSDOF 7
