REMARK  Name = ZINC33937012
REMARK  11 active torsions:
REMARK  status: ('A' for Active; 'I' for Inactive)
REMARK    1  A    between atoms: C_1  and  C_2
REMARK    2  A    between atoms: C_2  and  C_3
REMARK    3  A    between atoms: C_3  and  C_5
REMARK    4  A    between atoms: C_3  and  N_17
REMARK    5  A    between atoms: N_9  and  C_10
REMARK    6  A    between atoms: C_10  and  C_11
REMARK    7  A    between atoms: N_17  and  C_18
REMARK    8  A    between atoms: N_17  and  C_33
REMARK    9  A    between atoms: C_18  and  C_19
REMARK   10  A    between atoms: C_24  and  O_31
REMARK   11  A    between atoms: O_31  and  C_32
REMARK                            x       y       z     vdW  Elec       q    Type
REMARK                         _______ _______ _______ _____ _____    ______ ____
ROOT
ATOM      1  N   UNL     1       1.975   0.188  -1.272  0.00  0.00    +0.391 N 
ATOM      2  H   UNL     1       2.646   0.042  -0.533  0.00  0.00    -0.080 HD
ENDROOT
BRANCH   1   3
ATOM      3  C   UNL     1       2.455  -0.457  -2.502  0.00  0.00    -0.067 C 
ATOM      4  C   UNL     1       2.561  -1.981  -2.293  0.00  0.00    -0.015 C 
ATOM      5  C   UNL     1       3.829  -2.386  -3.086  0.00  0.00    -0.002 C 
ATOM      6  C   UNL     1       4.789  -1.200  -2.824  0.00  0.00    -0.002 C 
ATOM      7  C   UNL     1       3.872   0.041  -2.840  0.00  0.00    -0.015 C 
ENDBRANCH   1   3
BRANCH   1   8
ATOM      8  C   UNL     1       0.684  -0.396  -0.885  0.00  0.00    +0.003 C 
BRANCH   8   9
ATOM      9  C   UNL     1      -0.241  -0.402  -2.075  0.00  0.00    +0.138 A 
ATOM     10  N   UNL     1       0.039  -0.825  -3.283  0.00  0.00    -0.115 NA
ATOM     11  N   UNL     1      -1.009  -0.666  -4.014  0.00  0.00    -0.023 NA
ATOM     12  N   UNL     1      -1.952  -0.152  -3.304  0.00  0.00    -0.044 NA
ATOM     13  N   UNL     1      -1.519   0.021  -2.101  0.00  0.00    -0.228 N 
BRANCH  13  14
ATOM     14  C   UNL     1      -2.275   0.576  -0.975  0.00  0.00    +0.178 C 
BRANCH  14  15
ATOM     15  C   UNL     1      -2.092   2.095  -0.938  0.00  0.00    +0.140 C 
ATOM     16  C   UNL     1      -2.956   2.713   0.190  0.00  0.00    +0.035 C 
ATOM     17  C   UNL     1      -2.175   4.025   0.475  0.00  0.00    +0.031 C 
ATOM     18  C   UNL     1      -0.712   3.594   0.232  0.00  0.00    +0.160 C 
ATOM     19  O   UNL     1      -0.736   2.426  -0.599  0.00  0.00    -0.375 OA
ENDBRANCH  14  15
ENDBRANCH  13  14
ENDBRANCH   8   9
BRANCH   8  21
ATOM     20  C   UNL     1       1.955  -1.841   0.708  0.00  0.00    +0.002 C 
ATOM     21  C   UNL     1       0.899  -1.831  -0.399  0.00  0.00    -0.011 C 
ENDBRANCH   8  21
ENDBRANCH   1   8
BRANCH   1  22
ATOM     22  C   UNL     1       1.810   1.629  -1.507  0.00  0.00    -0.036 C 
BRANCH  22  23
ATOM     23  C   UNL     1       3.163   2.265  -1.693  0.00  0.00    +0.001 A 
ATOM     24  C   UNL     1       3.557   2.668  -2.928  0.00  0.00    +0.017 A 
ATOM     25  C   UNL     1       4.875   3.283  -3.076  0.00  0.00    -0.001 A 
ATOM     26  C   UNL     1       5.334   3.719  -4.325  0.00  0.00    +0.013 A 
ATOM     27  C   UNL     1       6.569   4.289  -4.432  0.00  0.00    +0.046 A 
ATOM     28  C   UNL     1       7.378   4.442  -3.307  0.00  0.00    +0.122 A 
ATOM     29  C   UNL     1       6.943   4.018  -2.064  0.00  0.00    +0.072 A 
ATOM     30  C   UNL     1       5.689   3.435  -1.935  0.00  0.00    +0.053 A 
ATOM     31  N   UNL     1       5.229   3.005  -0.709  0.00  0.00    -0.322 N 
ATOM     32  H   UNL     1       5.790   3.111   0.076  0.00  0.00    +0.169 HD
ATOM     33  C   UNL     1       4.013   2.445  -0.583  0.00  0.00    +0.251 A 
ATOM     34  O   UNL     1       3.638   2.081   0.518  0.00  0.00    -0.268 OA
BRANCH  28  35
ATOM     35  O   UNL     1       8.605   5.011  -3.433  0.00  0.00    -0.495 OA
ATOM     36  C   UNL     1       8.996   5.427  -4.743  0.00  0.00    +0.277 C 
ENDBRANCH  28  35
ENDBRANCH  22  23
ENDBRANCH   1  22
TORSDOF 9
