REMARK  Name = ZINC36609793
REMARK  12 active torsions:
REMARK  status: ('A' for Active; 'I' for Inactive)
REMARK    1  A    between atoms: C_1  and  C_2
REMARK    2  A    between atoms: C_2  and  C_3
REMARK    3  A    between atoms: C_2  and  C_4
REMARK    4  A    between atoms: C_2  and  N_5
REMARK    5  A    between atoms: C_6  and  C_8
REMARK    6  A    between atoms: C_8  and  C_10
REMARK    7  A    between atoms: C_8  and  N_23
REMARK    8  A    between atoms: C_10  and  C_11
REMARK    9  A    between atoms: C_10  and  C_17
REMARK   10  A    between atoms: N_23  and  C_24
REMARK   11  A    between atoms: C_30  and  C_32
REMARK   12  A    between atoms: C_35  and  O_38
REMARK                            x       y       z     vdW  Elec       q    Type
REMARK                         _______ _______ _______ _____ _____    ______ ____
ROOT
ATOM      1  C   UNL     1       1.989  -0.422  -2.699  0.00  0.00    +0.179 C 
ENDROOT
BRANCH   1   3
ATOM      2  N   UNL     1      -0.092  -0.764  -1.407  0.00  0.00    -0.309 N 
ATOM      3  C   UNL     1       0.952   0.034  -1.705  0.00  0.00    +0.235 C 
ATOM      4  O   UNL     1       1.057   1.119  -1.173  0.00  0.00    -0.274 OA
ATOM      5  H   UNL     1      -0.176  -1.632  -1.832  0.00  0.00    +0.149 HD
BRANCH   2   7
ATOM      6  C   UNL     1      -1.752   0.970  -0.939  0.00  0.00    +0.031 C 
ATOM      7  C   UNL     1      -1.100  -0.321  -0.440  0.00  0.00    +0.026 C 
ATOM      8  C   UNL     1      -0.432  -0.066   0.913  0.00  0.00    +0.031 C 
ATOM      9  C   UNL     1      -2.169  -1.405  -0.285  0.00  0.00    +0.031 C 
ENDBRANCH   2   7
ENDBRANCH   1   3
BRANCH   1  10
ATOM     10  N   UNL     1       3.012   0.616  -2.848  0.00  0.00    -0.255 N 
ATOM     11  C   UNL     1       3.316   1.093  -4.071  0.00  0.00    +0.252 C 
ATOM     12  O   UNL     1       2.698   0.706  -5.045  0.00  0.00    -0.270 OA
BRANCH  10  13
ATOM     13  C   UNL     1       3.673   1.113  -1.720  0.00  0.00    +0.037 A 
ATOM     14  C   UNL     1       3.550   2.453  -1.375  0.00  0.00    +0.023 A 
ATOM     15  C   UNL     1       4.205   2.940  -0.261  0.00  0.00    +0.002 A 
ATOM     16  C   UNL     1       4.982   2.096   0.511  0.00  0.00    +0.000 A 
ATOM     17  C   UNL     1       5.107   0.761   0.170  0.00  0.00    +0.002 A 
ATOM     18  C   UNL     1       4.450   0.266  -0.940  0.00  0.00    +0.023 A 
ENDBRANCH  10  13
BRANCH  11  19
ATOM     19  C   UNL     1       4.398   2.083  -4.230  0.00  0.00    +0.037 A 
ATOM     20  C   UNL     1       5.413   2.171  -3.273  0.00  0.00    +0.016 A 
ATOM     21  C   UNL     1       6.421   3.096  -3.425  0.00  0.00    +0.046 A 
ATOM     22  C   UNL     1       6.430   3.943  -4.527  0.00  0.00    +0.117 A 
ATOM     23  C   UNL     1       5.423   3.858  -5.481  0.00  0.00    +0.046 A 
ATOM     24  C   UNL     1       4.415   2.931  -5.340  0.00  0.00    +0.016 A 
BRANCH  22  25
ATOM     25  O   UNL     1       7.426   4.854  -4.673  0.00  0.00    -0.507 OA
ATOM     26  H   UNL     1       8.190   4.526  -5.165  0.00  0.00    +0.292 HD
ENDBRANCH  22  25
ENDBRANCH  11  19
ENDBRANCH   1  10
BRANCH   1  27
ATOM     27  C   UNL     1       2.641  -1.713  -2.200  0.00  0.00    +0.079 C 
BRANCH  27  28
ATOM     28  C   UNL     1       1.592  -2.786  -2.065  0.00  0.00    -0.038 A 
ATOM     29  C   UNL     1       0.868  -3.188  -3.172  0.00  0.00    +0.004 A 
ATOM     30  C   UNL     1      -0.095  -4.172  -3.049  0.00  0.00    +0.000 A 
ATOM     31  C   UNL     1      -0.333  -4.755  -1.819  0.00  0.00    +0.000 A 
ATOM     32  C   UNL     1       0.392  -4.354  -0.712  0.00  0.00    +0.000 A 
ATOM     33  C   UNL     1       1.357  -3.373  -0.836  0.00  0.00    +0.004 A 
ENDBRANCH  27  28
BRANCH  27  34
ATOM     34  C   UNL     1       3.691  -2.158  -3.185  0.00  0.00    -0.038 A 
ATOM     35  C   UNL     1       3.377  -2.272  -4.526  0.00  0.00    +0.004 A 
ATOM     36  C   UNL     1       4.341  -2.680  -5.429  0.00  0.00    +0.000 A 
ATOM     37  C   UNL     1       5.619  -2.974  -4.991  0.00  0.00    +0.000 A 
ATOM     38  C   UNL     1       5.933  -2.859  -3.650  0.00  0.00    +0.000 A 
ATOM     39  C   UNL     1       4.971  -2.446  -2.747  0.00  0.00    +0.004 A 
ENDBRANCH  27  34
ENDBRANCH   1  27
TORSDOF 9
