REMARK  Name = ZINC03432964
REMARK  2 active torsions:
REMARK  status: ('A' for Active; 'I' for Inactive)
REMARK    1  A    between atoms: N_12  and  C_16
REMARK    2  A    between atoms: C_16  and  C_17
REMARK                            x       y       z     vdW  Elec       q    Type
REMARK                         _______ _______ _______ _____ _____    ______ ____
ROOT
ATOM      1  C   UNL     1      -1.636  12.161  -5.166  0.00  0.00    +0.000 A 
ATOM      2  C   UNL     1      -2.150  12.092  -3.884  0.00  0.00    +0.000 A 
ATOM      3  C   UNL     1      -2.176  10.884  -3.216  0.00  0.00    +0.006 A 
ATOM      4  C   UNL     1      -1.690   9.737  -3.824  0.00  0.00    -0.012 A 
ATOM      5  C   UNL     1      -1.175   9.808  -5.108  0.00  0.00    -0.042 A 
ATOM      6  C   UNL     1      -1.150  11.021  -5.775  0.00  0.00    +0.004 A 
ATOM      7  C   UNL     1      -0.707   8.436  -5.548  0.00  0.00    +0.038 C 
ATOM      8  C   UNL     1      -1.377   7.445  -4.570  0.00  0.00    +0.045 C 
ATOM      9  C   UNL     1      -1.604   8.319  -3.330  0.00  0.00    +0.138 C 
ATOM     10  C   UNL     1      -0.491   8.151  -2.328  0.00  0.00    +0.251 C 
ATOM     11  O   UNL     1       0.689   8.373  -2.495  0.00  0.00    -0.272 OA
ATOM     12  N   UNL     1      -1.090   7.698  -1.205  0.00  0.00    -0.218 N 
ATOM     13  C   UNL     1      -2.413   7.571  -1.369  0.00  0.00    +0.310 C 
ATOM     14  O   UNL     1      -3.168   7.186  -0.498  0.00  0.00    -0.252 OA
ATOM     15  N   UNL     1      -2.813   7.920  -2.609  0.00  0.00    -0.281 N 
ATOM     16  H   UNL     1      -3.720   7.909  -2.953  0.00  0.00    +0.152 HD
ENDROOT
BRANCH  12  17
ATOM     17  C   UNL     1      -0.380   7.390   0.039  0.00  0.00    +0.173 C 
BRANCH  17  18
ATOM     18  C   UNL     1       0.046   5.944   0.030  0.00  0.00    +0.067 A 
ATOM     19  C   UNL     1       1.383   5.607   0.016  0.00  0.00    +0.095 A 
ATOM     20  C   UNL     1       1.758   4.263   0.007  0.00  0.00    +0.259 A 
ATOM     21  O   UNL     1       2.940   3.959  -0.006  0.00  0.00    -0.267 OA
ATOM     22  N   UNL     1       0.800   3.288   0.011  0.00  0.00    -0.262 N 
ATOM     23  C   UNL     1       1.010   1.930   0.003  0.00  0.00    +0.104 A 
ATOM     24  C   UNL     1      -0.013   1.076   0.008  0.00  0.00    +0.067 A 
ATOM     25  S   UNL     1      -1.414   2.183   0.019  0.00  0.00    -0.058 S 
ATOM     26  C   UNL     1      -0.502   3.711   0.025  0.00  0.00    +0.180 A 
ATOM     27  N   UNL     1      -0.861   4.971   0.034  0.00  0.00    -0.226 NA
ENDBRANCH  17  18
ENDBRANCH  12  17
TORSDOF 2
