REMARK  Name = ZINC35337738
REMARK  7 active torsions:
REMARK  status: ('A' for Active; 'I' for Inactive)
REMARK    1  A    between atoms: C_1  and  C_2
REMARK    2  A    between atoms: C_3  and  C_30
REMARK    3  A    between atoms: C_4  and  C_13
REMARK    4  A    between atoms: C_16  and  N_19
REMARK    5  A    between atoms: C_20  and  C_22
REMARK    6  A    between atoms: C_23  and  C_24
REMARK    7  A    between atoms: N_32  and  C_33
REMARK                            x       y       z     vdW  Elec       q    Type
REMARK                         _______ _______ _______ _____ _____    ______ ____
ROOT
ATOM      1  C   UNL     1      -1.277  -2.641   1.496  0.00  0.00    -0.022 A 
ATOM      2  C   UNL     1      -0.136  -2.793   2.263  0.00  0.00    +0.007 A 
ATOM      3  C   UNL     1      -0.235  -3.214   3.574  0.00  0.00    +0.023 A 
ATOM      4  C   UNL     1      -1.482  -3.485   4.123  0.00  0.00    +0.034 A 
ATOM      5  C   UNL     1      -2.626  -3.331   3.350  0.00  0.00    +0.023 A 
ATOM      6  C   UNL     1      -2.520  -2.904   2.040  0.00  0.00    +0.007 A 
ENDROOT
BRANCH   1  10
ATOM      7  C   UNL     1       0.468   1.328   0.002  0.00  0.00    +0.064 C 
ATOM      8  C   UNL     1       0.278  -0.166  -0.025  0.00  0.00    +0.025 C 
ATOM      9  C   UNL     1      -0.980  -0.684   0.026  0.00  0.00    +0.058 C 
ATOM     10  C   UNL     1      -1.165  -2.181   0.065  0.00  0.00    +0.142 C 
ATOM     11  N   UNL     1       0.003  -2.817  -0.573  0.00  0.00    -0.300 N 
ATOM     12  C   UNL     1      -0.221  -3.966  -1.430  0.00  0.00    +0.109 C 
ATOM     13  C   UNL     1       0.869  -5.011  -1.449  0.00  0.00    +0.030 C 
ATOM     14  C   UNL     1       2.226  -4.412  -1.825  0.00  0.00    +0.078 C 
ATOM     15  S   UNL     1       2.687  -3.242  -0.507  0.00  0.00    -0.092 S 
ATOM     16  C   UNL     1       1.231  -2.251  -0.371  0.00  0.00    +0.135 C 
ATOM     17  N   UNL     1       1.342  -0.962  -0.102  0.00  0.00    -0.341 N 
ATOM     18  H   UNL     1       2.224  -0.587   0.046  0.00  0.00    +0.167 HD
BRANCH   9  19
ATOM     19  C   UNL     1      -2.099   0.170   0.043  0.00  0.00    +0.244 C 
ATOM     20  O   UNL     1      -1.943   1.378   0.011  0.00  0.00    -0.270 OA
ATOM     21  N   UNL     1      -3.342  -0.349   0.093  0.00  0.00    -0.315 N 
ATOM     22  C   UNL     1      -4.506   0.540   0.110  0.00  0.00    +0.128 C 
ATOM     23  H   UNL     1      -3.465  -1.311   0.118  0.00  0.00    +0.149 HD
ENDBRANCH   9  19
ENDBRANCH   1  10
BRANCH   4  24
ATOM     24  N   UNL     1      -1.586  -3.912   5.450  0.00  0.00    -0.282 N 
ATOM     25  C   UNL     1      -2.558  -4.775   5.806  0.00  0.00    +0.241 C 
ATOM     26  O   UNL     1      -3.285  -5.257   4.957  0.00  0.00    -0.270 OA
ATOM     27  H   UNL     1      -0.958  -3.587   6.114  0.00  0.00    +0.155 HD
BRANCH  25  28
ATOM     28  C   UNL     1      -2.739  -5.133   7.214  0.00  0.00    +0.068 C 
ATOM     29  C   UNL     1      -3.711  -5.997   7.570  0.00  0.00    +0.013 C 
BRANCH  29  30
ATOM     30  C   UNL     1      -3.893  -6.356   8.986  0.00  0.00    -0.025 A 
ATOM     31  C   UNL     1      -3.064  -5.800   9.965  0.00  0.00    +0.008 A 
ATOM     32  C   UNL     1      -3.241  -6.143  11.289  0.00  0.00    +0.001 A 
ATOM     33  C   UNL     1      -4.236  -7.034  11.650  0.00  0.00    +0.000 A 
ATOM     34  C   UNL     1      -5.061  -7.588  10.687  0.00  0.00    +0.001 A 
ATOM     35  C   UNL     1      -4.901  -7.252   9.359  0.00  0.00    +0.008 A 
ENDBRANCH  29  30
ENDBRANCH  25  28
ENDBRANCH   4  24
TORSDOF 5
