REMARK  Name = ZINC13498645
REMARK  11 active torsions:
REMARK  status: ('A' for Active; 'I' for Inactive)
REMARK    1  A    between atoms: C_1  and  C_2
REMARK    2  A    between atoms: C_2  and  C_3
REMARK    3  A    between atoms: C_2  and  C_4
REMARK    4  A    between atoms: C_4  and  C_6
REMARK    5  A    between atoms: C_4  and  N_73
REMARK    6  A    between atoms: N_10  and  C_11
REMARK    7  A    between atoms: C_17  and  C_18
REMARK    8  A    between atoms: C_17  and  N_73
REMARK    9  A    between atoms: C_22  and  O_30
REMARK   10  A    between atoms: O_30  and  C_31
REMARK   11  A    between atoms: C_32  and  N_73
REMARK                            x       y       z     vdW  Elec       q    Type
REMARK                         _______ _______ _______ _____ _____    ______ ____
ROOT
ATOM      1  N   UNL     1      -2.856   0.802  -1.160  0.00  0.00    +0.391 N 
ATOM      2  H   UNL     1      -2.751   1.592  -1.807  0.00  0.00    -0.080 HD
ENDROOT
BRANCH   1   3
ATOM      3  C   UNL     1      -1.783  -0.180  -1.421  0.00  0.00    -0.067 C 
ATOM      4  C   UNL     1      -2.002  -1.472  -0.607  0.00  0.00    -0.015 C 
ATOM      5  C   UNL     1      -0.572  -1.909  -0.198  0.00  0.00    -0.002 C 
ATOM      6  C   UNL     1       0.127  -0.559   0.099  0.00  0.00    -0.002 C 
ATOM      7  C   UNL     1      -0.430   0.400  -0.973  0.00  0.00    -0.015 C 
ENDBRANCH   1   3
BRANCH   1   8
ATOM      8  C   UNL     1      -4.178   0.176  -1.378  0.00  0.00    +0.006 C 
BRANCH   8   9
ATOM      9  C   UNL     1      -4.078  -0.824  -2.501  0.00  0.00    +0.139 A 
ATOM     10  N   UNL     1      -3.423  -0.673  -3.627  0.00  0.00    -0.115 NA
ATOM     11  N   UNL     1      -3.578  -1.746  -4.323  0.00  0.00    -0.023 NA
ATOM     12  N   UNL     1      -4.321  -2.574  -3.675  0.00  0.00    -0.044 NA
ATOM     13  N   UNL     1      -4.650  -2.041  -2.546  0.00  0.00    -0.228 N 
BRANCH  13  14
ATOM     14  C   UNL     1      -5.487  -2.649  -1.509  0.00  0.00    +0.111 C 
ATOM     15  C   UNL     1      -4.839  -3.947  -1.025  0.00  0.00    +0.027 C 
ATOM     16  C   UNL     1      -5.713  -4.581   0.058  0.00  0.00    +0.002 C 
ATOM     17  C   UNL     1      -7.098  -4.886  -0.518  0.00  0.00    +0.000 C 
ATOM     18  C   UNL     1      -7.746  -3.588  -1.002  0.00  0.00    +0.002 C 
ATOM     19  C   UNL     1      -6.872  -2.954  -2.085  0.00  0.00    +0.027 C 
ENDBRANCH  13  14
ENDBRANCH   8   9
BRANCH   8  21
ATOM     20  C   UNL     1      -6.598   0.700  -1.705  0.00  0.00    +0.006 C 
ATOM     21  C   UNL     1      -5.179   1.269  -1.754  0.00  0.00    -0.024 C 
ATOM     22  C   UNL     1      -5.061   2.431  -0.766  0.00  0.00    +0.006 C 
ENDBRANCH   8  21
ENDBRANCH   1   8
BRANCH   1  23
ATOM     23  C   UNL     1      -2.757   1.301   0.228  0.00  0.00    -0.036 C 
BRANCH  23  24
ATOM     24  C   UNL     1      -3.114   0.213   1.208  0.00  0.00    +0.001 A 
ATOM     25  C   UNL     1      -2.141  -0.382   1.941  0.00  0.00    +0.017 A 
ATOM     26  C   UNL     1      -2.520  -1.439   2.880  0.00  0.00    +0.002 A 
ATOM     27  C   UNL     1      -1.558  -2.092   3.659  0.00  0.00    +0.055 A 
ATOM     28  C   UNL     1      -1.950  -3.084   4.535  0.00  0.00    +0.121 A 
ATOM     29  C   UNL     1      -3.293  -3.435   4.644  0.00  0.00    +0.047 A 
ATOM     30  C   UNL     1      -4.249  -2.800   3.883  0.00  0.00    +0.030 A 
ATOM     31  C   UNL     1      -3.876  -1.797   2.994  0.00  0.00    +0.049 A 
ATOM     32  N   UNL     1      -4.819  -1.149   2.222  0.00  0.00    -0.322 N 
ATOM     33  H   UNL     1      -5.753  -1.396   2.301  0.00  0.00    +0.169 HD
ATOM     34  C   UNL     1      -4.461  -0.179   1.363  0.00  0.00    +0.251 A 
ATOM     35  O   UNL     1      -5.320   0.372   0.697  0.00  0.00    -0.268 OA
BRANCH  28  36
ATOM     36  O   UNL     1      -1.020  -3.721   5.295  0.00  0.00    -0.495 OA
ATOM     37  C   UNL     1      -1.492  -4.738   6.181  0.00  0.00    +0.277 C 
ENDBRANCH  28  36
ENDBRANCH  23  24
ENDBRANCH   1  23
TORSDOF 8
