REMARK  Name = ZINC06476231
REMARK  7 active torsions:
REMARK  status: ('A' for Active; 'I' for Inactive)
REMARK    1  A    between atoms: C_9  and  N_11
REMARK    2  A    between atoms: C_12  and  C_14
REMARK    3  A    between atoms: C_17  and  C_19
REMARK    4  A    between atoms: C_19  and  C_21
REMARK    5  A    between atoms: C_19  and  N_48
REMARK    6  A    between atoms: C_21  and  C_22
REMARK    7  A    between atoms: C_25  and  O_28
REMARK                            x       y       z     vdW  Elec       q    Type
REMARK                         _______ _______ _______ _____ _____    ______ ____
ROOT
ATOM      1  C   UNL     1      -2.788   7.091   1.576  0.00  0.00    +0.163 A 
ATOM      2  C   UNL     1      -4.034   7.578   1.328  0.00  0.00    +0.230 A 
ATOM      3  O   UNL     1      -4.488   8.098   2.480  0.00  0.00    -0.449 OA
ATOM      4  C   UNL     1      -3.538   7.942   3.413  0.00  0.00    +0.182 A 
ATOM      5  N   UNL     1      -2.514   7.341   2.885  0.00  0.00    -0.210 NA
ENDROOT
BRANCH   1   7
ATOM      6  N   UNL     1      -0.680   5.998   0.993  0.00  0.00    -0.303 N 
ATOM      7  C   UNL     1      -1.899   6.426   0.606  0.00  0.00    +0.266 C 
ATOM      8  O   UNL     1      -2.265   6.263  -0.542  0.00  0.00    -0.268 OA
ATOM      9  H   UNL     1      -0.389   6.128   1.909  0.00  0.00    +0.150 HD
BRANCH   6  18
ATOM     10  C   UNL     1      -0.013   1.076   0.008  0.00  0.00    +0.000 A 
ATOM     11  C   UNL     1      -1.219   1.751   0.017  0.00  0.00    +0.000 A 
ATOM     12  C   UNL     1      -1.235   3.132   0.031  0.00  0.00    +0.006 A 
ATOM     13  C   UNL     1      -0.047   3.844   0.024  0.00  0.00    -0.024 A 
ATOM     14  C   UNL     1       1.159   3.168   0.009  0.00  0.00    -0.042 A 
ATOM     15  C   UNL     1       1.173   1.783   0.000  0.00  0.00    +0.004 A 
ATOM     16  C   UNL     1       2.302   4.161   0.003  0.00  0.00    +0.037 C 
ATOM     17  C   UNL     1       1.677   5.498   0.456  0.00  0.00    +0.032 C 
ATOM     18  C   UNL     1       0.203   5.336   0.029  0.00  0.00    +0.104 C 
ENDBRANCH   6  18
ENDBRANCH   1   7
BRANCH   4  19
ATOM     19  C   UNL     1      -3.642   8.392   4.847  0.00  0.00    +0.017 C 
BRANCH  19  22
ATOM     20  H   UNL     1      -3.567  10.411   4.450  0.00  0.00    -0.089 HD
ATOM     21  H   UNL     1      -5.109   9.788   4.478  0.00  0.00    -0.089 HD
ATOM     22  N   UNL     1      -4.191   9.757   4.920  0.00  0.00    +0.386 N 
ATOM     23  H   UNL     1      -4.285  10.032   5.905  0.00  0.00    -0.089 HD
ENDBRANCH  19  22
BRANCH  19  24
ATOM     24  C   UNL     1      -4.564   7.443   5.614  0.00  0.00    +0.028 C 
BRANCH  24  25
ATOM     25  C   UNL     1      -4.572   7.820   7.074  0.00  0.00    -0.048 A 
ATOM     26  C   UNL     1      -3.656   7.249   7.938  0.00  0.00    +0.007 A 
ATOM     27  C   UNL     1      -3.657   7.596   9.275  0.00  0.00    +0.045 A 
ATOM     28  C   UNL     1      -4.585   8.511   9.752  0.00  0.00    +0.117 A 
ATOM     29  C   UNL     1      -5.506   9.078   8.884  0.00  0.00    +0.045 A 
ATOM     30  C   UNL     1      -5.497   8.731   7.546  0.00  0.00    +0.007 A 
BRANCH  28  31
ATOM     31  O   UNL     1      -4.592   8.849  11.068  0.00  0.00    -0.507 OA
ATOM     32  H   UNL     1      -5.158   8.288  11.616  0.00  0.00    +0.292 HD
ENDBRANCH  28  31
ENDBRANCH  24  25
ENDBRANCH  19  24
ENDBRANCH   4  19
TORSDOF 7
