REMARK  Name = ZINC20884344
REMARK  5 active torsions:
REMARK  status: ('A' for Active; 'I' for Inactive)
REMARK    1  A    between atoms: C_1  and  O_2
REMARK    2  A    between atoms: O_2  and  C_3
REMARK    3  A    between atoms: C_8  and  C_9
REMARK    4  A    between atoms: C_14  and  C_24
REMARK    5  A    between atoms: C_28  and  N_30
REMARK                            x       y       z     vdW  Elec       q    Type
REMARK                         _______ _______ _______ _____ _____    ______ ____
ROOT
ATOM      1  C   UNL     1      -0.118   5.346  -0.063  0.00  0.00    +0.035 C 
ATOM      2  C   UNL     1      -0.863   5.894  -1.279  0.00  0.00    +0.060 C 
ATOM      3  C   UNL     1      -0.888   7.413  -1.230  0.00  0.00    +0.017 C 
ATOM      4  C   UNL     1      -0.935   8.054  -0.051  0.00  0.00    +0.036 C 
ATOM      5  C   UNL     1      -0.987   9.551   0.142  0.00  0.00    +0.136 C 
ATOM      6  N   UNL     1      -0.719  10.319  -1.055  0.00  0.00    -0.331 N 
ATOM      7  C   UNL     1      -1.574  10.262  -2.154  0.00  0.00    +0.049 A 
ATOM      8  C   UNL     1      -2.294  11.371  -2.569  0.00  0.00    +0.025 A 
ATOM      9  C   UNL     1      -3.166  11.254  -3.638  0.00  0.00    +0.002 A 
ATOM     10  C   UNL     1      -3.322  10.042  -4.285  0.00  0.00    +0.002 A 
ATOM     11  C   UNL     1      -2.591   8.937  -3.883  0.00  0.00    +0.025 A 
ATOM     12  C   UNL     1      -1.703   9.058  -2.829  0.00  0.00    +0.052 A 
ATOM     13  N   UNL     1      -0.863   8.019  -2.444  0.00  0.00    -0.316 N 
ATOM     14  C   UNL     1      -0.936   7.321   1.159  0.00  0.00    +0.163 C 
ATOM     15  O   UNL     1      -1.003   7.927   2.211  0.00  0.00    -0.292 OA
ATOM     16  C   UNL     1      -0.858   5.824   1.192  0.00  0.00    +0.088 C 
ATOM     17  H   UNL     1       0.173  10.961  -1.107  0.00  0.00    +0.147 HD
ATOM     18  H   UNL     1      -0.140   7.694  -3.206  0.00  0.00    +0.152 HD
ENDROOT
BRANCH   1  24
ATOM     19  C   UNL     1       1.100   3.156  -0.130  0.00  0.00    +0.124 A 
ATOM     20  C   UNL     1       1.108   1.769  -0.170  0.00  0.00    +0.046 A 
ATOM     21  C   UNL     1      -0.086   1.073  -0.187  0.00  0.00    +0.004 A 
ATOM     22  C   UNL     1      -1.287   1.758  -0.169  0.00  0.00    +0.001 A 
ATOM     23  C   UNL     1      -1.297   3.139  -0.123  0.00  0.00    +0.007 A 
ATOM     24  C   UNL     1      -0.106   3.840  -0.106  0.00  0.00    -0.002 A 
BRANCH  19  26
ATOM     25  C   UNL     1       3.476   3.072  -0.141  0.00  0.00    +0.277 C 
ATOM     26  O   UNL     1       2.273   3.842  -0.114  0.00  0.00    -0.495 OA
ENDBRANCH  19  26
ENDBRANCH   1  24
BRANCH   5  27
ATOM     27  C   UNL     1      -2.358   9.920   0.649  0.00  0.00    -0.021 A 
ATOM     28  C   UNL     1      -3.471   9.693  -0.139  0.00  0.00    +0.006 A 
ATOM     29  C   UNL     1      -4.727  10.031   0.326  0.00  0.00    +0.003 A 
ATOM     30  C   UNL     1      -4.872  10.596   1.580  0.00  0.00    +0.033 A 
ATOM     31  C   UNL     1      -3.760  10.821   2.368  0.00  0.00    +0.127 A 
ATOM     32  C   UNL     1      -2.503  10.479   1.905  0.00  0.00    +0.038 A 
BRANCH  31  33
ATOM     33  N   UNL     1      -3.914  11.426   3.711  0.00  0.00    +0.056 N 
ATOM     34  O   UNL     1      -5.022  11.724   4.120  0.00  0.00    -0.126 OA
ATOM     35  O   UNL     1      -2.934  11.624   4.406  0.00  0.00    -0.126 OA
ENDBRANCH  31  33
ENDBRANCH   5  27
TORSDOF 4
