REMARK  Name = ZINC09471102
REMARK  6 active torsions:
REMARK  status: ('A' for Active; 'I' for Inactive)
REMARK    1  A    between atoms: C_4  and  C_7
REMARK    2  A    between atoms: C_7  and  C_9
REMARK    3  A    between atoms: C_7  and  N_53
REMARK    4  A    between atoms: C_9  and  N_10
REMARK    5  A    between atoms: N_10  and  C_11
REMARK    6  A    between atoms: C_22  and  C_25
REMARK                            x       y       z     vdW  Elec       q    Type
REMARK                         _______ _______ _______ _____ _____    ______ ____
ROOT
ATOM      1  C   UNL     1      -3.982   3.483   7.304  0.00  0.00    +0.071 A 
ATOM      2  C   UNL     1      -3.002   4.232   6.619  0.00  0.00    +0.158 A 
ATOM      3  N   UNL     1      -2.203   3.651   5.768  0.00  0.00    -0.168 NA
ATOM      4  N   UNL     1      -2.304   2.281   5.504  0.00  0.00    -0.177 N 
ATOM      5  C   UNL     1      -3.225   1.528   6.135  0.00  0.00    +0.293 A 
ATOM      6  O   UNL     1      -3.304   0.331   5.903  0.00  0.00    -0.264 OA
ATOM      7  C   UNL     1      -4.093   2.126   7.060  0.00  0.00    +0.129 A 
ATOM      8 CL   UNL     1      -5.288   1.177   7.887  0.00  0.00    -0.076 Cl
ATOM      9  C   UNL     1      -1.438   1.689   4.582  0.00  0.00    +0.158 A 
ATOM     10  C   UNL     1      -0.487   2.466   3.932  0.00  0.00    +0.049 A 
ATOM     11  C   UNL     1       0.368   1.865   3.025  0.00  0.00    +0.017 A 
ATOM     12  C   UNL     1       0.235   0.503   2.792  0.00  0.00    +0.073 A 
ATOM     13  C   UNL     1      -0.732  -0.208   3.475  0.00  0.00    +0.125 A 
ATOM     14  N   UNL     1      -1.530   0.391   4.337  0.00  0.00    -0.235 NA
ENDROOT
BRANCH  12  15
ATOM     15  C   UNL     1       1.141  -0.193   1.810  0.00  0.00    +0.419 C 
ATOM     16  F   UNL     1       0.816  -1.553   1.758  0.00  0.00    -0.166 F 
ATOM     17  F   UNL     1       2.471  -0.048   2.218  0.00  0.00    -0.166 F 
ATOM     18  F   UNL     1       0.978   0.374   0.541  0.00  0.00    -0.166 F 
ENDBRANCH  12  15
BRANCH   1  19
ATOM     19  N   UNL     1      -4.826   4.100   8.212  0.00  0.00    -0.343 N 
ATOM     20  H   UNL     1      -5.498   3.581   8.681  0.00  0.00    +0.146 HD
BRANCH  19  21
ATOM     21  C   UNL     1      -4.703   5.538   8.465  0.00  0.00    +0.091 C 
BRANCH  21  22
ATOM     22  C   UNL     1      -5.627   5.934   9.618  0.00  0.00    -0.020 C 
BRANCH  22  26
ATOM     23  C   UNL     1      -5.444  10.161  10.204  0.00  0.00    +0.000 A 
ATOM     24  C   UNL     1      -6.557   9.593   9.614  0.00  0.00    +0.000 A 
ATOM     25  C   UNL     1      -6.617   8.225   9.425  0.00  0.00    +0.002 A 
ATOM     26  C   UNL     1      -5.562   7.425   9.825  0.00  0.00    -0.059 A 
ATOM     27  C   UNL     1      -4.451   7.993  10.420  0.00  0.00    +0.002 A 
ATOM     28  C   UNL     1      -4.390   9.362  10.605  0.00  0.00    +0.000 A 
ENDBRANCH  22  26
BRANCH  22  33
ATOM     29  C   UNL     1      -5.880   5.819  12.037  0.00  0.00    -0.078 C 
ATOM     30  C   UNL     1      -5.740   4.696  13.095  0.00  0.00    -0.020 C 
ATOM     31  C   UNL     1      -5.911   3.408  12.258  0.00  0.00    -0.020 C 
ATOM     32  C   UNL     1      -5.570   3.819  10.813  0.00  0.00    -0.078 C 
ATOM     33  N   UNL     1      -5.203   5.235  10.869  0.00  0.00    +0.385 N 
ATOM     34  H   UNL     1      -4.186   5.325  10.976  0.00  0.00    -0.081 HD
ENDBRANCH  22  33
ENDBRANCH  21  22
ENDBRANCH  19  21
ENDBRANCH   1  19
TORSDOF 6
