REMARK  Name = ZINC65395082
REMARK  6 active torsions:
REMARK  status: ('A' for Active; 'I' for Inactive)
REMARK    1  A    between atoms: C_1  and  N_2
REMARK    2  A    between atoms: C_8  and  C_10
REMARK    3  A    between atoms: N_12  and  C_13
REMARK    4  A    between atoms: N_12  and  C_14
REMARK    5  A    between atoms: C_14  and  C_15
REMARK    6  A    between atoms: C_18  and  C_20
REMARK                            x       y       z     vdW  Elec       q    Type
REMARK                         _______ _______ _______ _____ _____    ______ ____
ROOT
ATOM      1  C   UNL     1       1.196  -5.505   2.106  0.00  0.00    +0.267 C 
ATOM      2  O   UNL     1       2.158  -5.586   2.846  0.00  0.00    -0.268 OA
ATOM      3  N   UNL     1       0.353  -6.549   1.980  0.00  0.00    -0.293 N 
ATOM      4  C   UNL     1      -0.762  -6.480   1.032  0.00  0.00    +0.133 C 
ENDROOT
BRANCH   1  12
ATOM      5  C   UNL     1       0.994   1.042  -1.214  0.00  0.00    -0.096 C 
ATOM      6  N   UNL     1       0.842  -0.403  -1.000  0.00  0.00    +0.383 N 
ATOM      7  C   UNL     1      -0.587  -0.746  -0.980  0.00  0.00    -0.055 C 
ATOM      8  C   UNL     1      -0.757  -2.268  -1.064  0.00  0.00    +0.125 C 
ATOM      9  N   UNL     1       0.094  -2.881  -0.033  0.00  0.00    -0.271 N 
ATOM     10  C   UNL     1       1.098  -2.207   0.585  0.00  0.00    +0.023 A 
ATOM     11  C   UNL     1       1.668  -3.045   1.468  0.00  0.00    +0.055 A 
ATOM     12  C   UNL     1       0.953  -4.263   1.345  0.00  0.00    +0.147 A 
ATOM     13  N   UNL     1       0.028  -4.076   0.423  0.00  0.00    -0.166 NA
ATOM     14  C   UNL     1       1.461  -0.776   0.284  0.00  0.00    -0.023 C 
ATOM     15  H   UNL     1       1.296  -0.903  -1.749  0.00  0.00    -0.082 HD
ENDBRANCH   1  12
BRANCH   3  16
ATOM     16  C   UNL     1       0.550  -7.752   2.792  0.00  0.00    +0.163 C 
BRANCH  16  17
ATOM     17  C   UNL     1      -0.212  -7.617   4.085  0.00  0.00    +0.066 A 
ATOM     18  C   UNL     1      -1.459  -8.145   4.198  0.00  0.00    +0.072 A 
ATOM     19  S   UNL     1      -1.857  -7.696   5.883  0.00  0.00    -0.075 S 
ATOM     20  C   UNL     1      -0.322  -6.856   6.254  0.00  0.00    +0.115 A 
ATOM     21  N   UNL     1       0.331  -6.993   5.105  0.00  0.00    -0.242 NA
BRANCH  20  22
ATOM     22  C   UNL     1       0.104  -6.196   7.498  0.00  0.00    +0.044 A 
ATOM     23  C   UNL     1      -0.573  -6.068   8.684  0.00  0.00    +0.018 A 
ATOM     24  C   UNL     1       0.036  -5.400   9.723  0.00  0.00    +0.008 A 
ATOM     25  C   UNL     1       1.282  -4.889   9.543  0.00  0.00    +0.046 A 
ATOM     26  S   UNL     1       1.639  -5.359   7.858  0.00  0.00    -0.095 S 
ENDBRANCH  20  22
ENDBRANCH  16  17
ENDBRANCH   3  16
TORSDOF 4
