REMARK  Name = ZINC12921429
REMARK  6 active torsions:
REMARK  status: ('A' for Active; 'I' for Inactive)
REMARK    1  A    between atoms: C_1  and  N_41
REMARK    2  A    between atoms: C_2  and  C_3
REMARK    3  A    between atoms: C_2  and  N_41
REMARK    4  A    between atoms: C_10  and  C_11
REMARK    5  A    between atoms: C_10  and  N_41
REMARK    6  A    between atoms: C_13  and  N_21
REMARK                            x       y       z     vdW  Elec       q    Type
REMARK                         _______ _______ _______ _____ _____    ______ ____
ROOT
ATOM      1  C   UNL     1      -0.154   1.639  -0.336  0.00  0.00    -0.020 A 
ATOM      2  C   UNL     1       1.010   2.380  -0.403  0.00  0.00    +0.038 A 
ATOM      3  C   UNL     1       0.949   3.755  -0.532  0.00  0.00    +0.127 A 
ATOM      4  C   UNL     1      -0.277   4.391  -0.593  0.00  0.00    +0.042 A 
ATOM      5  C   UNL     1      -1.444   3.655  -0.525  0.00  0.00    +0.022 A 
ATOM      6  C   UNL     1      -1.385   2.275  -0.404  0.00  0.00    +0.130 A 
ATOM      7  O   UNL     1      -2.526   1.537  -0.348  0.00  0.00    -0.466 OA
ATOM      8  C   UNL     1      -3.737   2.240  -0.055  0.00  0.00    +0.394 C 
ATOM      9  O   UNL     1      -3.802   3.405  -0.886  0.00  0.00    -0.339 OA
ATOM     10  C   UNL     1      -2.776   4.360  -0.585  0.00  0.00    +0.202 C 
ENDROOT
BRANCH   3  11
ATOM     11  N   UNL     1       2.197   4.546  -0.605  0.00  0.00    +0.056 N 
ATOM     12  O   UNL     1       3.278   3.986  -0.552  0.00  0.00    -0.126 OA
ATOM     13  O   UNL     1       2.144   5.758  -0.719  0.00  0.00    -0.126 OA
ENDBRANCH   3  11
BRANCH   1  14
ATOM     14  C   UNL     1      -0.086   0.140  -0.196  0.00  0.00    -0.039 C 
BRANCH  14  16
ATOM     15  C   UNL     1       0.798  -0.170  -2.429  0.00  0.00    -0.095 C 
ATOM     16  N   UNL     1      -0.326  -0.474  -1.519  0.00  0.00    +0.383 N 
ATOM     17  H   UNL     1      -1.190  -0.085  -1.915  0.00  0.00    -0.081 HD
BRANCH  16  18
ATOM     18  C   UNL     1      -0.480  -1.937  -1.377  0.00  0.00    -0.042 C 
BRANCH  18  19
ATOM     19  C   UNL     1      -1.858  -2.228  -0.842  0.00  0.00    -0.050 A 
ATOM     20  C   UNL     1      -2.029  -2.553   0.491  0.00  0.00    +0.003 A 
ATOM     21  C   UNL     1      -3.293  -2.816   0.982  0.00  0.00    +0.000 A 
ATOM     22  C   UNL     1      -4.388  -2.764   0.139  0.00  0.00    +0.001 A 
ATOM     23  C   UNL     1      -4.218  -2.445  -1.195  0.00  0.00    +0.015 A 
ATOM     24  C   UNL     1      -2.953  -2.177  -1.687  0.00  0.00    +0.019 A 
ATOM     25 BR   UNL     1      -2.719  -1.741  -3.512  0.00  0.00    -0.050 Br
ENDBRANCH  18  19
ENDBRANCH  16  18
ENDBRANCH  14  16
ENDBRANCH   1  14
TORSDOF 5
