REMARK  Name = ZINC65386789
REMARK  3 active torsions:
REMARK  status: ('A' for Active; 'I' for Inactive)
REMARK    1  A    between atoms: C_9  and  C_10
REMARK    2  A    between atoms: C_10  and  C_11
REMARK    3  A    between atoms: C_18  and  C_24
REMARK                            x       y       z     vdW  Elec       q    Type
REMARK                         _______ _______ _______ _____ _____    ______ ____
ROOT
ATOM      1  C   UNL     1       5.410  -0.538  -1.468  0.00  0.00    +0.114 A 
ATOM      2  N   UNL     1       5.287  -1.519  -2.308  0.00  0.00    -0.227 NA
ATOM      3  C   UNL     1       5.864  -1.171  -3.498  0.00  0.00    +0.146 A 
ATOM      4  H   UNL     1       6.286   1.339  -1.678  0.00  0.00    +0.167 HD
ATOM      5  C   UNL     1       6.343   0.093  -3.354  0.00  0.00    +0.049 A 
ATOM      6  N   UNL     1       6.060   0.484  -2.078  0.00  0.00    -0.345 N 
ATOM      7  C   UNL     1       7.033   0.942  -4.373  0.00  0.00    +0.065 C 
ATOM      8  C   UNL     1       7.866   0.143  -5.340  0.00  0.00    +0.042 C 
ATOM      9  C   UNL     1       7.053  -0.624  -6.347  0.00  0.00    +0.113 C 
ATOM     10  N   UNL     1       6.456  -1.830  -5.838  0.00  0.00    -0.309 N 
ATOM     11  C   UNL     1       5.928  -2.057  -4.658  0.00  0.00    +0.264 C 
ATOM     12  O   UNL     1       5.425  -3.154  -4.509  0.00  0.00    -0.268 OA
ATOM     13  H   UNL     1       6.442  -2.580  -6.453  0.00  0.00    +0.149 HD
ENDROOT
BRANCH   8  14
ATOM     14  C   UNL     1       8.781   1.084  -6.080  0.00  0.00    -0.042 A 
ATOM     15  C   UNL     1       8.249   2.110  -6.839  0.00  0.00    +0.007 A 
ATOM     16  C   UNL     1       9.087   2.974  -7.518  0.00  0.00    +0.038 A 
ATOM     17  C   UNL     1      10.459   2.812  -7.438  0.00  0.00    +0.123 A 
ATOM     18  C   UNL     1      10.991   1.784  -6.678  0.00  0.00    +0.038 A 
ATOM     19  C   UNL     1      10.151   0.924  -5.996  0.00  0.00    +0.007 A 
ATOM     20  F   UNL     1      11.280   3.656  -8.102  0.00  0.00    -0.205 F 
ENDBRANCH   8  14
BRANCH   1  21
ATOM     21  C   UNL     1       4.906  -0.532  -0.048  0.00  0.00    +0.129 C 
BRANCH  21  30
ATOM     22  C   UNL     1      -0.016   1.356   0.009  0.00  0.00    +0.005 A 
ATOM     23  C   UNL     1       1.194   2.068   0.002  0.00  0.00    +0.018 A 
ATOM     24  C   UNL     1       2.372   1.409  -0.013  0.00  0.00    +0.093 A 
ATOM     25  N   UNL     1       2.405   0.045  -0.021  0.00  0.00    -0.303 N 
ATOM     26  C   UNL     1       1.240  -0.678  -0.013  0.00  0.00    +0.138 A 
ATOM     27  C   UNL     1       0.002  -0.004   0.002  0.00  0.00    +0.047 A 
ATOM     28  N   UNL     1       1.556  -1.965  -0.023  0.00  0.00    -0.236 NA
ATOM     29  C   UNL     1       2.885  -2.090  -0.037  0.00  0.00    +0.135 A 
ATOM     30  C   UNL     1       3.434  -0.856  -0.035  0.00  0.00    +0.050 A 
ENDBRANCH  21  30
ENDBRANCH   1  21
TORSDOF 3
