REMARK  Name = ZINC39421154
REMARK  4 active torsions:
REMARK  status: ('A' for Active; 'I' for Inactive)
REMARK    1  A    between atoms: N_11  and  C_22
REMARK    2  A    between atoms: C_12  and  C_16
REMARK    3  A    between atoms: C_22  and  C_23
REMARK    4  A    between atoms: C_28  and  C_29
REMARK                            x       y       z     vdW  Elec       q    Type
REMARK                         _______ _______ _______ _____ _____    ______ ____
ROOT
ATOM      1  C   UNL     1      -0.404   0.779   0.314  0.00  0.00    +0.000 A 
ATOM      2  C   UNL     1       0.709   1.583   0.487  0.00  0.00    +0.002 A 
ATOM      3  C   UNL     1       1.973   1.032   0.501  0.00  0.00    +0.028 A 
ATOM      4  C   UNL     1       2.139  -0.347   0.343  0.00  0.00    +0.068 A 
ATOM      5  C   UNL     1       1.001  -1.149   0.195  0.00  0.00    -0.013 A 
ATOM      6  C   UNL     1      -0.253  -0.590   0.168  0.00  0.00    +0.006 A 
ATOM      7  C   UNL     1       1.524  -2.558   0.132  0.00  0.00    +0.069 C 
ATOM      8  C   UNL     1       1.158  -3.260  -1.179  0.00  0.00    +0.029 C 
ATOM      9  C   UNL     1       2.041  -4.507  -1.313  0.00  0.00    +0.086 C 
ATOM     10  N   UNL     1       3.458  -4.152  -1.432  0.00  0.00    -0.288 NA
ATOM     11  C   UNL     1       3.973  -3.502  -0.209  0.00  0.00    +0.151 C 
ATOM     12  C   UNL     1       3.035  -2.357   0.116  0.00  0.00    +0.050 C 
ATOM     13  N   UNL     1       3.270  -1.119   0.283  0.00  0.00    -0.254 NA
ENDROOT
BRANCH  11  14
ATOM     14  C   UNL     1       3.979  -4.482   0.935  0.00  0.00    +0.064 A 
ATOM     15  C   UNL     1       5.183  -4.888   1.481  0.00  0.00    +0.025 A 
ATOM     16  C   UNL     1       5.178  -5.790   2.533  0.00  0.00    +0.003 A 
ATOM     17  C   UNL     1       3.956  -6.253   2.999  0.00  0.00    +0.020 A 
ATOM     18  C   UNL     1       2.794  -5.803   2.404  0.00  0.00    +0.111 A 
ATOM     19  N   UNL     1       2.837  -4.939   1.408  0.00  0.00    -0.258 NA
ENDBRANCH  11  14
BRANCH  10  20
ATOM     20  C   UNL     1       4.266  -5.327  -1.784  0.00  0.00    +0.100 C 
BRANCH  20  21
ATOM     21  C   UNL     1       5.637  -4.869  -2.287  0.00  0.00    +0.092 C 
ATOM     22  C   UNL     1       5.511  -4.184  -3.634  0.00  0.00    +0.118 C 
ATOM     23  N   UNL     1       6.204  -4.897  -4.460  0.00  0.00    -0.161 NA
ATOM     24  N   UNL     1       6.796  -5.996  -3.846  0.00  0.00    -0.158 NA
ATOM     25  C   UNL     1       6.524  -6.063  -2.580  0.00  0.00    +0.054 C 
BRANCH  25  26
ATOM     26  C   UNL     1       6.992  -7.109  -1.601  0.00  0.00    +0.036 C 
ATOM     27  C   UNL     1       7.903  -6.460  -0.558  0.00  0.00    +0.009 C 
ATOM     28  C   UNL     1       8.377  -7.522   0.436  0.00  0.00    +0.001 C 
ATOM     29  C   UNL     1       9.152  -8.610  -0.311  0.00  0.00    +0.000 C 
ATOM     30  C   UNL     1       8.240  -9.259  -1.354  0.00  0.00    +0.001 C 
ATOM     31  C   UNL     1       7.766  -8.197  -2.348  0.00  0.00    +0.009 C 
ENDBRANCH  25  26
ENDBRANCH  20  21
ENDBRANCH  10  20
TORSDOF 4
