REMARK  Name = ZINC28458767
REMARK  7 active torsions:
REMARK  status: ('A' for Active; 'I' for Inactive)
REMARK    1  A    between atoms: C_4  and  C_7
REMARK    2  A    between atoms: N_10  and  C_12
REMARK    3  A    between atoms: C_12  and  C_13
REMARK    4  A    between atoms: C_13  and  C_15
REMARK    5  A    between atoms: C_13  and  O_28
REMARK    6  A    between atoms: C_15  and  N_16
REMARK    7  A    between atoms: N_19  and  C_22
REMARK                            x       y       z     vdW  Elec       q    Type
REMARK                         _______ _______ _______ _____ _____    ______ ____
ROOT
ATOM      1  C   UNL     1       2.254   4.009   0.159  0.00  0.00    +0.094 A 
ATOM      2  C   UNL     1       1.264   3.053  -0.105  0.00  0.00    -0.016 A 
ATOM      3  C   UNL     1       0.141   3.710  -0.489  0.00  0.00    +0.039 A 
ATOM      4  N   UNL     1       0.400   5.027  -0.468  0.00  0.00    -0.265 N 
ATOM      5  N   UNL     1       1.731   5.200  -0.060  0.00  0.00    -0.171 NA
ATOM      6  C   UNL     1      -1.140   3.005  -0.864  0.00  0.00    +0.036 C 
ATOM      7  C   UNL     1      -0.807   1.527  -1.112  0.00  0.00    -0.076 C 
ATOM      8  N   UNL     1      -0.012   1.005   0.008  0.00  0.00    +0.382 N 
ATOM      9  C   UNL     1       1.356   1.551  -0.003  0.00  0.00    -0.043 C 
ATOM     10  H   UNL     1      -0.490   1.282   0.958  0.00  0.00    -0.085 HD
ATOM     11  H   UNL     1       0.050  -0.091  -0.066  0.00  0.00    -0.085 HD
ENDROOT
BRANCH   1  15
ATOM     12  C   UNL     1       6.231   3.213   1.438  0.00  0.00    +0.000 A 
ATOM     13  C   UNL     1       5.979   4.275   0.588  0.00  0.00    +0.001 A 
ATOM     14  C   UNL     1       4.691   4.538   0.170  0.00  0.00    +0.010 A 
ATOM     15  C   UNL     1       3.642   3.731   0.605  0.00  0.00    +0.002 A 
ATOM     16  C   UNL     1       3.900   2.665   1.465  0.00  0.00    +0.010 A 
ATOM     17  C   UNL     1       5.193   2.408   1.873  0.00  0.00    +0.001 A 
ENDBRANCH   1  15
BRANCH   4  18
ATOM     18  C   UNL     1      -0.542   6.095  -0.811  0.00  0.00    +0.176 C 
BRANCH  18  19
ATOM     19  C   UNL     1      -1.300   6.530   0.444  0.00  0.00    +0.150 C 
BRANCH  19  20
ATOM     20  O   UNL     1      -0.386   7.115   1.374  0.00  0.00    -0.389 OA
ATOM     21  H   UNL     1      -0.751   7.490   2.342  0.00  0.00    +0.210 HD
ENDBRANCH  19  20
BRANCH  19  22
ATOM     22  C   UNL     1      -2.369   7.556   0.065  0.00  0.00    +0.117 C 
BRANCH  22  23
ATOM     23  N   UNL     1      -3.098   7.973   1.270  0.00  0.00    -0.297 NA
ATOM     24  C   UNL     1      -3.872   6.857   1.831  0.00  0.00    +0.103 C 
ATOM     25  C   UNL     1      -4.550   7.310   3.126  0.00  0.00    +0.120 C 
ATOM     26  N   UNL     1      -5.419   8.461   2.844  0.00  0.00    -0.327 N 
ATOM     27  C   UNL     1      -4.645   9.577   2.284  0.00  0.00    +0.120 C 
ATOM     28  C   UNL     1      -3.966   9.125   0.989  0.00  0.00    +0.103 C 
BRANCH  26  29
ATOM     29  C   UNL     1      -6.112   8.858   3.991  0.00  0.00    +0.030 A 
ATOM     30  C   UNL     1      -6.002  10.163   4.453  0.00  0.00    +0.023 A 
ATOM     31  C   UNL     1      -6.692  10.553   5.584  0.00  0.00    +0.002 A 
ATOM     32  C   UNL     1      -7.482   9.644   6.262  0.00  0.00    +0.000 A 
ATOM     33  C   UNL     1      -7.589   8.342   5.808  0.00  0.00    +0.002 A 
ATOM     34  C   UNL     1      -6.907   7.947   4.674  0.00  0.00    +0.023 A 
ENDBRANCH  26  29
ENDBRANCH  22  23
ENDBRANCH  19  22
ENDBRANCH  18  19
ENDBRANCH   4  18
TORSDOF 7
