REMARK  Name = ZINC43741178
REMARK  9 active torsions:
REMARK  status: ('A' for Active; 'I' for Inactive)
REMARK    1  A    between atoms: C_1  and  C_2
REMARK    2  A    between atoms: C_19  and  C_21
REMARK    3  A    between atoms: C_21  and  N_22
REMARK    4  A    between atoms: N_22  and  C_23
REMARK    5  A    between atoms: C_23  and  C_25
REMARK    6  A    between atoms: C_23  and  C_32
REMARK    7  A    between atoms: C_25  and  C_26
REMARK    8  A    between atoms: C_37  and  C_39
REMARK    9  A    between atoms: C_37  and  C_40
REMARK                            x       y       z     vdW  Elec       q    Type
REMARK                         _______ _______ _______ _____ _____    ______ ____
ROOT
ATOM      1  N   UNL     1      -1.903  -3.523   4.437  0.00  0.00    +0.382 N 
ATOM      2  H   UNL     1      -2.680  -3.879   3.900  0.00  0.00    -0.085 HD
ATOM      3  H   UNL     1      -1.049  -3.956   4.120  0.00  0.00    -0.085 HD
ENDROOT
BRANCH   1   4
ATOM      4  C   UNL     1      -1.810  -2.068   4.257  0.00  0.00    -0.067 C 
BRANCH   4  20
ATOM      5  C   UNL     1      -0.019   1.526   0.010  0.00  0.00    +0.012 C 
ATOM      6  C   UNL     1       0.002  -0.004   0.002  0.00  0.00    -0.022 C 
ATOM      7  C   UNL     1       0.719  -0.500  -1.252  0.00  0.00    +0.007 C 
ATOM      8  C   UNL     1       2.124   0.103  -1.315  0.00  0.00    +0.005 C 
ATOM      9  C   UNL     1       2.947  -0.385  -0.119  0.00  0.00    +0.030 C 
ATOM     10  C   UNL     1       2.187  -0.074   1.153  0.00  0.00    -0.073 C 
ATOM     11  C   UNL     1       2.762   0.560   2.144  0.00  0.00    +0.008 C 
ATOM     12  C   UNL     1       0.744  -0.516   1.245  0.00  0.00    +0.021 C 
ATOM     13  C   UNL     1       0.093   0.123   2.471  0.00  0.00    +0.016 C 
ATOM     14  C   UNL     1      -1.368  -0.240   2.570  0.00  0.00    +0.042 C 
ATOM     15  C   UNL     1      -2.163   0.002   1.272  0.00  0.00    +0.181 C 
ATOM     16  C   UNL     1      -1.427  -0.535   0.053  0.00  0.00    +0.052 C 
ATOM     17  O   UNL     1      -3.312  -0.866   1.477  0.00  0.00    -0.461 OA
ATOM     18  C   UNL     1      -2.858  -2.029   1.992  0.00  0.00    +0.309 C 
ATOM     19  O   UNL     1      -3.372  -3.112   1.845  0.00  0.00    -0.251 OA
ATOM     20  C   UNL     1      -1.595  -1.750   2.775  0.00  0.00    +0.087 C 
ENDBRANCH   4  20
ENDBRANCH   1   4
BRANCH   1  21
ATOM     21  C   UNL     1      -2.110  -3.828   5.859  0.00  0.00    -0.064 C 
BRANCH  21  22
ATOM     22  C   UNL     1      -0.876  -3.399   6.657  0.00  0.00    -0.020 C 
ATOM     23  C   UNL     1       0.352  -4.161   6.149  0.00  0.00    +0.030 C 
ATOM     24  C   UNL     1       1.565  -3.784   7.004  0.00  0.00    +0.161 C 
ATOM     25  O   UNL     1       1.291  -4.082   8.374  0.00  0.00    -0.374 OA
ATOM     26  C   UNL     1       0.182  -3.363   8.917  0.00  0.00    +0.064 C 
ATOM     27  C   UNL     1      -1.088  -3.720   8.139  0.00  0.00    +0.036 C 
ATOM     28  C   UNL     1       0.001  -3.739  10.389  0.00  0.00    +0.041 C 
ATOM     29  C   UNL     1       0.442  -1.860   8.802  0.00  0.00    +0.041 C 
ENDBRANCH  21  22
BRANCH  21  30
ATOM     30  C   UNL     1      -2.331  -5.332   6.031  0.00  0.00    +0.019 C 
BRANCH  30  31
ATOM     31  C   UNL     1      -3.613  -5.732   5.347  0.00  0.00    -0.049 A 
ATOM     32  C   UNL     1      -4.806  -5.705   6.045  0.00  0.00    +0.003 A 
ATOM     33  C   UNL     1      -5.982  -6.072   5.418  0.00  0.00    +0.000 A 
ATOM     34  C   UNL     1      -5.965  -6.466   4.093  0.00  0.00    +0.000 A 
ATOM     35  C   UNL     1      -4.772  -6.492   3.395  0.00  0.00    +0.000 A 
ATOM     36  C   UNL     1      -3.597  -6.120   4.021  0.00  0.00    +0.003 A 
ENDBRANCH  30  31
ENDBRANCH  21  30
ENDBRANCH   1  21
TORSDOF 6
