REMARK  Name = ZINC35955528
REMARK  7 active torsions:
REMARK  status: ('A' for Active; 'I' for Inactive)
REMARK    1  A    between atoms: C_1  and  C_2
REMARK    2  A    between atoms: C_7  and  C_8
REMARK    3  A    between atoms: N_10  and  C_11
REMARK    4  A    between atoms: C_17  and  N_19
REMARK    5  A    between atoms: C_20  and  C_22
REMARK    6  A    between atoms: C_28  and  C_30
REMARK    7  A    between atoms: C_30  and  C_32
REMARK                            x       y       z     vdW  Elec       q    Type
REMARK                         _______ _______ _______ _____ _____    ______ ____
ROOT
ATOM      1  N   UNL     1      -1.082  -0.865   6.378  0.00  0.00    -0.310 N 
ATOM      2  C   UNL     1      -1.851  -1.378   7.358  0.00  0.00    +0.216 C 
ATOM      3  O   UNL     1      -1.442  -1.402   8.500  0.00  0.00    -0.276 OA
ATOM      4  H   UNL     1      -1.409  -0.845   5.465  0.00  0.00    +0.149 HD
ENDROOT
BRANCH   2   5
ATOM      5  C   UNL     1      -3.219  -1.922   7.036  0.00  0.00    +0.078 C 
ATOM      6  C   UNL     1      -4.081  -0.811   6.432  0.00  0.00    +0.032 C 
ATOM      7  C   UNL     1      -5.459  -1.376   6.074  0.00  0.00    +0.108 C 
ATOM      8  N   UNL     1      -6.037  -2.006   7.269  0.00  0.00    -0.300 N 
ATOM      9  C   UNL     1      -5.252  -3.024   7.981  0.00  0.00    +0.108 C 
ATOM     10  C   UNL     1      -3.877  -2.440   8.318  0.00  0.00    +0.032 C 
ATOM     11  C   UNL     1      -7.263  -1.655   7.705  0.00  0.00    +0.238 C 
ATOM     12  O   UNL     1      -7.688  -2.106   8.748  0.00  0.00    -0.274 OA
BRANCH  11  13
ATOM     13  C   UNL     1      -8.107  -0.704   6.897  0.00  0.00    +0.196 C 
ATOM     14 CL   UNL     1      -8.074   0.928   7.664  0.00  0.00    -0.107 Cl
BRANCH  13  15
ATOM     15  C   UNL     1      -9.526  -1.208   6.848  0.00  0.00    -0.021 A 
ATOM     16  C   UNL     1     -10.277  -1.272   8.006  0.00  0.00    +0.005 A 
ATOM     17  C   UNL     1     -11.579  -1.734   7.962  0.00  0.00    +0.000 A 
ATOM     18  C   UNL     1     -12.130  -2.132   6.758  0.00  0.00    +0.000 A 
ATOM     19  C   UNL     1     -11.379  -2.067   5.599  0.00  0.00    +0.000 A 
ATOM     20  C   UNL     1     -10.079  -1.601   5.643  0.00  0.00    +0.005 A 
ENDBRANCH  13  15
ENDBRANCH  11  13
ENDBRANCH   2   5
BRANCH   1  26
ATOM     21  C   UNL     1       0.644   0.702   5.638  0.00  0.00    +0.093 C 
ATOM     22  C   UNL     1       2.033   1.255   5.965  0.00  0.00    +0.024 C 
ATOM     23  C   UNL     1       3.050   0.112   5.964  0.00  0.00    +0.002 C 
ATOM     24  C   UNL     1       2.653  -0.926   7.016  0.00  0.00    +0.002 C 
ATOM     25  C   UNL     1       1.264  -1.478   6.689  0.00  0.00    +0.024 C 
ATOM     26  C   UNL     1       0.247  -0.335   6.691  0.00  0.00    +0.093 C 
BRANCH  21  29
ATOM     27  C   UNL     1       0.489   0.820   3.210  0.00  0.00    +0.245 C 
ATOM     28  O   UNL     1       0.308   2.018   3.309  0.00  0.00    -0.270 OA
ATOM     29  N   UNL     1       0.668   0.072   4.316  0.00  0.00    -0.307 N 
ATOM     30  H   UNL     1       0.813  -0.884   4.237  0.00  0.00    +0.149 HD
BRANCH  27  37
ATOM     31  C   UNL     1      -0.181   2.382   0.868  0.00  0.00    +0.044 C 
ATOM     32  C   UNL     1       0.192   0.928   0.739  0.00  0.00    -0.038 A 
ATOM     33  C   UNL     1       0.222   0.330  -0.504  0.00  0.00    +0.004 A 
ATOM     34  C   UNL     1       0.565  -1.005  -0.625  0.00  0.00    +0.000 A 
ATOM     35  C   UNL     1       0.879  -1.750   0.499  0.00  0.00    +0.001 A 
ATOM     36  C   UNL     1       0.853  -1.164   1.747  0.00  0.00    +0.013 A 
ATOM     37  C   UNL     1       0.513   0.184   1.875  0.00  0.00    +0.040 A 
ENDBRANCH  27  37
ENDBRANCH  21  29
ENDBRANCH   1  26
TORSDOF 6
