REMARK  Name = ZINC12376524
REMARK  11 active torsions:
REMARK  status: ('A' for Active; 'I' for Inactive)
REMARK    1  A    between atoms: C_4  and  C_7
REMARK    2  A    between atoms: C_7  and  O_8
REMARK    3  A    between atoms: O_8  and  C_9
REMARK    4  A    between atoms: C_10  and  C_17
REMARK    5  A    between atoms: C_18  and  C_19
REMARK    6  A    between atoms: C_18  and  C_21
REMARK    7  A    between atoms: C_22  and  C_30
REMARK    8  A    between atoms: C_23  and  N_29
REMARK    9  A    between atoms: N_24  and  C_26
REMARK   10  A    between atoms: C_26  and  C_27
REMARK   11  A    between atoms: C_27  and  O_28
REMARK                            x       y       z     vdW  Elec       q    Type
REMARK                         _______ _______ _______ _____ _____    ______ ____
ROOT
ATOM      1  C   UNL     1      -1.206   2.093   0.019  0.00  0.00    +0.032 C 
ATOM      2  C   UNL     1      -0.091   1.544  -0.539  0.00  0.00    +0.081 C 
ENDROOT
BRANCH   1   4
ATOM      3  C   UNL     1      -3.690   2.125  -0.155  0.00  0.00    +0.146 A 
ATOM      4  C   UNL     1      -2.493   1.394  -0.073  0.00  0.00    +0.021 A 
ATOM      5  C   UNL     1      -2.536  -0.005  -0.075  0.00  0.00    +0.031 A 
ATOM      6  C   UNL     1      -3.749  -0.655  -0.162  0.00  0.00    +0.043 A 
ATOM      7  C   UNL     1      -4.927   0.071  -0.249  0.00  0.00    +0.043 A 
ATOM      8  C   UNL     1      -4.899   1.454  -0.247  0.00  0.00    +0.085 A 
ATOM      9 CL   UNL     1      -6.381   2.351  -0.356  0.00  0.00    -0.080 Cl
ATOM     10 CL   UNL     1      -3.802  -2.390  -0.164  0.00  0.00    -0.083 Cl
BRANCH   3  11
ATOM     11  O   UNL     1      -3.662   3.482  -0.148  0.00  0.00    -0.485 OA
BRANCH  11  12
ATOM     12  C   UNL     1      -3.559   4.136  -1.415  0.00  0.00    +0.264 C 
BRANCH  12  16
ATOM     13  C   UNL     1      -3.511   8.367  -0.835  0.00  0.00    +0.000 A 
ATOM     14  C   UNL     1      -2.325   7.658  -0.845  0.00  0.00    +0.000 A 
ATOM     15  C   UNL     1      -2.341   6.288  -1.032  0.00  0.00    +0.007 A 
ATOM     16  C   UNL     1      -3.542   5.628  -1.210  0.00  0.00    -0.010 A 
ATOM     17  C   UNL     1      -4.728   6.339  -1.206  0.00  0.00    +0.007 A 
ATOM     18  C   UNL     1      -4.713   7.708  -1.013  0.00  0.00    +0.000 A 
ENDBRANCH  12  16
ENDBRANCH  11  12
ENDBRANCH   3  11
ENDBRANCH   1   4
BRANCH   2  19
ATOM     19  C   UNL     1       1.230   2.173  -0.323  0.00  0.00    +0.122 A 
ATOM     20  C   UNL     1       2.516   1.707  -0.858  0.00  0.00    +0.119 A 
ATOM     21  C   UNL     1       3.476   2.603  -0.399  0.00  0.00    +0.133 A 
ATOM     22  N   UNL     1       2.844   3.531   0.348  0.00  0.00    -0.247 N 
ATOM     23  N   UNL     1       1.474   3.256   0.379  0.00  0.00    -0.167 NA
BRANCH  21  24
ATOM     24  N   UNL     1       4.832   2.551  -0.660  0.00  0.00    -0.342 N 
ATOM     25  H   UNL     1       5.192   1.840  -1.212  0.00  0.00    +0.144 HD
ATOM     26  H   UNL     1       5.423   3.226  -0.291  0.00  0.00    +0.144 HD
ENDBRANCH  21  24
BRANCH  20  27
ATOM     27  C   UNL     1       2.737   0.560  -1.687  0.00  0.00    +0.105 C 
ATOM     28  N   UNL     1       2.912  -0.349  -2.345  0.00  0.00    -0.191 NA
ENDBRANCH  20  27
BRANCH  22  29
ATOM     29  C   UNL     1       3.494   4.659   1.020  0.00  0.00    +0.173 C 
BRANCH  29  30
ATOM     30  C   UNL     1       3.524   5.864   0.078  0.00  0.00    +0.179 C 
BRANCH  30  31
ATOM     31  O   UNL     1       4.158   6.965   0.733  0.00  0.00    -0.393 OA
ATOM     32  H   UNL     1       4.213   7.766   0.193  0.00  0.00    +0.209 HD
ENDBRANCH  30  31
ENDBRANCH  29  30
ENDBRANCH  22  29
ENDBRANCH   2  19
BRANCH   2  33
ATOM     33  C   UNL     1      -0.200   0.361  -1.339  0.00  0.00    +0.101 C 
ATOM     34  N   UNL     1      -0.285  -0.577  -1.974  0.00  0.00    -0.191 NA
ENDBRANCH   2  33
TORSDOF 11
