REMARK  Name = ZINC55226693
REMARK  9 active torsions:
REMARK  status: ('A' for Active; 'I' for Inactive)
REMARK    1  A    between atoms: C_1  and  O_2
REMARK    2  A    between atoms: O_2  and  C_3
REMARK    3  A    between atoms: C_6  and  S_9
REMARK    4  A    between atoms: S_9  and  C_10
REMARK    5  A    between atoms: C_13  and  C_27
REMARK    6  A    between atoms: N_15  and  C_17
REMARK    7  A    between atoms: C_17  and  C_18
REMARK    8  A    between atoms: C_19  and  C_20
REMARK    9  A    between atoms: N_29  and  C_30
REMARK                            x       y       z     vdW  Elec       q    Type
REMARK                         _______ _______ _______ _____ _____    ______ ____
ROOT
ATOM      1  C   UNL     1      -5.069  -4.158   0.258  0.00  0.00    +0.067 C 
ATOM      2  C   UNL     1      -6.240  -5.169   0.142  0.00  0.00    +0.044 C 
ATOM      3  C   UNL     1      -5.610  -6.490   0.631  0.00  0.00    +0.144 C 
ATOM      4  N   UNL     1      -4.447  -6.136   1.465  0.00  0.00    -0.285 NA
ATOM      5  C   UNL     1      -4.345  -4.662   1.532  0.00  0.00    +0.100 C 
ENDROOT
BRANCH   3   6
ATOM      6  C   UNL     1      -5.167  -7.314  -0.550  0.00  0.00    +0.231 C 
ATOM      7  O   UNL     1      -3.996  -7.598  -0.686  0.00  0.00    -0.274 OA
ATOM      8  N   UNL     1      -6.072  -7.736  -1.455  0.00  0.00    -0.310 N 
ATOM      9  H   UNL     1      -7.009  -7.509  -1.347  0.00  0.00    +0.149 HD
BRANCH   8  10
ATOM     10  C   UNL     1      -5.641  -8.538  -2.603  0.00  0.00    +0.095 C 
ATOM     11  C   UNL     1      -5.197  -7.611  -3.747  0.00  0.00    +0.046 C 
ATOM     12  C   UNL     1      -5.048  -8.422  -5.056  0.00  0.00    +0.168 C 
ATOM     13  S   UNL     1      -6.249  -9.795  -4.820  0.00  0.00    -0.029 S 
ATOM     14  O   UNL     1      -5.543 -11.028  -4.797  0.00  0.00    -0.174 OA
ATOM     15  O   UNL     1      -7.331  -9.625  -5.726  0.00  0.00    -0.174 OA
ATOM     16  C   UNL     1      -6.827  -9.404  -3.115  0.00  0.00    +0.188 C 
ENDBRANCH   8  10
ENDBRANCH   3   6
BRANCH   1  17
ATOM     17  S   UNL     1      -5.688  -2.469   0.488  0.00  0.00    -0.120 S 
BRANCH  17  21
ATOM     18  C   UNL     1      -1.934   0.065   0.626  0.00  0.00    +0.120 A 
ATOM     19  C   UNL     1      -3.179   0.663   0.752  0.00  0.00    +0.047 A 
ATOM     20  C   UNL     1      -4.324  -0.108   0.710  0.00  0.00    +0.018 A 
ATOM     21  C   UNL     1      -4.228  -1.484   0.541  0.00  0.00    +0.008 A 
ATOM     22  C   UNL     1      -2.981  -2.082   0.414  0.00  0.00    +0.018 A 
ATOM     23  C   UNL     1      -1.838  -1.308   0.452  0.00  0.00    +0.047 A 
BRANCH  18  25
ATOM     24  C   UNL     1      -0.980   2.232   0.850  0.00  0.00    +0.277 C 
ATOM     25  O   UNL     1      -0.807   0.825   0.668  0.00  0.00    -0.495 OA
ENDBRANCH  18  25
ENDBRANCH  17  21
ENDBRANCH   1  17
BRANCH   4  26
ATOM     26  C   UNL     1      -4.567  -6.717   2.809  0.00  0.00    +0.132 C 
BRANCH  26  27
ATOM     27  C   UNL     1      -3.265  -6.547   3.548  0.00  0.00    +0.033 C 
ATOM     28  C   UNL     1      -3.211  -5.777   4.628  0.00  0.00    +0.024 C 
ATOM     29 CL   UNL     1      -1.836  -7.358   2.987  0.00  0.00    -0.087 Cl
BRANCH  28  30
ATOM     30  C   UNL     1      -1.980  -5.737   5.445  0.00  0.00    -0.024 A 
ATOM     31  C   UNL     1      -1.610  -4.560   6.098  0.00  0.00    +0.008 A 
ATOM     32  C   UNL     1      -0.460  -4.529   6.859  0.00  0.00    +0.001 A 
ATOM     33  C   UNL     1       0.325  -5.662   6.978  0.00  0.00    +0.000 A 
ATOM     34  C   UNL     1      -0.036  -6.832   6.333  0.00  0.00    +0.001 A 
ATOM     35  C   UNL     1      -1.186  -6.878   5.573  0.00  0.00    +0.008 A 
ENDBRANCH  28  30
ENDBRANCH  26  27
ENDBRANCH   4  26
TORSDOF 8
