REMARK  Name = ZINC01035535
REMARK  8 active torsions:
REMARK  status: ('A' for Active; 'I' for Inactive)
REMARK    1  A    between atoms: C_1  and  C_2
REMARK    2  A    between atoms: C_2  and  O_3
REMARK    3  A    between atoms: O_3  and  C_4
REMARK    4  A    between atoms: C_4  and  C_6
REMARK    5  A    between atoms: C_7  and  C_21
REMARK    6  A    between atoms: N_9  and  C_12
REMARK    7  A    between atoms: C_10  and  N_11
REMARK    8  A    between atoms: C_15  and  N_18
REMARK                            x       y       z     vdW  Elec       q    Type
REMARK                         _______ _______ _______ _____ _____    ______ ____
ROOT
ATOM      1  C   UNL     1      -1.248  -2.095   0.003  0.00  0.00    +0.126 A 
ATOM      2  C   UNL     1      -1.294  -2.971  -1.177  0.00  0.00    +0.116 A 
ATOM      3  N   UNL     1      -1.337  -4.209  -0.738  0.00  0.00    -0.163 NA
ATOM      4  N   UNL     1      -1.323  -4.208   0.659  0.00  0.00    -0.218 N 
ATOM      5  C   UNL     1      -1.264  -2.937   1.112  0.00  0.00    +0.135 A 
ENDROOT
BRANCH   4   6
ATOM      6  C   UNL     1      -1.359  -5.351   1.467  0.00  0.00    +0.068 A 
ATOM      7  C   UNL     1      -0.653  -5.381   2.662  0.00  0.00    +0.030 A 
ATOM      8  C   UNL     1      -0.695  -6.508   3.459  0.00  0.00    +0.035 A 
ATOM      9  C   UNL     1      -1.430  -7.610   3.063  0.00  0.00    +0.126 A 
ATOM     10  C   UNL     1      -2.129  -7.586   1.870  0.00  0.00    +0.035 A 
ATOM     11  C   UNL     1      -2.095  -6.460   1.071  0.00  0.00    +0.030 A 
BRANCH   9  12
ATOM     12  N   UNL     1      -1.468  -8.819   3.917  0.00  0.00    +0.056 N 
ATOM     13  O   UNL     1      -2.115  -9.791   3.569  0.00  0.00    -0.126 OA
ATOM     14  O   UNL     1      -0.853  -8.842   4.968  0.00  0.00    -0.126 OA
ENDBRANCH   9  12
ENDBRANCH   4   6
BRANCH   2  15
ATOM     15  C   UNL     1      -1.291  -2.540  -2.589  0.00  0.00    +0.040 A 
ATOM     16  C   UNL     1      -0.714  -3.145  -3.675  0.00  0.00    +0.018 A 
ATOM     17  C   UNL     1      -0.846  -2.551  -4.911  0.00  0.00    +0.008 A 
ATOM     18  C   UNL     1      -1.540  -1.389  -5.016  0.00  0.00    +0.046 A 
ATOM     19  S   UNL     1      -2.045  -1.101  -3.328  0.00  0.00    -0.095 S 
ENDBRANCH   2  15
BRANCH   5  20
ATOM     20  N   UNL     1      -1.228  -2.545   2.434  0.00  0.00    -0.342 N 
ATOM     21  H   UNL     1      -1.188  -1.602   2.659  0.00  0.00    +0.144 HD
ATOM     22  H   UNL     1      -1.243  -3.211   3.139  0.00  0.00    +0.144 HD
ENDBRANCH   5  20
BRANCH   1  23
ATOM     23  C   UNL     1      -1.191  -0.633   0.010  0.00  0.00    +0.345 C 
ATOM     24  O   UNL     1      -2.220   0.016   0.023  0.00  0.00    -0.245 OA
BRANCH  23  25
ATOM     25  O   UNL     1       0.002  -0.004   0.002  0.00  0.00    -0.461 OA
BRANCH  25  27
ATOM     26  C   UNL     1       1.418   1.977  -0.001  0.00  0.00    +0.048 C 
ATOM     27  C   UNL     1      -0.018   1.448   0.010  0.00  0.00    +0.229 C 
ENDBRANCH  25  27
ENDBRANCH  23  25
ENDBRANCH   1  23
TORSDOF 7
