REMARK  Name = ZINC40758984
REMARK  8 active torsions:
REMARK  status: ('A' for Active; 'I' for Inactive)
REMARK    1  A    between atoms: C_1  and  C_2
REMARK    2  A    between atoms: C_2  and  C_3
REMARK    3  A    between atoms: C_2  and  C_4
REMARK    4  A    between atoms: C_2  and  N_5
REMARK    5  A    between atoms: N_5  and  N_6
REMARK    6  A    between atoms: C_8  and  N_24
REMARK    7  A    between atoms: C_9  and  N_13
REMARK    8  A    between atoms: N_13  and  C_14
REMARK                            x       y       z     vdW  Elec       q    Type
REMARK                         _______ _______ _______ _____ _____    ______ ____
ROOT
ATOM      1  N   UNL     1       1.784   0.659  -1.703  0.00  0.00    -0.263 N 
ATOM      2  C   UNL     1       2.662   0.125  -2.639  0.00  0.00    +0.158 A 
ATOM      3  C   UNL     1       4.022   0.438  -2.595  0.00  0.00    +0.107 A 
ATOM      4  C   UNL     1       4.859  -0.127  -3.559  0.00  0.00    +0.149 A 
ATOM      5  N   UNL     1       4.333  -0.935  -4.476  0.00  0.00    -0.219 NA
ATOM      6  C   UNL     1       3.044  -1.205  -4.482  0.00  0.00    +0.225 A 
ATOM      7  N   UNL     1       2.220  -0.698  -3.587  0.00  0.00    -0.218 NA
ATOM      8  H   UNL     1       2.115   1.258  -1.015  0.00  0.00    +0.168 HD
ENDROOT
BRANCH   3   9
ATOM      9  N   UNL     1       4.533   1.296  -1.609  0.00  0.00    -0.353 N 
ATOM     10  H   UNL     1       3.939   1.681  -0.945  0.00  0.00    +0.143 HD
ATOM     11  H   UNL     1       5.481   1.505  -1.591  0.00  0.00    +0.143 HD
ENDBRANCH   3   9
BRANCH   1  12
ATOM     12  N   UNL     1       0.457   0.341  -1.752  0.00  0.00    -0.236 NA
ATOM     13  H   UNL     1       0.322  -0.658  -1.715  0.00  0.00    +0.145 HD
BRANCH  12  15
ATOM     14  C   UNL     1      -0.138   2.528  -0.823  0.00  0.00    +0.029 C 
ATOM     15  C   UNL     1      -0.285   1.012  -0.676  0.00  0.00    +0.028 C 
ATOM     16  C   UNL     1       0.274   0.574   0.679  0.00  0.00    +0.029 C 
ATOM     17  C   UNL     1      -1.765   0.633  -0.764  0.00  0.00    +0.029 C 
ENDBRANCH  12  15
ENDBRANCH   1  12
BRANCH   4  18
ATOM     18  N   UNL     1       6.222   0.152  -3.561  0.00  0.00    -0.297 N 
ATOM     19  H   UNL     1       6.613   0.666  -2.837  0.00  0.00    +0.154 HD
BRANCH  18  20
ATOM     20  C   UNL     1       7.025  -0.306  -4.603  0.00  0.00    +0.040 A 
ATOM     21  C   UNL     1       6.482  -0.539  -5.850  0.00  0.00    +0.024 A 
ATOM     22  C   UNL     1       7.276  -0.997  -6.897  0.00  0.00    +0.002 A 
ATOM     23  C   UNL     1       8.607  -1.228  -6.722  0.00  0.00    +0.008 A 
ATOM     24  C   UNL     1       9.199  -1.003  -5.467  0.00  0.00    -0.016 A 
ATOM     25  C   UNL     1       8.403  -0.532  -4.395  0.00  0.00    +0.003 A 
ATOM     26  C   UNL     1       8.997  -0.303  -3.144  0.00  0.00    +0.010 A 
ATOM     27  C   UNL     1      10.329  -0.531  -2.979  0.00  0.00    +0.001 A 
ATOM     28  C   UNL     1      11.114  -0.989  -4.035  0.00  0.00    +0.001 A 
ATOM     29  C   UNL     1      10.570  -1.234  -5.258  0.00  0.00    +0.008 A 
ENDBRANCH  18  20
ENDBRANCH   4  18
TORSDOF 5
