REMARK  Name = ZINC62957642
REMARK  10 active torsions:
REMARK  status: ('A' for Active; 'I' for Inactive)
REMARK    1  A    between atoms: C_1  and  C_2
REMARK    2  A    between atoms: C_2  and  N_3
REMARK    3  A    between atoms: N_3  and  C_4
REMARK    4  A    between atoms: N_3  and  C_6
REMARK    5  A    between atoms: C_4  and  C_5
REMARK    6  A    between atoms: C_9  and  C_12
REMARK    7  A    between atoms: C_19  and  O_32
REMARK    8  A    between atoms: C_20  and  C_23
REMARK    9  A    between atoms: C_23  and  N_24
REMARK   10  A    between atoms: C_28  and  C_31
REMARK                            x       y       z     vdW  Elec       q    Type
REMARK                         _______ _______ _______ _____ _____    ______ ____
ROOT
ATOM      1  C   UNL     1       0.366  -6.101  -1.471  0.00  0.00    +0.058 C 
ATOM      2  C   UNL     1      -0.321  -6.694  -2.479  0.00  0.00    +0.176 C 
ATOM      3  C   UNL     1      -0.938  -6.013  -3.629  0.00  0.00    +0.231 C 
ATOM      4  O   UNL     1      -0.943  -4.820  -3.876  0.00  0.00    -0.283 OA
ATOM      5  C   UNL     1      -1.550  -7.100  -4.416  0.00  0.00    +0.068 A 
ATOM      6  C   UNL     1      -2.278  -7.123  -5.606  0.00  0.00    +0.019 A 
ATOM      7  C   UNL     1      -2.728  -8.312  -6.106  0.00  0.00    +0.046 A 
ATOM      8  C   UNL     1      -2.462  -9.500  -5.430  0.00  0.00    +0.122 A 
ATOM      9  C   UNL     1      -1.740  -9.492  -4.248  0.00  0.00    +0.020 A 
ATOM     10  C   UNL     1      -1.275  -8.291  -3.726  0.00  0.00    +0.144 A 
ATOM     11  O   UNL     1      -0.558  -8.019  -2.614  0.00  0.00    -0.451 OA
ENDROOT
BRANCH   1  15
ATOM     12  C   UNL     1       0.433  -1.873  -1.152  0.00  0.00    +0.013 A 
ATOM     13  C   UNL     1       1.579  -2.601  -0.887  0.00  0.00    +0.022 A 
ATOM     14  C   UNL     1       1.566  -3.976  -0.989  0.00  0.00    +0.010 A 
ATOM     15  C   UNL     1       0.389  -4.635  -1.360  0.00  0.00    -0.021 A 
ATOM     16  C   UNL     1      -0.766  -3.891  -1.626  0.00  0.00    +0.010 A 
ATOM     17  C   UNL     1      -0.737  -2.517  -1.515  0.00  0.00    +0.022 A 
BRANCH  12  18
ATOM     18  N   UNL     1       0.455  -0.479  -1.047  0.00  0.00    -0.394 NA
ATOM     19  H   UNL     1      -0.458  -0.111  -1.268  0.00  0.00    +0.126 HD
BRANCH  18  21
ATOM     20  C   UNL     1       0.721   1.423   0.473  0.00  0.00    +0.022 C 
ATOM     21  C   UNL     1       0.818  -0.097   0.325  0.00  0.00    +0.081 C 
ENDBRANCH  18  21
BRANCH  18  22
ATOM     22  C   UNL     1       1.444   0.067  -1.985  0.00  0.00    +0.081 C 
ATOM     23  C   UNL     1       1.000  -0.223  -3.421  0.00  0.00    +0.022 C 
ENDBRANCH  18  22
ENDBRANCH  12  18
ENDBRANCH   1  15
BRANCH   8  24
ATOM     24  O   UNL     1      -2.914 -10.676  -5.935  0.00  0.00    -0.506 OA
ATOM     25  H   UNL     1      -2.295 -11.109  -6.538  0.00  0.00    +0.292 HD
ENDBRANCH   8  24
BRANCH   9  26
ATOM     26  C   UNL     1      -1.460 -10.786  -3.527  0.00  0.00    -0.036 C 
BRANCH  26  27
ATOM     27  N   UNL     1      -0.193 -11.350  -4.010  0.00  0.00    +0.383 N 
ATOM     28  C   UNL     1       0.910 -10.450  -3.653  0.00  0.00    -0.078 C 
ATOM     29  C   UNL     1       2.222 -10.993  -4.223  0.00  0.00    -0.018 C 
ATOM     30  C   UNL     1       2.488 -12.384  -3.642  0.00  0.00    -0.001 C 
ATOM     31  C   UNL     1       1.298 -13.295  -3.958  0.00  0.00    -0.031 C 
ATOM     32  C   UNL     1       0.020 -12.667  -3.397  0.00  0.00    -0.075 C 
ATOM     33  C   UNL     1       1.519 -14.666  -3.316  0.00  0.00    +0.005 C 
ATOM     34  H   UNL     1      -0.231 -11.450  -5.014  0.00  0.00    -0.081 HD
ENDBRANCH  26  27
ENDBRANCH   9  26
TORSDOF 7
