REMARK  Name = ZINC33959504
REMARK  16 active torsions:
REMARK  status: ('A' for Active; 'I' for Inactive)
REMARK    1  A    between atoms: C_1  and  C_2
REMARK    2  A    between atoms: C_2  and  N_3
REMARK    3  A    between atoms: N_3  and  C_4
REMARK    4  A    between atoms: N_3  and  C_6
REMARK    5  A    between atoms: C_4  and  C_5
REMARK    6  A    between atoms: C_6  and  C_8
REMARK    7  A    between atoms: C_6  and  C_21
REMARK    8  A    between atoms: C_8  and  C_9
REMARK    9  A    between atoms: C_9  and  C_10
REMARK   10  A    between atoms: C_10  and  C_11
REMARK   11  A    between atoms: C_11  and  N_12
REMARK   12  A    between atoms: C_13  and  C_15
REMARK   13  A    between atoms: N_23  and  N_24
REMARK   14  A    between atoms: C_25  and  C_26
REMARK   15  A    between atoms: C_29  and  C_31
REMARK   16  A    between atoms: C_35  and  N_37
REMARK                            x       y       z     vdW  Elec       q    Type
REMARK                         _______ _______ _______ _____ _____    ______ ____
ROOT
ATOM      1  C   UNL     1      -2.237  -0.226   1.210  0.00  0.00    +0.021 C 
ENDROOT
BRANCH   1   2
ATOM      2  C   UNL     1      -2.339   1.264   1.411  0.00  0.00    +0.219 C 
ATOM      3  O   UNL     1      -2.167   2.012   0.478  0.00  0.00    -0.276 OA
ATOM      4  N   UNL     1      -2.622   1.761   2.631  0.00  0.00    -0.208 N 
ATOM      5  H   UNL     1      -2.760   1.161   3.380  0.00  0.00    +0.177 HD
BRANCH   4   6
ATOM      6  N   UNL     1      -2.709   3.037   2.803  0.00  0.00    -0.185 NA
ATOM      7  C   UNL     1      -2.987   3.527   4.005  0.00  0.00    +0.176 C 
BRANCH   7   8
ATOM      8  C   UNL     1      -3.081   4.900   4.190  0.00  0.00    +0.148 A 
ATOM      9  C   UNL     1      -3.375   5.591   5.455  0.00  0.00    +0.051 A 
ATOM     10  C   UNL     1      -3.368   6.919   5.175  0.00  0.00    +0.050 A 
ATOM     11  C   UNL     1      -3.083   7.063   3.794  0.00  0.00    +0.136 A 
ATOM     12  O   UNL     1      -2.913   5.849   3.243  0.00  0.00    -0.454 OA
BRANCH  11  13
ATOM     13  C   UNL     1      -2.986   8.296   3.103  0.00  0.00    +0.019 A 
ATOM     14  C   UNL     1      -3.174   9.511   3.789  0.00  0.00    +0.012 A 
ATOM     15  C   UNL     1      -3.078  10.694   3.113  0.00  0.00    +0.003 A 
ATOM     16  C   UNL     1      -2.797  10.701   1.754  0.00  0.00    +0.033 A 
ATOM     17  C   UNL     1      -2.611   9.511   1.067  0.00  0.00    +0.127 A 
ATOM     18  C   UNL     1      -2.696   8.316   1.725  0.00  0.00    +0.044 A 
BRANCH  17  19
ATOM     19  N   UNL     1      -2.312   9.534  -0.382  0.00  0.00    +0.056 N 
ATOM     20  O   UNL     1      -2.224  10.685  -1.017  0.00  0.00    -0.126 OA
ATOM     21  O   UNL     1      -2.135   8.405  -1.037  0.00  0.00    -0.126 OA
ENDBRANCH  17  19
ENDBRANCH  11  13
ENDBRANCH   7   8
ENDBRANCH   4   6
ENDBRANCH   1   2
BRANCH   1  22
ATOM     22  N   UNL     1      -0.862  -0.577   0.834  0.00  0.00    +0.387 N 
ATOM     23  H   UNL     1      -0.859  -1.469   0.362  0.00  0.00    -0.081 HD
BRANCH  22  25
ATOM     24  C   UNL     1      -1.192   0.540  -1.321  0.00  0.00    -0.017 C 
ATOM     25  C   UNL     1      -0.322   0.453  -0.065  0.00  0.00    -0.081 C 
ENDBRANCH  22  25
BRANCH  22  26
ATOM     26  C   UNL     1      -0.029  -0.658   2.041  0.00  0.00    -0.081 C 
ATOM     27  C   UNL     1      -0.497  -1.832   2.905  0.00  0.00    -0.017 C 
ENDBRANCH  22  26
ENDBRANCH   1  22
BRANCH   1  28
ATOM     28  C   UNL     1      -3.196  -0.658   0.098  0.00  0.00    -0.006 C 
BRANCH  28  29
ATOM     29  C   UNL     1      -3.231  -2.185   0.019  0.00  0.00    +0.000 C 
BRANCH  29  30
ATOM     30  C   UNL     1      -4.131  -2.615  -1.141  0.00  0.00    +0.019 C 
BRANCH  30  31
ATOM     31  C   UNL     1      -4.165  -4.143  -1.221  0.00  0.00    +0.104 C 
BRANCH  31  32
ATOM     32  N   UNL     1      -5.027  -4.554  -2.332  0.00  0.00    -0.311 N 
ATOM     33  C   UNL     1      -5.209  -5.864  -2.594  0.00  0.00    +0.244 C 
ATOM     34  O   UNL     1      -4.658  -6.703  -1.909  0.00  0.00    -0.270 OA
ATOM     35  H   UNL     1      -5.467  -3.885  -2.879  0.00  0.00    +0.149 HD
BRANCH  33  36
ATOM     36  C   UNL     1      -6.078  -6.279  -3.716  0.00  0.00    +0.037 A 
ATOM     37  C   UNL     1      -6.708  -5.318  -4.508  0.00  0.00    +0.013 A 
ATOM     38  C   UNL     1      -7.518  -5.712  -5.553  0.00  0.00    +0.001 A 
ATOM     39  C   UNL     1      -7.707  -7.058  -5.816  0.00  0.00    +0.000 A 
ATOM     40  C   UNL     1      -7.086  -8.016  -5.034  0.00  0.00    +0.001 A 
ATOM     41  C   UNL     1      -6.269  -7.635  -3.990  0.00  0.00    +0.013 A 
ENDBRANCH  33  36
ENDBRANCH  31  32
ENDBRANCH  30  31
ENDBRANCH  29  30
ENDBRANCH  28  29
ENDBRANCH   1  28
TORSDOF 14
