REMARK  Name = ZINC00999635
REMARK  5 active torsions:
REMARK  status: ('A' for Active; 'I' for Inactive)
REMARK    1  A    between atoms: C_4  and  C_7
REMARK    2  A    between atoms: C_10  and  C_33
REMARK    3  A    between atoms: C_15  and  C_17
REMARK    4  A    between atoms: N_19  and  C_20
REMARK    5  A    between atoms: C_21  and  C_29
REMARK                            x       y       z     vdW  Elec       q    Type
REMARK                         _______ _______ _______ _____ _____    ______ ____
ROOT
ATOM      1  C   UNL     1       3.711  -0.707  -0.038  0.00  0.00    +0.104 C 
ATOM      2  C   UNL     1       4.048  -1.192   1.377  0.00  0.00    +0.063 C 
ATOM      3  C   UNL     1       5.418  -1.882   1.379  0.00  0.00    +0.215 C 
ATOM      4  N   UNL     1       5.454  -2.870   0.297  0.00  0.00    -0.238 N 
ATOM      5  C   UNL     1       4.601  -2.856  -0.770  0.00  0.00    +0.119 A 
ATOM      6  C   UNL     1       4.907  -3.900  -1.565  0.00  0.00    +0.078 A 
ATOM      7  C   UNL     1       5.991  -4.585  -0.972  0.00  0.00    +0.149 A 
ATOM      8  N   UNL     1       6.312  -3.958   0.147  0.00  0.00    -0.164 NA
ATOM      9  N   UNL     1       3.612  -1.879  -0.929  0.00  0.00    -0.322 N 
ATOM     10  H   UNL     1       2.901  -1.968  -1.584  0.00  0.00    +0.148 HD
ENDROOT
BRANCH   1  14
ATOM     11  C   UNL     1      -0.017   1.378   0.010  0.00  0.00    +0.000 A 
ATOM     12  C   UNL     1       1.171   2.086   0.002  0.00  0.00    +0.000 A 
ATOM     13  C   UNL     1       2.377   1.411  -0.013  0.00  0.00    +0.005 A 
ATOM     14  C   UNL     1       2.396   0.029  -0.020  0.00  0.00    -0.027 A 
ATOM     15  C   UNL     1       1.208  -0.679  -0.012  0.00  0.00    +0.005 A 
ATOM     16  C   UNL     1       0.002  -0.004   0.002  0.00  0.00    +0.000 A 
ENDBRANCH   1  14
BRANCH   7  17
ATOM     17  C   UNL     1       6.651  -5.793  -1.508  0.00  0.00    +0.269 C 
ATOM     18  O   UNL     1       6.267  -6.283  -2.552  0.00  0.00    -0.268 OA
ATOM     19  N   UNL     1       7.680  -6.351  -0.840  0.00  0.00    -0.274 N 
ATOM     20  H   UNL     1       7.987  -5.960  -0.007  0.00  0.00    +0.156 HD
BRANCH  19  21
ATOM     21  C   UNL     1       8.299  -7.484  -1.343  0.00  0.00    +0.085 A 
ATOM     22  C   UNL     1       9.358  -8.191  -0.794  0.00  0.00    +0.068 A 
ATOM     23  C   UNL     1       9.828  -9.355  -1.525  0.00  0.00    -0.023 A 
ATOM     24  C   UNL     1       9.153  -9.599  -2.669  0.00  0.00    -0.004 A 
ATOM     25  S   UNL     1       7.935  -8.320  -2.753  0.00  0.00    -0.077 S 
ATOM     26  C   UNL     1       9.398 -10.715  -3.637  0.00  0.00    +0.043 C 
ATOM     27  C   UNL     1      10.773 -11.326  -3.331  0.00  0.00    +0.005 C 
ATOM     28  C   UNL     1      10.879 -11.581  -1.825  0.00  0.00    +0.005 C 
ATOM     29  C   UNL     1      10.974 -10.250  -1.077  0.00  0.00    +0.037 C 
BRANCH  22  30
ATOM     30  C   UNL     1       9.978  -7.780   0.469  0.00  0.00    +0.244 C 
ATOM     31  O   UNL     1       9.556  -8.216   1.524  0.00  0.00    -0.270 OA
ATOM     32  N   UNL     1      11.015  -6.920   0.462  0.00  0.00    -0.325 N 
ATOM     33  H   UNL     1      11.352  -6.572  -0.379  0.00  0.00    +0.145 HD
ATOM     34  H   UNL     1      11.426  -6.648   1.298  0.00  0.00    +0.145 HD
ENDBRANCH  22  30
ENDBRANCH  19  21
ENDBRANCH   7  17
BRANCH   3  35
ATOM     35  C   UNL     1       5.636  -2.581   2.723  0.00  0.00    +0.412 C 
ATOM     36  F   UNL     1       4.634  -3.537   2.920  0.00  0.00    -0.168 F 
ATOM     37  F   UNL     1       6.886  -3.209   2.723  0.00  0.00    -0.168 F 
ATOM     38  F   UNL     1       5.589  -1.636   3.753  0.00  0.00    -0.168 F 
ENDBRANCH   3  35
TORSDOF 5
