REMARK  Name = ZINC11843790
REMARK  10 active torsions:
REMARK  status: ('A' for Active; 'I' for Inactive)
REMARK    1  A    between atoms: C_1  and  C_2
REMARK    2  A    between atoms: C_8  and  C_33
REMARK    3  A    between atoms: C_9  and  C_12
REMARK    4  A    between atoms: C_12  and  N_64
REMARK    5  A    between atoms: C_15  and  C_18
REMARK    6  A    between atoms: C_15  and  O_32
REMARK    7  A    between atoms: C_18  and  C_19
REMARK    8  A    between atoms: C_21  and  C_24
REMARK    9  A    between atoms: C_28  and  O_30
REMARK   10  A    between atoms: O_30  and  C_31
REMARK                            x       y       z     vdW  Elec       q    Type
REMARK                         _______ _______ _______ _____ _____    ______ ____
ROOT
ATOM      1  C   UNL     1      -2.068   0.230  -1.975  0.00  0.00    -0.076 C 
ATOM      2  C   UNL     1      -2.421   0.025  -3.450  0.00  0.00    +0.016 C 
ATOM      3  C   UNL     1      -3.588  -0.960  -3.558  0.00  0.00    +0.070 C 
ATOM      4  C   UNL     1      -3.199  -2.277  -2.883  0.00  0.00    +0.016 C 
ATOM      5  C   UNL     1      -2.823  -2.006  -1.424  0.00  0.00    -0.076 C 
ATOM      6  N   UNL     1      -1.678  -1.070  -1.390  0.00  0.00    +0.383 N 
ATOM      7  H   UNL     1      -0.908  -1.466  -1.941  0.00  0.00    -0.081 HD
ENDROOT
BRANCH   3   8
ATOM      8  O   UNL     1      -4.738  -0.412  -2.909  0.00  0.00    -0.388 OA
ATOM      9  H   UNL     1      -5.041   0.425  -3.287  0.00  0.00    +0.210 HD
ENDBRANCH   3   8
BRANCH   6  10
ATOM     10  C   UNL     1      -1.223  -0.881   0.003  0.00  0.00    -0.024 C 
BRANCH  10  19
ATOM     11  C   UNL     1       5.971   1.194  -0.422  0.00  0.00    +0.044 C 
ATOM     12  C   UNL     1       4.478   1.237  -0.224  0.00  0.00    -0.050 A 
ATOM     13  C   UNL     1       3.864   2.431   0.130  0.00  0.00    +0.005 A 
ATOM     14  C   UNL     1       2.500   2.492   0.315  0.00  0.00    +0.026 A 
ATOM     15  C   UNL     1       1.728   1.347   0.147  0.00  0.00    +0.047 A 
ATOM     16  C   UNL     1       2.355   0.139  -0.211  0.00  0.00    +0.003 A 
ATOM     17  C   UNL     1       3.739   0.100  -0.394  0.00  0.00    +0.013 A 
ATOM     18  C   UNL     1       1.286  -0.858  -0.307  0.00  0.00    -0.024 A 
ATOM     19  C   UNL     1       0.136  -0.230  -0.017  0.00  0.00    +0.003 A 
ATOM     20  N   UNL     1       0.380   1.088   0.257  0.00  0.00    -0.359 N 
ATOM     21  H   UNL     1      -0.295   1.742   0.493  0.00  0.00    +0.166 HD
ATOM     22  C   UNL     1       1.449  -2.315  -0.659  0.00  0.00    +0.046 C 
ENDBRANCH  10  19
ENDBRANCH   6  10
BRANCH   3  23
ATOM     23  C   UNL     1      -3.907  -1.215  -5.033  0.00  0.00    +0.111 C 
BRANCH  23  24
ATOM     24  C   UNL     1      -4.171   0.097  -5.725  0.00  0.00    +0.141 A 
ATOM     25  C   UNL     1      -3.257   0.887  -6.333  0.00  0.00    +0.076 A 
ATOM     26  C   UNL     1      -4.022   1.985  -6.818  0.00  0.00    +0.114 A 
ATOM     27  N   UNL     1      -5.260   1.753  -6.458  0.00  0.00    -0.078 NA
ATOM     28  O   UNL     1      -5.356   0.711  -5.852  0.00  0.00    -0.359 OA
BRANCH  26  29
ATOM     29  C   UNL     1      -3.518   3.159  -7.573  0.00  0.00    +0.007 A 
ATOM     30  C   UNL     1      -2.162   3.265  -7.877  0.00  0.00    +0.010 A 
ATOM     31  C   UNL     1      -1.696   4.354  -8.584  0.00  0.00    +0.004 A 
ATOM     32  C   UNL     1      -2.570   5.349  -8.984  0.00  0.00    +0.045 A 
ATOM     33  C   UNL     1      -3.921   5.253  -8.681  0.00  0.00    +0.121 A 
ATOM     34  C   UNL     1      -4.397   4.160  -7.976  0.00  0.00    +0.055 A 
BRANCH  33  35
ATOM     35  O   UNL     1      -4.776   6.233  -9.076  0.00  0.00    -0.495 OA
ATOM     36  C   UNL     1      -4.216   7.331  -9.799  0.00  0.00    +0.277 C 
ENDBRANCH  33  35
ENDBRANCH  26  29
ENDBRANCH  23  24
ENDBRANCH   3  23
TORSDOF 7
