REMARK  Name = ZINC39958099
REMARK  6 active torsions:
REMARK  status: ('A' for Active; 'I' for Inactive)
REMARK    1  A    between atoms: C_1  and  C_2
REMARK    2  A    between atoms: C_4  and  C_16
REMARK    3  A    between atoms: C_6  and  C_14
REMARK    4  A    between atoms: C_7  and  N_13
REMARK    5  A    between atoms: N_18  and  C_25
REMARK    6  A    between atoms: C_25  and  C_26
REMARK                            x       y       z     vdW  Elec       q    Type
REMARK                         _______ _______ _______ _____ _____    ______ ____
ROOT
ATOM      1  C   UNL     1      -2.762   0.875  -0.717  0.00  0.00    -0.010 A 
ATOM      2  C   UNL     1      -2.350   1.299  -1.922  0.00  0.00    +0.092 A 
ATOM      3  N   UNL     1      -2.738   2.597  -2.117  0.00  0.00    -0.337 N 
ATOM      4  C   UNL     1      -3.427   3.050  -1.015  0.00  0.00    +0.050 A 
ATOM      5  C   UNL     1      -3.478   1.990  -0.092  0.00  0.00    +0.004 A 
ATOM      6  C   UNL     1      -4.128   2.161   1.131  0.00  0.00    +0.010 A 
ATOM      7  C   UNL     1      -4.716   3.360   1.425  0.00  0.00    +0.001 A 
ATOM      8  C   UNL     1      -4.672   4.408   0.516  0.00  0.00    +0.002 A 
ATOM      9  C   UNL     1      -4.028   4.263  -0.693  0.00  0.00    +0.026 A 
ENDROOT
BRANCH   1  13
ATOM     10  C   UNL     1      -0.018   1.503   0.010  0.00  0.00    +0.067 C 
ATOM     11  C   UNL     1       0.002  -0.004   0.002  0.00  0.00    +0.066 C 
ATOM     12  C   UNL     1      -1.064  -0.768   0.003  0.00  0.00    +0.030 C 
ATOM     13  C   UNL     1      -2.537  -0.492  -0.122  0.00  0.00    +0.100 C 
ATOM     14  C   UNL     1      -3.075  -1.565  -1.050  0.00  0.00    +0.098 C 
ATOM     15  C   UNL     1      -2.317  -2.612  -1.438  0.00  0.00    +0.195 C 
ATOM     16  O   UNL     1      -1.033  -2.841  -1.107  0.00  0.00    -0.448 OA
ATOM     17  C   UNL     1      -0.528  -2.199   0.066  0.00  0.00    +0.343 C 
ATOM     18  N   UNL     1       0.921  -1.985   0.002  0.00  0.00    -0.138 NA
ATOM     19  N   UNL     1       1.127  -0.765  -0.013  0.00  0.00    -0.155 NA
BRANCH  15  20
ATOM     20  N   UNL     1      -2.917  -3.538  -2.254  0.00  0.00    -0.329 N 
ATOM     21  H   UNL     1      -3.842  -3.421  -2.523  0.00  0.00    +0.145 HD
ATOM     22  H   UNL     1      -2.417  -4.310  -2.562  0.00  0.00    +0.145 HD
ENDBRANCH  15  20
BRANCH  14  23
ATOM     23  C   UNL     1      -4.422  -1.466  -1.525  0.00  0.00    +0.101 C 
ATOM     24  N   UNL     1      -5.491  -1.387  -1.903  0.00  0.00    -0.191 NA
ENDBRANCH  14  23
ENDBRANCH   1  13
BRANCH   3  25
ATOM     25  C   UNL     1      -2.462   3.386  -3.320  0.00  0.00    +0.217 C 
BRANCH  25  26
ATOM     26  C   UNL     1      -1.212   4.202  -3.110  0.00  0.00    +0.235 C 
ATOM     27  O   UNL     1      -0.612   4.131  -2.058  0.00  0.00    -0.274 OA
ATOM     28  N   UNL     1      -0.762   5.010  -4.090  0.00  0.00    -0.300 N 
ATOM     29  C   UNL     1      -1.504   5.076  -5.329  0.00  0.00    +0.108 C 
ATOM     30  C   UNL     1      -0.983   3.991  -6.304  0.00  0.00    +0.019 C 
ATOM     31  C   UNL     1       0.355   4.349  -6.799  0.00  0.00    +0.002 C 
ATOM     32  C   UNL     1       1.425   4.428  -5.715  0.00  0.00    +0.002 C 
ATOM     33  C   UNL     1       1.396   5.796  -5.082  0.00  0.00    +0.019 C 
ATOM     34  C   UNL     1       0.464   5.796  -3.852  0.00  0.00    +0.108 C 
ENDBRANCH  25  26
ENDBRANCH   3  25
TORSDOF 5
