REMARK  Name = ZINC63078593
REMARK  5 active torsions:
REMARK  status: ('A' for Active; 'I' for Inactive)
REMARK    1  A    between atoms: C_1  and  C_2
REMARK    2  A    between atoms: C_8  and  O_10
REMARK    3  A    between atoms: O_10  and  C_11
REMARK    4  A    between atoms: C_11  and  C_12
REMARK    5  A    between atoms: N_18  and  C_19
REMARK                            x       y       z     vdW  Elec       q    Type
REMARK                         _______ _______ _______ _____ _____    ______ ____
ROOT
ATOM      1  C   UNL     1       0.131   0.633   4.715  0.00  0.00    +0.158 A 
ATOM      2  N   UNL     1      -0.037   1.927   4.876  0.00  0.00    -0.210 NA
ATOM      3  C   UNL     1      -0.742   2.394   5.902  0.00  0.00    +0.163 A 
ATOM      4  C   UNL     1      -1.305   1.472   6.812  0.00  0.00    +0.075 A 
ATOM      5  C   UNL     1      -2.009   2.261   7.814  0.00  0.00    +0.147 A 
ATOM      6  N   UNL     1      -1.860   3.517   7.502  0.00  0.00    -0.177 NA
ATOM      7  N   UNL     1      -1.092   3.636   6.340  0.00  0.00    -0.249 N 
ATOM      8  C   UNL     1      -0.721   4.898   5.694  0.00  0.00    +0.174 C 
ATOM      9  C   UNL     1      -1.095   0.106   6.594  0.00  0.00    +0.144 A 
ATOM     10  N   UNL     1      -0.384  -0.262   5.541  0.00  0.00    -0.217 NA
ATOM     11 CL   UNL     1      -1.759  -1.078   7.676  0.00  0.00    -0.061 Cl
ENDROOT
BRANCH   1  12
ATOM     12  C   UNL     1       0.938   0.149   3.537  0.00  0.00    +0.236 C 
BRANCH  12  13
ATOM     13  O   UNL     1       0.073  -0.050   2.417  0.00  0.00    -0.369 OA
BRANCH  13  20
ATOM     14  C   UNL     1      -0.019   1.526   0.010  0.00  0.00    +0.010 C 
ATOM     15  C   UNL     1       0.002  -0.004   0.002  0.00  0.00    +0.015 C 
ATOM     16  C   UNL     1       0.718  -0.497  -1.257  0.00  0.00    +0.006 C 
ATOM     17  C   UNL     1       0.739  -2.027  -1.265  0.00  0.00    +0.000 C 
ATOM     18  C   UNL     1       1.479  -2.534  -0.026  0.00  0.00    +0.003 C 
ATOM     19  C   UNL     1       0.763  -2.041   1.233  0.00  0.00    +0.032 C 
ATOM     20  C   UNL     1       0.742  -0.511   1.242  0.00  0.00    +0.122 C 
ENDBRANCH  13  20
ENDBRANCH  12  13
ENDBRANCH   1  12
TORSDOF 3
