REMARK  Name = ZINC24216288
REMARK  6 active torsions:
REMARK  status: ('A' for Active; 'I' for Inactive)
REMARK    1  A    between atoms: C_1  and  C_2
REMARK    2  A    between atoms: C_2  and  C_4
REMARK    3  A    between atoms: C_2  and  N_14
REMARK    4  A    between atoms: C_15  and  C_17
REMARK    5  A    between atoms: C_17  and  S_18
REMARK    6  A    between atoms: S_18  and  C_19
REMARK                            x       y       z     vdW  Elec       q    Type
REMARK                         _______ _______ _______ _____ _____    ______ ____
ROOT
ATOM      1  N   UNL     1       2.103   7.945   0.911  0.00  0.00    -0.308 N 
ATOM      2  C   UNL     1       1.992   9.163   1.478  0.00  0.00    +0.224 C 
ATOM      3  O   UNL     1       1.014   9.846   1.259  0.00  0.00    -0.275 OA
ATOM      4  H   UNL     1       2.990   7.325   1.109  0.00  0.00    +0.149 HD
ENDROOT
BRANCH   1   6
ATOM      5  C   UNL     1       1.274   7.968  -1.390  0.00  0.00    +0.033 C 
ATOM      6  C   UNL     1       1.044   7.447   0.030  0.00  0.00    +0.100 C 
BRANCH   6   7
ATOM      7  C   UNL     1       1.064   5.940   0.022  0.00  0.00    -0.027 A 
ATOM      8  C   UNL     1       2.286   5.270   0.008  0.00  0.00    +0.006 A 
ATOM      9  C   UNL     1       2.340   3.910   0.001  0.00  0.00    +0.009 A 
ATOM     10  C   UNL     1       1.147   3.167   0.008  0.00  0.00    -0.018 A 
ATOM     11  C   UNL     1       1.163   1.762   0.000  0.00  0.00    +0.008 A 
ATOM     12  C   UNL     1      -0.013   1.076   0.008  0.00  0.00    +0.001 A 
ATOM     13  C   UNL     1      -1.235   1.746   0.017  0.00  0.00    +0.001 A 
ATOM     14  C   UNL     1      -1.288   3.106   0.031  0.00  0.00    +0.008 A 
ATOM     15  C   UNL     1      -0.096   3.849   0.023  0.00  0.00    -0.018 A 
ATOM     16  C   UNL     1      -0.111   5.254   0.030  0.00  0.00    +0.014 A 
ENDBRANCH   6   7
ENDBRANCH   1   6
BRANCH   2  17
ATOM     17  C   UNL     1       3.081   9.675   2.384  0.00  0.00    +0.173 C 
BRANCH  17  18
ATOM     18  S   UNL     1       2.641  11.329   2.984  0.00  0.00    -0.076 S 
BRANCH  18  19
ATOM     19  C   UNL     1       3.995  11.783   4.015  0.00  0.00    +0.197 A 
ATOM     20  N   UNL     1       5.049  11.047   4.258  0.00  0.00    -0.121 NA
ATOM     21  N   UNL     1       5.891  11.765   5.118  0.00  0.00    -0.121 NA
ATOM     22  C   UNL     1       5.315  12.902   5.371  0.00  0.00    +0.202 A 
ATOM     23  N   UNL     1       4.119  12.978   4.708  0.00  0.00    -0.264 N 
ATOM     24  C   UNL     1       3.351  14.143   4.862  0.00  0.00    +0.065 A 
ATOM     25  C   UNL     1       2.106  14.407   4.269  0.00  0.00    +0.027 A 
ATOM     26  C   UNL     1       1.454  15.595   4.502  0.00  0.00    +0.002 A 
ATOM     27  C   UNL     1       2.000  16.564   5.326  0.00  0.00    +0.001 A 
ATOM     28  C   UNL     1       3.225  16.329   5.924  0.00  0.00    +0.017 A 
ATOM     29  C   UNL     1       3.877  15.140   5.689  0.00  0.00    +0.040 A 
ATOM     30  S   UNL     1       5.419  14.450   6.237  0.00  0.00    -0.048 S 
ENDBRANCH  18  19
ENDBRANCH  17  18
ENDBRANCH   2  17
TORSDOF 5
