REMARK  Name = ZINC08783377
REMARK  3 active torsions:
REMARK  status: ('A' for Active; 'I' for Inactive)
REMARK    1  A    between atoms: C_4  and  C_8
REMARK    2  A    between atoms: C_12  and  N_20
REMARK    3  A    between atoms: C_13  and  C_17
REMARK                            x       y       z     vdW  Elec       q    Type
REMARK                         _______ _______ _______ _____ _____    ______ ____
ROOT
ATOM      1  C   UNL     1      -2.504   1.004   0.019  0.00  0.00    +0.074 A 
ATOM      2  C   UNL     1      -3.718   1.688   0.140  0.00  0.00    +0.029 A 
ATOM      3  C   UNL     1      -4.897   1.006   0.138  0.00  0.00    +0.014 A 
ATOM      4  C   UNL     1      -4.880  -0.408   0.023  0.00  0.00    +0.029 A 
ATOM      5  C   UNL     1      -6.005  -1.329   0.005  0.00  0.00    +0.053 A 
ATOM      6  C   UNL     1      -5.746  -2.677  -0.116  0.00  0.00    +0.097 A 
ATOM      7  S   UNL     1      -3.968  -2.748  -0.210  0.00  0.00    -0.062 S 
ATOM      8  C   UNL     1      -3.607  -1.014  -0.089  0.00  0.00    +0.111 A 
ATOM      9  N   UNL     1      -2.491  -0.319  -0.088  0.00  0.00    -0.239 NA
ENDROOT
BRANCH   1  13
ATOM     10  C   UNL     1       1.159   3.163   0.016  0.00  0.00    +0.021 A 
ATOM     11  C   UNL     1       0.930   2.195  -0.945  0.00  0.00    +0.022 A 
ATOM     12  C   UNL     1      -0.259   1.492  -0.951  0.00  0.00    +0.050 A 
ATOM     13  C   UNL     1      -1.228   1.758   0.017  0.00  0.00    +0.020 A 
ATOM     14  C   UNL     1      -0.994   2.738   0.980  0.00  0.00    +0.031 A 
ATOM     15  C   UNL     1       0.200   3.434   0.976  0.00  0.00    +0.042 A 
ATOM     16 CL   UNL     1       0.496   4.651   2.178  0.00  0.00    -0.084 Cl
ATOM     17 CL   UNL     1      -0.545   0.277  -2.157  0.00  0.00    -0.083 Cl
ENDBRANCH   1  13
BRANCH   6  18
ATOM     18  C   UNL     1      -6.671  -3.749  -0.156  0.00  0.00    +0.250 C 
ATOM     19  O   UNL     1      -7.866  -3.526  -0.078  0.00  0.00    -0.270 OA
ATOM     20  N   UNL     1      -6.229  -5.016  -0.280  0.00  0.00    -0.325 N 
ATOM     21  H   UNL     1      -5.278  -5.194  -0.342  0.00  0.00    +0.145 HD
ATOM     22  H   UNL     1      -6.863  -5.750  -0.307  0.00  0.00    +0.145 HD
ENDBRANCH   6  18
BRANCH   5  23
ATOM     23  N   UNL     1      -7.308  -0.862   0.108  0.00  0.00    -0.356 N 
ATOM     24  H   UNL     1      -7.477   0.089   0.194  0.00  0.00    +0.142 HD
ATOM     25  H   UNL     1      -8.050  -1.487   0.095  0.00  0.00    +0.142 HD
ENDBRANCH   5  23
TORSDOF 3
