REMARK  Name = ZINC04960642
REMARK  4 active torsions:
REMARK  status: ('A' for Active; 'I' for Inactive)
REMARK    1  A    between atoms: C_1  and  C_2
REMARK    2  A    between atoms: C_5  and  N_9
REMARK    3  A    between atoms: C_6  and  C_8
REMARK    4  A    between atoms: N_9  and  C_10
REMARK                            x       y       z     vdW  Elec       q    Type
REMARK                         _______ _______ _______ _____ _____    ______ ____
ROOT
ATOM      1  C   UNL     1       0.442   5.445  -0.020  0.00  0.00    +0.200 C 
ATOM      2  C   UNL     1       0.281   3.949   0.080  0.00  0.00    +0.003 A 
ATOM      3  C   UNL     1      -0.808   3.127   0.259  0.00  0.00    +0.008 A 
ATOM      4  C   UNL     1      -0.637   1.754   0.307  0.00  0.00    +0.000 A 
ATOM      5  C   UNL     1       0.627   1.204   0.184  0.00  0.00    +0.001 A 
ATOM      6  C   UNL     1       1.725   2.019   0.004  0.00  0.00    +0.013 A 
ATOM      7  C   UNL     1       1.561   3.405  -0.050  0.00  0.00    +0.044 A 
ATOM      8  C   UNL     1       2.519   4.512  -0.228  0.00  0.00    +0.254 C 
ATOM      9  O   UNL     1       3.719   4.378  -0.370  0.00  0.00    -0.270 OA
ATOM     10  N   UNL     1       1.875   5.692  -0.211  0.00  0.00    -0.229 N 
ATOM     11  C   UNL     1       2.471   6.944  -0.351  0.00  0.00    +0.130 A 
ATOM     12  C   UNL     1       3.832   7.032  -0.626  0.00  0.00    +0.045 A 
ATOM     13  C   UNL     1       4.410   8.281  -0.768  0.00  0.00    +0.025 A 
ATOM     14  C   UNL     1       3.606   9.405  -0.620  0.00  0.00    +0.059 A 
ATOM     15  C   UNL     1       2.262   9.242  -0.343  0.00  0.00    +0.132 A 
ATOM     16  N   UNL     1       1.738   8.038  -0.217  0.00  0.00    -0.238 NA
ATOM     17 CL   UNL     1       4.283  10.995  -0.781  0.00  0.00    -0.082 Cl
ENDROOT
BRANCH   1  18
ATOM     18  N   UNL     1      -0.315   5.958  -1.164  0.00  0.00    -0.322 N 
ATOM     19  H   UNL     1      -0.302   5.480  -2.008  0.00  0.00    +0.148 HD
BRANCH  18  24
ATOM     20  C   UNL     1      -3.319  10.742  -0.662  0.00  0.00    +0.044 C 
ATOM     21  C   UNL     1      -2.521   9.471  -0.796  0.00  0.00    -0.050 A 
ATOM     22  C   UNL     1      -1.906   8.922   0.315  0.00  0.00    +0.005 A 
ATOM     23  C   UNL     1      -1.173   7.758   0.196  0.00  0.00    +0.023 A 
ATOM     24  C   UNL     1      -1.055   7.136  -1.041  0.00  0.00    +0.032 A 
ATOM     25  C   UNL     1      -1.670   7.692  -2.155  0.00  0.00    -0.029 A 
ATOM     26  C   UNL     1      -2.405   8.855  -2.028  0.00  0.00    +0.008 A 
ATOM     27  C   UNL     1      -1.540   7.025  -3.500  0.00  0.00    +0.045 C 
ENDBRANCH  18  24
ENDBRANCH   1  18
TORSDOF 2
