REMARK  Name = ZINC59021631
REMARK  9 active torsions:
REMARK  status: ('A' for Active; 'I' for Inactive)
REMARK    1  A    between atoms: C_1  and  C_2
REMARK    2  A    between atoms: C_2  and  C_3
REMARK    3  A    between atoms: C_2  and  C_4
REMARK    4  A    between atoms: C_2  and  O_5
REMARK    5  A    between atoms: O_5  and  C_6
REMARK    6  A    between atoms: N_8  and  C_9
REMARK    7  A    between atoms: C_15  and  C_17
REMARK    8  A    between atoms: N_20  and  C_26
REMARK    9  A    between atoms: C_21  and  C_22
REMARK                            x       y       z     vdW  Elec       q    Type
REMARK                         _______ _______ _______ _____ _____    ______ ____
ROOT
ATOM      1  C   UNL     1       4.465  -0.882  -2.089  0.00  0.00    +0.079 C 
ATOM      2  C   UNL     1       4.202   0.497  -2.699  0.00  0.00    +0.041 C 
ATOM      3  C   UNL     1       5.539   1.180  -3.004  0.00  0.00    +0.110 C 
ATOM      4  N   UNL     1       6.342   0.288  -3.852  0.00  0.00    -0.297 N 
ATOM      5  C   UNL     1       6.580  -1.090  -3.401  0.00  0.00    +0.110 C 
ATOM      6  C   UNL     1       5.231  -1.747  -3.092  0.00  0.00    +0.041 C 
ATOM      7  C   UNL     1       6.851   0.726  -5.021  0.00  0.00    +0.250 C 
ATOM      8  O   UNL     1       6.571   1.837  -5.427  0.00  0.00    -0.270 OA
ENDROOT
BRANCH   7   9
ATOM      9  C   UNL     1       7.747  -0.142  -5.806  0.00  0.00    +0.087 A 
ATOM     10  C   UNL     1       8.802  -0.934  -5.300  0.00  0.00    +0.148 A 
ATOM     11  N   UNL     1       9.358  -1.556  -6.304  0.00  0.00    -0.174 NA
ATOM     12  N   UNL     1       8.694  -1.198  -7.483  0.00  0.00    -0.227 N 
ATOM     13  C   UNL     1       7.708  -0.338  -7.172  0.00  0.00    +0.159 A 
BRANCH  12  14
ATOM     14  C   UNL     1       9.003  -1.660  -8.770  0.00  0.00    +0.066 A 
ATOM     15  C   UNL     1       9.269  -3.007  -8.979  0.00  0.00    +0.029 A 
ATOM     16  C   UNL     1       9.573  -3.460 -10.248  0.00  0.00    +0.022 A 
ATOM     17  C   UNL     1       9.613  -2.574 -11.310  0.00  0.00    +0.041 A 
ATOM     18  C   UNL     1       9.347  -1.231 -11.103  0.00  0.00    +0.022 A 
ATOM     19  C   UNL     1       9.037  -0.774  -9.838  0.00  0.00    +0.029 A 
ATOM     20 CL   UNL     1       9.996  -3.146 -12.903  0.00  0.00    -0.084 Cl
ENDBRANCH  12  14
BRANCH  13  21
ATOM     21  C   UNL     1       6.741   0.298  -8.137  0.00  0.00    +0.435 C 
ATOM     22  F   UNL     1       6.481  -0.589  -9.188  0.00  0.00    -0.164 F 
ATOM     23  F   UNL     1       5.546   0.596  -7.473  0.00  0.00    -0.164 F 
ATOM     24  F   UNL     1       7.297   1.476  -8.648  0.00  0.00    -0.164 F 
ENDBRANCH  13  21
ENDBRANCH   7   9
BRANCH   1  27
ATOM     25  C   UNL     1       2.582  -1.262  -0.590  0.00  0.00    +0.401 C 
ATOM     26  O   UNL     1       3.092  -0.492   0.200  0.00  0.00    -0.226 OA
ATOM     27  N   UNL     1       3.189  -1.524  -1.765  0.00  0.00    -0.278 N 
ATOM     28  H   UNL     1       2.781  -2.138  -2.395  0.00  0.00    +0.152 HD
BRANCH  25  29
ATOM     29  O   UNL     1       1.409  -1.852  -0.293  0.00  0.00    -0.445 OA
BRANCH  29  31
ATOM     30  C   UNL     1       0.553  -0.023   1.036  0.00  0.00    +0.055 C 
ATOM     31  C   UNL     1       0.821  -1.528   0.969  0.00  0.00    +0.107 C 
ATOM     32  C   UNL     1       1.779  -1.925   2.094  0.00  0.00    +0.055 C 
ATOM     33  C   UNL     1      -0.497  -2.289   1.129  0.00  0.00    +0.055 C 
ENDBRANCH  29  31
ENDBRANCH  25  29
ENDBRANCH   1  27
TORSDOF 6
