REMARK  Name = ZINC38904269
REMARK  9 active torsions:
REMARK  status: ('A' for Active; 'I' for Inactive)
REMARK    1  A    between atoms: C_1  and  C_2
REMARK    2  A    between atoms: C_5  and  N_9
REMARK    3  A    between atoms: C_6  and  C_8
REMARK    4  A    between atoms: N_9  and  C_10
REMARK    5  A    between atoms: C_10  and  C_11
REMARK    6  A    between atoms: C_18  and  C_23
REMARK    7  A    between atoms: C_24  and  C_26
REMARK    8  A    between atoms: C_30  and  O_32
REMARK    9  A    between atoms: O_32  and  C_33
REMARK                            x       y       z     vdW  Elec       q    Type
REMARK                         _______ _______ _______ _____ _____    ______ ____
ROOT
ATOM      1  N   UNL     1      -0.174  -4.669   0.149  0.00  0.00    -0.266 N 
ATOM      2  C   UNL     1      -1.154  -5.590   0.058  0.00  0.00    +0.251 C 
ATOM      3  O   UNL     1      -0.876  -6.758  -0.130  0.00  0.00    -0.270 OA
ENDROOT
BRANCH   1   8
ATOM      4  C   UNL     1      -1.479   0.830   0.633  0.00  0.00    +0.044 C 
ATOM      5  C   UNL     1      -1.132  -0.631   0.504  0.00  0.00    -0.050 A 
ATOM      6  C   UNL     1      -1.488  -1.516   1.507  0.00  0.00    +0.005 A 
ATOM      7  C   UNL     1      -1.172  -2.855   1.392  0.00  0.00    +0.024 A 
ATOM      8  C   UNL     1      -0.496  -3.314   0.269  0.00  0.00    +0.040 A 
ATOM      9  C   UNL     1      -0.141  -2.423  -0.736  0.00  0.00    -0.029 A 
ATOM     10  C   UNL     1      -0.464  -1.086  -0.618  0.00  0.00    +0.008 A 
ATOM     11  C   UNL     1       0.593  -2.917  -1.957  0.00  0.00    +0.045 C 
ENDBRANCH   1   8
BRANCH   2  12
ATOM     12  C   UNL     1      -2.568  -5.178   0.187  0.00  0.00    +0.041 A 
ATOM     13  C   UNL     1      -3.010  -3.994  -0.406  0.00  0.00    +0.013 A 
ATOM     14  C   UNL     1      -4.331  -3.613  -0.284  0.00  0.00    +0.004 A 
ATOM     15  C   UNL     1      -5.219  -4.401   0.424  0.00  0.00    +0.045 A 
ATOM     16  C   UNL     1      -4.789  -5.579   1.018  0.00  0.00    +0.121 A 
ATOM     17  C   UNL     1      -3.467  -5.974   0.897  0.00  0.00    +0.058 A 
BRANCH  16  18
ATOM     18  O   UNL     1      -5.667  -6.349   1.714  0.00  0.00    -0.495 OA
ATOM     19  C   UNL     1      -7.016  -5.884   1.794  0.00  0.00    +0.277 C 
ENDBRANCH  16  18
ENDBRANCH   2  12
BRANCH   1  20
ATOM     20  C   UNL     1       1.229  -5.090   0.124  0.00  0.00    +0.131 C 
BRANCH  20  21
ATOM     21  C   UNL     1       1.646  -5.561   1.519  0.00  0.00    +0.116 C 
ATOM     22  C   UNL     1       2.891  -6.414   1.369  0.00  0.00    -0.003 C 
ATOM     23  C   UNL     1       4.004  -6.020   2.050  0.00  0.00    -0.007 A 
ATOM     24  C   UNL     1       5.248  -6.786   1.962  0.00  0.00    +0.009 A 
ATOM     25  C   UNL     1       6.332  -6.356   2.658  0.00  0.00    +0.001 A 
ATOM     26  C   UNL     1       6.279  -5.207   3.448  0.00  0.00    +0.005 A 
ATOM     27  C   UNL     1       5.156  -4.454   3.572  0.00  0.00    -0.029 A 
ATOM     28  C   UNL     1       3.978  -4.811   2.891  0.00  0.00    +0.043 A 
ATOM     29  N   UNL     1       2.882  -4.063   3.019  0.00  0.00    -0.284 N 
ATOM     30  C   UNL     1       1.742  -4.343   2.410  0.00  0.00    +0.226 C 
ATOM     31  O   UNL     1       0.775  -3.622   2.566  0.00  0.00    -0.275 OA
ATOM     32  C   UNL     1       5.172  -3.225   4.444  0.00  0.00    +0.045 C 
ATOM     33  H   UNL     1       2.922  -3.277   3.587  0.00  0.00    +0.155 HD
ENDBRANCH  20  21
ENDBRANCH   1  20
TORSDOF 5
