REMARK  Name = ZINC36525840
REMARK  14 active torsions:
REMARK  status: ('A' for Active; 'I' for Inactive)
REMARK    1  A    between atoms: C_1  and  C_2
REMARK    2  A    between atoms: C_5  and  S_8
REMARK    3  A    between atoms: S_8  and  C_11
REMARK    4  A    between atoms: C_11  and  N_12
REMARK    5  A    between atoms: C_13  and  C_15
REMARK    6  A    between atoms: C_15  and  C_17
REMARK    7  A    between atoms: C_15  and  N_26
REMARK    8  A    between atoms: C_18  and  O_25
REMARK    9  A    between atoms: C_20  and  O_24
REMARK   10  A    between atoms: C_22  and  O_23
REMARK   11  A    between atoms: N_26  and  C_27
REMARK   12  A    between atoms: C_28  and  C_30
REMARK   13  A    between atoms: C_30  and  C_31
REMARK   14  A    between atoms: C_31  and  C_32
REMARK                            x       y       z     vdW  Elec       q    Type
REMARK                         _______ _______ _______ _____ _____    ______ ____
ROOT
ATOM      1  C   UNL     1       3.076  -4.997   3.575  0.00  0.00    +0.199 C 
ENDROOT
BRANCH   1   2
ATOM      2  C   UNL     1       4.386  -4.297   3.316  0.00  0.00    +0.065 A 
ATOM      3  C   UNL     1       5.565  -5.025   3.276  0.00  0.00    +0.129 A 
ATOM      4  C   UNL     1       6.770  -4.381   3.037  0.00  0.00    +0.091 A 
ATOM      5  C   UNL     1       6.795  -3.009   2.839  0.00  0.00    +0.124 A 
ATOM      6  C   UNL     1       5.616  -2.281   2.879  0.00  0.00    +0.091 A 
ATOM      7  C   UNL     1       4.410  -2.925   3.113  0.00  0.00    +0.129 A 
BRANCH   7   8
ATOM      8  O   UNL     1       3.254  -2.212   3.147  0.00  0.00    -0.506 OA
ATOM      9  H   UNL     1       3.023  -1.879   4.025  0.00  0.00    +0.292 HD
ENDBRANCH   7   8
BRANCH   5  10
ATOM     10  O   UNL     1       7.976  -2.378   2.607  0.00  0.00    -0.507 OA
ATOM     11  H   UNL     1       8.213  -2.319   1.671  0.00  0.00    +0.292 HD
ENDBRANCH   5  10
BRANCH   3  12
ATOM     12  O   UNL     1       5.540  -6.370   3.470  0.00  0.00    -0.506 OA
ATOM     13  H   UNL     1       5.510  -6.885   2.652  0.00  0.00    +0.292 HD
ENDBRANCH   3  12
ENDBRANCH   1   2
BRANCH   1  15
ATOM     14  N   UNL     1       2.937  -5.959   1.300  0.00  0.00    -0.294 N 
ATOM     15  C   UNL     1       2.936  -6.164   2.632  0.00  0.00    +0.240 C 
ATOM     16  O   UNL     1       2.821  -7.288   3.072  0.00  0.00    -0.273 OA
ATOM     17  H   UNL     1       3.029  -5.060   0.949  0.00  0.00    +0.150 HD
BRANCH  14  18
ATOM     18  C   UNL     1       2.800  -7.094   0.384  0.00  0.00    +0.278 C 
BRANCH  18  19
ATOM     19  S   UNL     1       1.058  -7.286  -0.084  0.00  0.00    +0.013 S 
ATOM     20  O   UNL     1       0.232  -7.228   1.070  0.00  0.00    -0.168 OA
ATOM     21  O   UNL     1       0.918  -8.344  -1.022  0.00  0.00    -0.168 OA
BRANCH  19  26
ATOM     22  C   UNL     1      -0.278  -2.288  -3.189  0.00  0.00    +0.044 C 
ATOM     23  C   UNL     1       0.056  -3.537  -2.413  0.00  0.00    -0.050 A 
ATOM     24  C   UNL     1       0.543  -4.650  -3.072  0.00  0.00    +0.005 A 
ATOM     25  C   UNL     1       0.849  -5.795  -2.361  0.00  0.00    +0.027 A 
ATOM     26  C   UNL     1       0.669  -5.826  -0.991  0.00  0.00    +0.090 A 
ATOM     27  C   UNL     1       0.183  -4.713  -0.332  0.00  0.00    +0.027 A 
ATOM     28  C   UNL     1      -0.119  -3.566  -1.042  0.00  0.00    +0.005 A 
ENDBRANCH  19  26
ENDBRANCH  18  19
ENDBRANCH  14  18
ENDBRANCH   1  15
BRANCH   1  29
ATOM     29  N   UNL     1       3.046  -5.479   4.958  0.00  0.00    -0.289 N 
ATOM     30  C   UNL     1       3.963  -6.539   5.385  0.00  0.00    +0.133 C 
ATOM     31  C   UNL     1       2.174  -4.948   5.838  0.00  0.00    +0.216 C 
ATOM     32  O   UNL     1       1.414  -4.071   5.485  0.00  0.00    -0.276 OA
BRANCH  31  33
ATOM     33  C   UNL     1       2.142  -5.445   7.260  0.00  0.00    +0.096 C 
BRANCH  33  34
ATOM     34  C   UNL     1       1.071  -4.682   8.043  0.00  0.00    +0.013 C 
BRANCH  34  35
ATOM     35  C   UNL     1       1.039  -5.186   9.487  0.00  0.00    -0.011 C 
ATOM     36  C   UNL     1       0.590  -6.649   9.507  0.00  0.00    +0.003 C 
ATOM     37  C   UNL     1       0.558  -7.152  10.951  0.00  0.00    +0.000 C 
ATOM     38  C   UNL     1      -0.423  -6.307  11.765  0.00  0.00    +0.000 C 
ATOM     39  C   UNL     1       0.025  -4.844  11.745  0.00  0.00    +0.000 C 
ATOM     40  C   UNL     1       0.057  -4.340  10.301  0.00  0.00    +0.003 C 
ENDBRANCH  34  35
ENDBRANCH  33  34
ENDBRANCH  31  33
ENDBRANCH   1  29
TORSDOF 12
