REMARK  Name = ZINC10383839
REMARK  10 active torsions:
REMARK  status: ('A' for Active; 'I' for Inactive)
REMARK    1  A    between atoms: C_1  and  C_2
REMARK    2  A    between atoms: C_2  and  C_3
REMARK    3  A    between atoms: C_9  and  C_37
REMARK    4  A    between atoms: C_12  and  N_18
REMARK    5  A    between atoms: C_15  and  C_17
REMARK    6  A    between atoms: N_18  and  C_19
REMARK    7  A    between atoms: C_22  and  C_25
REMARK    8  A    between atoms: C_26  and  C_28
REMARK    9  A    between atoms: C_28  and  N_74
REMARK   10  A    between atoms: C_31  and  C_34
REMARK                            x       y       z     vdW  Elec       q    Type
REMARK                         _______ _______ _______ _____ _____    ______ ____
ROOT
ATOM      1  N   UNL     1       1.505   2.995   4.412  0.00  0.00    -0.265 N 
ATOM      2  C   UNL     1       1.658   4.226   3.886  0.00  0.00    +0.204 C 
ATOM      3  O   UNL     1       0.684   4.873   3.562  0.00  0.00    -0.277 OA
ENDROOT
BRANCH   1  13
ATOM      4  C   UNL     1      -3.853   3.464   3.809  0.00  0.00    +0.220 C 
ATOM      5  O   UNL     1      -4.278   3.596   2.681  0.00  0.00    -0.275 OA
ATOM      6  N   UNL     1      -2.625   2.946   4.010  0.00  0.00    -0.268 N 
ATOM      7  C   UNL     1      -1.792   2.646   2.923  0.00  0.00    +0.042 A 
ATOM      8  C   UNL     1      -2.332   2.621   1.642  0.00  0.00    +0.024 A 
ATOM      9  C   UNL     1      -1.526   2.339   0.558  0.00  0.00    +0.005 A 
ATOM     10  C   UNL     1      -0.183   2.070   0.748  0.00  0.00    -0.050 A 
ATOM     11  C   UNL     1       0.355   2.092   2.020  0.00  0.00    +0.010 A 
ATOM     12  C   UNL     1      -0.446   2.379   3.113  0.00  0.00    -0.005 A 
ATOM     13  C   UNL     1       0.173   2.390   4.486  0.00  0.00    +0.115 C 
ATOM     14  C   UNL     1      -0.692   3.195   5.456  0.00  0.00    +0.050 C 
ATOM     15  C   UNL     1      -2.137   2.686   5.371  0.00  0.00    +0.081 C 
ATOM     16  C   UNL     1      -2.175   1.183   5.659  0.00  0.00    +0.028 C 
ATOM     17  C   UNL     1       0.697   1.759  -0.435  0.00  0.00    +0.044 C 
BRANCH   4  19
ATOM     18  C   UNL     1      -6.080   4.312   4.495  0.00  0.00    +0.013 C 
ATOM     19  C   UNL     1      -4.698   3.878   4.986  0.00  0.00    +0.093 C 
ENDBRANCH   4  19
ENDBRANCH   1  13
BRANCH   1  20
ATOM     20  C   UNL     1       2.619   2.293   4.885  0.00  0.00    +0.037 A 
ATOM     21  C   UNL     1       3.598   1.862   4.000  0.00  0.00    +0.024 A 
ATOM     22  C   UNL     1       4.700   1.175   4.472  0.00  0.00    +0.005 A 
ATOM     23  C   UNL     1       4.822   0.905   5.822  0.00  0.00    -0.050 A 
ATOM     24  C   UNL     1       3.846   1.328   6.706  0.00  0.00    +0.005 A 
ATOM     25  C   UNL     1       2.745   2.021   6.241  0.00  0.00    +0.024 A 
ATOM     26  C   UNL     1       6.021   0.149   6.333  0.00  0.00    +0.044 C 
ENDBRANCH   1  20
BRANCH   2  27
ATOM     27  C   UNL     1       3.039   4.801   3.702  0.00  0.00    +0.019 C 
BRANCH  27  33
ATOM     28  C   UNL     1       2.447   5.915   1.636  0.00  0.00    -0.077 C 
ATOM     29  C   UNL     1       2.223   7.285   0.993  0.00  0.00    -0.006 C 
ATOM     30  C   UNL     1       3.543   8.060   0.981  0.00  0.00    +0.071 C 
ATOM     31  C   UNL     1       4.063   8.188   2.416  0.00  0.00    -0.006 C 
ATOM     32  C   UNL     1       4.234   6.792   3.018  0.00  0.00    -0.077 C 
ATOM     33  N   UNL     1       2.924   6.108   3.022  0.00  0.00    +0.385 N 
ATOM     34  H   UNL     1       2.246   6.689   3.529  0.00  0.00    -0.081 HD
BRANCH  30  35
ATOM     35  C   UNL     1       3.318   9.434   0.403  0.00  0.00    +0.213 C 
ATOM     36  O   UNL     1       3.549  10.419   1.071  0.00  0.00    -0.276 OA
ATOM     37  N   UNL     1       2.858   9.567  -0.857  0.00  0.00    -0.329 N 
ATOM     38  H   UNL     1       2.673   8.779  -1.392  0.00  0.00    +0.145 HD
ATOM     39  H   UNL     1       2.713  10.451  -1.229  0.00  0.00    +0.145 HD
ENDBRANCH  30  35
ENDBRANCH  27  33
ENDBRANCH   2  27
TORSDOF 6
