REMARK  Name = ZINC12565970
REMARK  11 active torsions:
REMARK  status: ('A' for Active; 'I' for Inactive)
REMARK    1  A    between atoms: C_1  and  N_2
REMARK    2  A    between atoms: N_2  and  C_3
REMARK    3  A    between atoms: N_2  and  C_4
REMARK    4  A    between atoms: C_4  and  C_6
REMARK    5  A    between atoms: C_4  and  C_29
REMARK    6  A    between atoms: C_6  and  N_7
REMARK    7  A    between atoms: N_7  and  C_8
REMARK    8  A    between atoms: C_8  and  C_10
REMARK    9  A    between atoms: C_8  and  C_16
REMARK   10  A    between atoms: N_18  and  C_19
REMARK   11  A    between atoms: C_22  and  N_26
REMARK                            x       y       z     vdW  Elec       q    Type
REMARK                         _______ _______ _______ _____ _____    ______ ____
ROOT
ATOM      1  C   UNL     1      -0.021  -4.329   0.478  0.00  0.00    +0.171 C 
ENDROOT
BRANCH   1   2
ATOM      2  C   UNL     1      -1.157  -4.992   1.213  0.00  0.00    -0.022 A 
ATOM      3  C   UNL     1      -1.533  -4.536   2.462  0.00  0.00    +0.005 A 
ATOM      4  C   UNL     1      -2.575  -5.145   3.136  0.00  0.00    +0.000 A 
ATOM      5  C   UNL     1      -3.242  -6.210   2.560  0.00  0.00    +0.000 A 
ATOM      6  C   UNL     1      -2.867  -6.665   1.310  0.00  0.00    +0.000 A 
ATOM      7  C   UNL     1      -1.828  -6.054   0.634  0.00  0.00    +0.005 A 
ENDBRANCH   1   2
BRANCH   1   8
ATOM      8  C   UNL     1       1.291  -4.843   1.012  0.00  0.00    +0.239 C 
ATOM      9  O   UNL     1       2.087  -4.074   1.508  0.00  0.00    -0.273 OA
ATOM     10  N   UNL     1       1.579  -6.158   0.939  0.00  0.00    -0.283 N 
ATOM     11  H   UNL     1       0.983  -6.759   0.466  0.00  0.00    +0.155 HD
BRANCH  10  12
ATOM     12  C   UNL     1       2.739  -6.654   1.545  0.00  0.00    +0.048 A 
ATOM     13  C   UNL     1       3.208  -6.086   2.722  0.00  0.00    +0.026 A 
ATOM     14  C   UNL     1       4.352  -6.578   3.317  0.00  0.00    +0.034 A 
ATOM     15  C   UNL     1       5.033  -7.636   2.742  0.00  0.00    +0.127 A 
ATOM     16  C   UNL     1       4.569  -8.205   1.571  0.00  0.00    +0.049 A 
ATOM     17  C   UNL     1       3.421  -7.721   0.973  0.00  0.00    +0.041 A 
ATOM     18 BR   UNL     1       2.784  -8.505  -0.626  0.00  0.00    -0.048 Br
BRANCH  15  19
ATOM     19  N   UNL     1       6.260  -8.161   3.383  0.00  0.00    +0.056 N 
ATOM     20  O   UNL     1       6.666  -7.664   4.408  0.00  0.00    -0.126 OA
ATOM     21  O   UNL     1       6.855  -9.086   2.882  0.00  0.00    -0.126 OA
ENDBRANCH  15  19
ENDBRANCH  10  12
ENDBRANCH   1   8
BRANCH   1  22
ATOM     22  N   UNL     1      -0.093  -2.875   0.675  0.00  0.00    -0.303 NA
ATOM     23  H   UNL     1       0.824  -2.458   0.630  0.00  0.00    +0.123 HD
BRANCH  22  24
ATOM     24  C   UNL     1      -1.002  -2.256  -0.300  0.00  0.00    +0.071 C 
BRANCH  24  25
ATOM     25  C   UNL     1      -1.148  -0.766   0.014  0.00  0.00    -0.024 C 
BRANCH  25  26
ATOM     26  C   UNL     1      -1.742  -0.598   1.389  0.00  0.00    -0.060 A 
ATOM     27  C   UNL     1      -3.105  -0.742   1.575  0.00  0.00    +0.002 A 
ATOM     28  C   UNL     1      -3.650  -0.588   2.837  0.00  0.00    +0.000 A 
ATOM     29  C   UNL     1      -2.832  -0.291   3.911  0.00  0.00    +0.000 A 
ATOM     30  C   UNL     1      -1.470  -0.148   3.725  0.00  0.00    +0.000 A 
ATOM     31  C   UNL     1      -0.924  -0.306   2.465  0.00  0.00    +0.002 A 
ENDBRANCH  25  26
BRANCH  25  33
ATOM     32  C   UNL     1      -2.094   1.307  -0.737  0.00  0.00    -0.096 C 
ATOM     33  N   UNL     1      -2.030  -0.140  -0.980  0.00  0.00    +0.381 N 
ATOM     34  C   UNL     1      -1.502  -0.388  -2.328  0.00  0.00    -0.096 C 
ATOM     35  H   UNL     1      -2.956  -0.535  -0.904  0.00  0.00    -0.082 HD
ENDBRANCH  25  33
ENDBRANCH  24  25
ENDBRANCH  22  24
ENDBRANCH   1  22
TORSDOF 9
