REMARK  Name = ZINC39468741
REMARK  4 active torsions:
REMARK  status: ('A' for Active; 'I' for Inactive)
REMARK    1  A    between atoms: C_4  and  C_7
REMARK    2  A    between atoms: C_7  and  C_8
REMARK    3  A    between atoms: C_25  and  C_26
REMARK    4  A    between atoms: C_31  and  O_32
REMARK                            x       y       z     vdW  Elec       q    Type
REMARK                         _______ _______ _______ _____ _____    ______ ____
ROOT
ATOM      1  C   UNL     1       4.164  -0.959   1.377  0.00  0.00    -0.039 C 
ATOM      2  C   UNL     1       3.894  -2.117   1.968  0.00  0.00    -0.019 C 
ATOM      3  C   UNL     1       4.357  -2.370   3.377  0.00  0.00    +0.016 C 
ATOM      4  C   UNL     1       4.497  -3.864   3.628  0.00  0.00    -0.003 C 
ATOM      5  C   UNL     1       5.527  -4.147   4.731  0.00  0.00    -0.020 C 
ATOM      6  C   UNL     1       5.086  -5.468   5.380  0.00  0.00    +0.159 C 
ATOM      7  O   UNL     1       6.005  -5.847   6.417  0.00  0.00    -0.297 OA
ATOM      8  P   UNL     1       6.367  -4.724   7.538  0.00  0.00    +0.421 P 
ATOM      9  O   UNL     1       7.704  -5.069   8.232  0.00  0.00    -0.239 OA
ATOM     10  N   UNL     1       6.506  -3.314   6.695  0.00  0.00    -0.267 NA
ATOM     11  N   UNL     1       5.585  -3.059   5.699  0.00  0.00    +0.399 N 
ATOM     12  C   UNL     1       6.059  -1.803   5.099  0.00  0.00    -0.046 C 
ATOM     13  C   UNL     1       5.716  -1.711   3.605  0.00  0.00    +0.005 C 
ATOM     14  C   UNL     1       5.660  -0.269   3.175  0.00  0.00    -0.016 C 
ATOM     15  C   UNL     1       4.918   0.079   2.113  0.00  0.00    -0.015 C 
ATOM     16  O   UNL     1       5.232  -4.620   8.581  0.00  0.00    -0.128 OA
ATOM     17  H   UNL     1       7.212  -2.682   6.901  0.00  0.00    +0.113 HD
ATOM     18  H   UNL     1       4.670  -2.918   6.101  0.00  0.00    -0.055 HD
ENDROOT
BRANCH  15  19
ATOM     19  C   UNL     1       4.852   1.497   1.683  0.00  0.00    +0.024 A 
ATOM     20  C   UNL     1       5.538   1.916   0.545  0.00  0.00    +0.012 A 
ATOM     21  C   UNL     1       5.472   3.236   0.149  0.00  0.00    +0.001 A 
ATOM     22  C   UNL     1       4.727   4.147   0.879  0.00  0.00    +0.004 A 
ATOM     23  C   UNL     1       4.043   3.741   2.009  0.00  0.00    +0.046 A 
ATOM     24  C   UNL     1       4.095   2.417   2.415  0.00  0.00    +0.125 A 
BRANCH  24  25
ATOM     25  O   UNL     1       3.419   2.017   3.522  0.00  0.00    -0.506 OA
ATOM     26  H   UNL     1       3.929   2.085   4.341  0.00  0.00    +0.292 HD
ENDBRANCH  24  25
ENDBRANCH  15  19
BRANCH   1  27
ATOM     27  C   UNL     1       3.711  -0.707  -0.038  0.00  0.00    +0.070 C 
BRANCH  27  31
ATOM     28  C   UNL     1      -0.017   1.378   0.010  0.00  0.00    +0.000 A 
ATOM     29  C   UNL     1       1.171   2.086   0.002  0.00  0.00    +0.000 A 
ATOM     30  C   UNL     1       2.377   1.411  -0.013  0.00  0.00    +0.004 A 
ATOM     31  C   UNL     1       2.396   0.029  -0.020  0.00  0.00    -0.043 A 
ATOM     32  C   UNL     1       1.208  -0.679  -0.012  0.00  0.00    +0.004 A 
ATOM     33  C   UNL     1       0.002  -0.004   0.002  0.00  0.00    +0.000 A 
ENDBRANCH  27  31
ENDBRANCH   1  27
TORSDOF 4
