REMARK  Name = ZINC20861062
REMARK  12 active torsions:
REMARK  status: ('A' for Active; 'I' for Inactive)
REMARK    1  A    between atoms: C_1  and  C_2
REMARK    2  A    between atoms: C_2  and  C_3
REMARK    3  A    between atoms: C_8  and  N_9
REMARK    4  A    between atoms: C_10  and  C_12
REMARK    5  A    between atoms: C_12  and  S_13
REMARK    6  A    between atoms: S_13  and  C_14
REMARK    7  A    between atoms: C_19  and  S_22
REMARK    8  A    between atoms: S_22  and  C_25
REMARK    9  A    between atoms: C_28  and  C_31
REMARK   10  A    between atoms: C_31  and  C_32
REMARK   11  A    between atoms: C_31  and  C_33
REMARK   12  A    between atoms: C_31  and  C_34
REMARK                            x       y       z     vdW  Elec       q    Type
REMARK                         _______ _______ _______ _____ _____    ______ ____
ROOT
ATOM      1  C   UNL     1       1.145   3.074  -0.024  0.00  0.00    +0.169 A 
ATOM      2  N   UNL     1      -0.013   3.790  -0.014  0.00  0.00    -0.300 N 
ATOM      3  H   UNL     1       0.020   4.889  -0.004  0.00  0.00    +0.171 HD
ATOM      4  C   UNL     1      -1.199   3.145  -0.017  0.00  0.00    +0.277 A 
ATOM      5  O   UNL     1      -2.247   3.771  -0.009  0.00  0.00    -0.266 OA
ATOM      6  C   UNL     1      -1.205   1.740  -0.036  0.00  0.00    +0.176 A 
ATOM      7  C   UNL     1      -0.013   1.075  -0.040  0.00  0.00    +0.146 A 
ATOM      8  N   UNL     1       1.131   1.754  -0.036  0.00  0.00    -0.230 NA
ENDROOT
BRANCH   6   9
ATOM      9  S   UNL     1      -2.726   0.850  -0.048  0.00  0.00    +0.032 S 
ATOM     10  O   UNL     1      -3.526   1.429  -1.070  0.00  0.00    -0.164 OA
ATOM     11  O   UNL     1      -2.389  -0.530  -0.034  0.00  0.00    -0.164 OA
BRANCH   9  12
ATOM     12  C   UNL     1      -3.538   1.187   1.479  0.00  0.00    +0.094 A 
ATOM     13  C   UNL     1      -3.314   0.374   2.575  0.00  0.00    +0.027 A 
ATOM     14  C   UNL     1      -3.948   0.641   3.774  0.00  0.00    +0.006 A 
ATOM     15  C   UNL     1      -4.813   1.714   3.875  0.00  0.00    -0.042 A 
ATOM     16  C   UNL     1      -5.040   2.524   2.778  0.00  0.00    +0.006 A 
ATOM     17  C   UNL     1      -4.403   2.260   1.580  0.00  0.00    +0.027 A 
BRANCH  15  18
ATOM     18  C   UNL     1      -5.508   2.002   5.181  0.00  0.00    -0.013 C 
ATOM     19  C   UNL     1      -7.023   1.934   4.979  0.00  0.00    +0.015 C 
ATOM     20  C   UNL     1      -5.085   0.965   6.223  0.00  0.00    +0.015 C 
ATOM     21  C   UNL     1      -5.120   3.400   5.667  0.00  0.00    +0.015 C 
ENDBRANCH  15  18
ENDBRANCH   9  12
ENDBRANCH   6   9
BRANCH   1  22
ATOM     22  S   UNL     1       2.689   3.923  -0.021  0.00  0.00    -0.078 S 
BRANCH  22  23
ATOM     23  C   UNL     1       3.824   2.513  -0.037  0.00  0.00    +0.173 C 
BRANCH  23  25
ATOM     24  N   UNL     1       6.268   2.134  -0.048  0.00  0.00    -0.285 N 
ATOM     25  C   UNL     1       5.246   3.012  -0.037  0.00  0.00    +0.227 C 
ATOM     26  O   UNL     1       5.470   4.204  -0.026  0.00  0.00    -0.275 OA
ATOM     27  H   UNL     1       6.068   1.056   0.034  0.00  0.00    +0.155 HD
BRANCH  24  33
ATOM     28  C   UNL     1       8.636   1.826   0.317  0.00  0.00    -0.026 A 
ATOM     29  C   UNL     1       9.934   2.283   0.201  0.00  0.00    +0.005 A 
ATOM     30  C   UNL     1      10.187   3.505  -0.395  0.00  0.00    +0.000 A 
ATOM     31  C   UNL     1       9.142   4.274  -0.875  0.00  0.00    +0.002 A 
ATOM     32  C   UNL     1       7.843   3.820  -0.767  0.00  0.00    +0.023 A 
ATOM     33  C   UNL     1       7.584   2.595  -0.165  0.00  0.00    +0.037 A 
BRANCH  28  35
ATOM     34  C   UNL     1       8.258  -0.587  -0.114  0.00  0.00    +0.009 C 
ATOM     35  C   UNL     1       8.361   0.493   0.965  0.00  0.00    +0.033 C 
ENDBRANCH  28  35
ENDBRANCH  24  33
ENDBRANCH  23  25
ENDBRANCH  22  23
ENDBRANCH   1  22
TORSDOF 8
