REMARK  Name = ZINC61853658
REMARK  8 active torsions:
REMARK  status: ('A' for Active; 'I' for Inactive)
REMARK    1  A    between atoms: C_1  and  C_2
REMARK    2  A    between atoms: C_2  and  C_3
REMARK    3  A    between atoms: C_2  and  N_10
REMARK    4  A    between atoms: C_11  and  C_13
REMARK    5  A    between atoms: N_15  and  C_16
REMARK    6  A    between atoms: C_21  and  N_22
REMARK    7  A    between atoms: N_22  and  C_23
REMARK    8  A    between atoms: N_22  and  C_24
REMARK                            x       y       z     vdW  Elec       q    Type
REMARK                         _______ _______ _______ _____ _____    ______ ____
ROOT
ATOM      1  C   UNL     1       2.776  -1.091   2.384  0.00  0.00    +0.303 C 
ATOM      2  O   UNL     1       2.153  -1.400   3.379  0.00  0.00    -0.265 OA
ATOM      3  N   UNL     1       4.119  -1.205   2.368  0.00  0.00    -0.276 N 
ATOM      4  H   UNL     1       4.611  -1.035   1.549  0.00  0.00    +0.155 HD
ENDROOT
BRANCH   3   5
ATOM      5  C   UNL     1       4.804  -1.568   3.533  0.00  0.00    +0.056 A 
ATOM      6  C   UNL     1       4.242  -1.319   4.777  0.00  0.00    +0.025 A 
ATOM      7  C   UNL     1       4.921  -1.677   5.926  0.00  0.00    +0.003 A 
ATOM      8  C   UNL     1       6.161  -2.285   5.841  0.00  0.00    +0.022 A 
ATOM      9  C   UNL     1       6.729  -2.538   4.606  0.00  0.00    +0.064 A 
ATOM     10  C   UNL     1       6.052  -2.186   3.446  0.00  0.00    +0.069 A 
ATOM     11 CL   UNL     1       8.285  -3.301   4.506  0.00  0.00    -0.082 Cl
BRANCH  10  12
ATOM     12  N   UNL     1       6.622  -2.445   2.195  0.00  0.00    -0.333 N 
ATOM     13  C   UNL     1       7.484  -1.444   1.562  0.00  0.00    +0.129 C 
ATOM     14  C   UNL     1       6.356  -3.717   1.518  0.00  0.00    +0.129 C 
ENDBRANCH  10  12
ENDBRANCH   3   5
BRANCH   1  16
ATOM     15  N   UNL     1       0.713  -0.471   1.195  0.00  0.00    -0.301 N 
ATOM     16  C   UNL     1       2.055  -0.585   1.179  0.00  0.00    +0.300 C 
ATOM     17  O   UNL     1       2.679  -0.277   0.184  0.00  0.00    -0.265 OA
ATOM     18  H   UNL     1       0.214  -0.718   1.990  0.00  0.00    +0.150 HD
BRANCH  15  20
ATOM     19  C   UNL     1      -0.011   1.555   0.032  0.00  0.00    +0.033 C 
ATOM     20  C   UNL     1       0.005   0.025   0.011  0.00  0.00    +0.101 C 
BRANCH  20  21
ATOM     21  C   UNL     1      -1.410  -0.493   0.018  0.00  0.00    -0.027 A 
ATOM     22  C   UNL     1      -2.121  -0.545   1.203  0.00  0.00    +0.007 A 
ATOM     23  C   UNL     1      -3.419  -1.020   1.210  0.00  0.00    +0.020 A 
ATOM     24  C   UNL     1      -4.007  -1.443   0.031  0.00  0.00    +0.041 A 
ATOM     25  C   UNL     1      -3.295  -1.390  -1.155  0.00  0.00    +0.020 A 
ATOM     26  C   UNL     1      -1.999  -0.910  -1.161  0.00  0.00    +0.007 A 
ATOM     27 CL   UNL     1      -5.637  -2.040   0.038  0.00  0.00    -0.084 Cl
ENDBRANCH  20  21
ENDBRANCH  15  20
ENDBRANCH   1  16
TORSDOF 5
