REMARK  Name = ZINC09553786
REMARK  4 active torsions:
REMARK  status: ('A' for Active; 'I' for Inactive)
REMARK    1  A    between atoms: C_3  and  C_6
REMARK    2  A    between atoms: C_12  and  C_13
REMARK    3  A    between atoms: C_16  and  O_20
REMARK    4  A    between atoms: C_17  and  O_19
REMARK                            x       y       z     vdW  Elec       q    Type
REMARK                         _______ _______ _______ _____ _____    ______ ____
ROOT
ATOM      1  C   UNL     1       3.744   2.313   0.321  0.00  0.00    +0.136 C 
ATOM      2  N   UNL     1       4.781   1.508   0.368  0.00  0.00    -0.164 NA
ATOM      3  N   UNL     1       6.055   1.978   0.129  0.00  0.00    -0.152 N 
ATOM      4  C   UNL     1       7.223   1.189   0.061  0.00  0.00    +0.153 C 
ATOM      5  N   UNL     1       7.211  -0.091  -0.202  0.00  0.00    -0.283 NA
ATOM      6  C   UNL     1       8.473   1.961   0.318  0.00  0.00    +0.081 C 
ATOM      7  C   UNL     1       9.561   1.393   0.941  0.00  0.00    +0.024 C 
ATOM      8  C   UNL     1       8.480   3.374  -0.135  0.00  0.00    +0.273 C 
ATOM      9  O   UNL     1       9.528   3.944  -0.395  0.00  0.00    -0.268 OA
ATOM     10  N   UNL     1       7.298   4.009  -0.252  0.00  0.00    -0.152 NA
ATOM     11  C   UNL     1       6.188   3.332  -0.090  0.00  0.00    +0.181 C 
ATOM     12  S   UNL     1       4.502   3.883  -0.076  0.00  0.00    -0.032 S 
ATOM     13  H   UNL     1       6.370  -0.545  -0.362  0.00  0.00    +0.188 HD
ENDROOT
BRANCH   7  14
ATOM     14  C   UNL     1      10.693   2.230   1.344  0.00  0.00    -0.021 A 
ATOM     15  C   UNL     1      10.473   3.526   1.830  0.00  0.00    +0.012 A 
ATOM     16  C   UNL     1      11.539   4.310   2.207  0.00  0.00    +0.050 A 
ATOM     17  C   UNL     1      12.836   3.820   2.108  0.00  0.00    +0.158 A 
ATOM     18  C   UNL     1      13.065   2.531   1.625  0.00  0.00    +0.159 A 
ATOM     19  C   UNL     1      12.002   1.735   1.250  0.00  0.00    +0.057 A 
BRANCH  18  20
ATOM     20  O   UNL     1      14.336   2.057   1.530  0.00  0.00    -0.503 OA
ATOM     21  H   UNL     1      14.647   1.602   2.325  0.00  0.00    +0.292 HD
ENDBRANCH  18  20
BRANCH  17  22
ATOM     22  O   UNL     1      13.884   4.598   2.481  0.00  0.00    -0.503 OA
ATOM     23  H   UNL     1      14.130   4.506   3.412  0.00  0.00    +0.292 HD
ENDBRANCH  17  22
ENDBRANCH   7  14
BRANCH   1  26
ATOM     24  C   UNL     1      -0.015   2.316   0.719  0.00  0.00    +0.008 A 
ATOM     25  C   UNL     1       1.236   2.839   0.481  0.00  0.00    +0.018 A 
ATOM     26  C   UNL     1       2.321   2.002   0.535  0.00  0.00    +0.046 A 
ATOM     27  S   UNL     1       1.559   0.437   0.930  0.00  0.00    -0.095 S 
ATOM     28  C   UNL     1      -0.137   0.992   0.998  0.00  0.00    +0.046 A 
ENDBRANCH   1  26
TORSDOF 4
