REMARK  Name = ZINC17952281
REMARK  9 active torsions:
REMARK  status: ('A' for Active; 'I' for Inactive)
REMARK    1  A    between atoms: C_1  and  C_2
REMARK    2  A    between atoms: C_2  and  C_3
REMARK    3  A    between atoms: C_3  and  C_5
REMARK    4  A    between atoms: C_3  and  N_6
REMARK    5  A    between atoms: N_6  and  C_7
REMARK    6  A    between atoms: C_15  and  C_17
REMARK    7  A    between atoms: C_17  and  S_18
REMARK    8  A    between atoms: S_18  and  C_19
REMARK    9  A    between atoms: N_23  and  C_24
REMARK                            x       y       z     vdW  Elec       q    Type
REMARK                         _______ _______ _______ _____ _____    ______ ____
ROOT
ATOM      1  C   UNL     1       5.388   5.713   0.058  0.00  0.00    +0.198 A 
ATOM      2  N   UNL     1       6.286   4.789  -0.183  0.00  0.00    -0.120 NA
ATOM      3  N   UNL     1       7.529   5.418  -0.327  0.00  0.00    -0.112 NA
ATOM      4  C   UNL     1       7.354   6.706  -0.162  0.00  0.00    +0.225 A 
ATOM      5  N   UNL     1       6.025   6.925   0.081  0.00  0.00    -0.259 N 
ATOM      6  N   UNL     1       8.344   7.679  -0.222  0.00  0.00    -0.299 N 
ATOM      7  C   UNL     1       8.850   7.830  -1.592  0.00  0.00    +0.108 C 
ATOM      8  C   UNL     1       9.830   9.005  -1.648  0.00  0.00    +0.019 C 
ATOM      9  C   UNL     1      10.989   8.743  -0.682  0.00  0.00    +0.003 C 
ATOM     10  C   UNL     1      10.430   8.541   0.730  0.00  0.00    +0.019 C 
ATOM     11  C   UNL     1       9.433   7.380   0.717  0.00  0.00    +0.108 C 
ENDROOT
BRANCH   5  12
ATOM     12  C   UNL     1       5.423   8.170   0.313  0.00  0.00    +0.052 A 
ATOM     13  C   UNL     1       5.377   9.120  -0.698  0.00  0.00    +0.026 A 
ATOM     14  C   UNL     1       4.778  10.343  -0.468  0.00  0.00    +0.002 A 
ATOM     15  C   UNL     1       4.234  10.626   0.771  0.00  0.00    +0.000 A 
ATOM     16  C   UNL     1       4.284   9.684   1.782  0.00  0.00    +0.002 A 
ATOM     17  C   UNL     1       4.876   8.457   1.556  0.00  0.00    +0.026 A 
ENDBRANCH   5  12
BRANCH   1  18
ATOM     18  S   UNL     1       3.666   5.443   0.313  0.00  0.00    -0.076 S 
BRANCH  18  19
ATOM     19  C   UNL     1       3.475   3.646   0.154  0.00  0.00    +0.173 C 
BRANCH  19  21
ATOM     20  N   UNL     1       1.661   1.978   0.373  0.00  0.00    -0.293 N 
ATOM     21  C   UNL     1       2.028   3.275   0.353  0.00  0.00    +0.226 C 
ATOM     22  O   UNL     1       1.193   4.143   0.496  0.00  0.00    -0.275 OA
BRANCH  20  23
ATOM     23  C   UNL     1       0.243   1.619   0.457  0.00  0.00    +0.099 C 
ATOM     24  C   UNL     1      -0.499   2.180  -0.767  0.00  0.00    +0.046 C 
ATOM     25  C   UNL     1      -2.027   2.064  -0.502  0.00  0.00    +0.168 C 
ATOM     26  S   UNL     1      -2.099   2.554   1.273  0.00  0.00    -0.029 S 
ATOM     27  O   UNL     1      -2.334   3.953   1.358  0.00  0.00    -0.174 OA
ATOM     28  O   UNL     1      -2.958   1.657   1.965  0.00  0.00    -0.174 OA
ATOM     29  C   UNL     1      -0.360   2.209   1.755  0.00  0.00    +0.188 C 
ENDBRANCH  20  23
BRANCH  20  30
ATOM     30  C   UNL     1       2.680   0.928   0.310  0.00  0.00    +0.073 C 
ATOM     31  C   UNL     1       2.656   0.115   1.606  0.00  0.00    +0.028 C 
BRANCH  30  33
ATOM     32  C   UNL     1       2.550   0.787  -2.181  0.00  0.00    +0.005 C 
ATOM     33  C   UNL     1       2.390   0.006  -0.876  0.00  0.00    +0.019 C 
ENDBRANCH  30  33
ENDBRANCH  20  30
ENDBRANCH  19  21
ENDBRANCH  18  19
ENDBRANCH   1  18
TORSDOF 7
