REMARK  Name = ZINC39448847
REMARK  6 active torsions:
REMARK  status: ('A' for Active; 'I' for Inactive)
REMARK    1  A    between atoms: C_1  and  O_2
REMARK    2  A    between atoms: O_2  and  C_3
REMARK    3  A    between atoms: C_6  and  C_9
REMARK    4  A    between atoms: C_14  and  S_16
REMARK    5  A    between atoms: S_16  and  C_17
REMARK    6  A    between atoms: C_17  and  C_18
REMARK                            x       y       z     vdW  Elec       q    Type
REMARK                         _______ _______ _______ _____ _____    ______ ____
ROOT
ATOM      1  C   UNL     1      -4.981  -2.629   0.035  0.00  0.00    +0.200 C 
ATOM      2  N   UNL     1      -5.978  -1.806  -0.659  0.00  0.00    -0.336 N 
ATOM      3  C   UNL     1      -6.204  -1.978  -1.935  0.00  0.00    +0.190 C 
ATOM      4  N   UNL     1      -5.577  -2.928  -2.647  0.00  0.00    -0.195 NA
ATOM      5  C   UNL     1      -4.898  -3.890  -2.047  0.00  0.00    +0.159 C 
ATOM      6  N   UNL     1      -4.869  -3.915  -0.671  0.00  0.00    -0.300 N 
ATOM      7  N   UNL     1      -7.115  -1.157  -2.570  0.00  0.00    -0.329 N 
ATOM      8  H   UNL     1      -7.576  -0.466  -2.069  0.00  0.00    +0.145 HD
ATOM      9  H   UNL     1      -7.293  -1.272  -3.516  0.00  0.00    +0.145 HD
ATOM     10  H   UNL     1      -4.778  -4.749  -0.185  0.00  0.00    +0.150 HD
ATOM     11  H   UNL     1      -6.473  -1.131  -0.168  0.00  0.00    +0.164 HD
ENDROOT
BRANCH   1  15
ATOM     12  C   UNL     1      -1.200  -0.637   0.010  0.00  0.00    +0.120 A 
ATOM     13  C   UNL     1      -2.375   0.101   0.019  0.00  0.00    +0.046 A 
ATOM     14  C   UNL     1      -3.596  -0.545   0.027  0.00  0.00    +0.011 A 
ATOM     15  C   UNL     1      -3.648  -1.927   0.026  0.00  0.00    -0.007 A 
ATOM     16  C   UNL     1      -2.479  -2.665   0.017  0.00  0.00    +0.011 A 
ATOM     17  C   UNL     1      -1.255  -2.024   0.003  0.00  0.00    +0.046 A 
BRANCH  12  19
ATOM     18  C   UNL     1      -0.017   1.425   0.010  0.00  0.00    +0.277 C 
ATOM     19  O   UNL     1       0.002  -0.004   0.002  0.00  0.00    -0.495 OA
ENDBRANCH  12  19
ENDBRANCH   1  15
BRANCH   5  20
ATOM     20  S   UNL     1      -4.050  -5.115  -2.987  0.00  0.00    -0.081 S 
BRANCH  20  21
ATOM     21  C   UNL     1      -4.386  -4.657  -4.710  0.00  0.00    +0.173 C 
BRANCH  21  22
ATOM     22  C   UNL     1      -3.709  -5.638  -5.632  0.00  0.00    +0.234 C 
ATOM     23  O   UNL     1      -3.063  -6.556  -5.172  0.00  0.00    -0.274 OA
ATOM     24  N   UNL     1      -3.821  -5.495  -6.968  0.00  0.00    -0.239 N 
ATOM     25  C   UNL     1      -4.557  -4.439  -7.523  0.00  0.00    +0.044 A 
ATOM     26  C   UNL     1      -4.206  -3.142  -7.166  0.00  0.00    +0.024 A 
ATOM     27  C   UNL     1      -4.871  -2.062  -7.708  0.00  0.00    +0.002 A 
ATOM     28  C   UNL     1      -5.890  -2.285  -8.617  0.00  0.00    +0.000 A 
ATOM     29  C   UNL     1      -6.246  -3.569  -8.959  0.00  0.00    +0.005 A 
ATOM     30  C   UNL     1      -5.600  -4.677  -8.406  0.00  0.00    -0.025 A 
ATOM     31  C   UNL     1      -6.170  -6.014  -8.820  0.00  0.00    +0.042 C 
ATOM     32  C   UNL     1      -5.495  -7.192  -8.141  0.00  0.00    +0.042 C 
ATOM     33  C   UNL     1      -4.033  -7.271  -8.500  0.00  0.00    -0.025 A 
ATOM     34  C   UNL     1      -3.200  -6.395  -7.845  0.00  0.00    +0.044 A 
ATOM     35  C   UNL     1      -1.834  -6.411  -8.063  0.00  0.00    +0.024 A 
ATOM     36  C   UNL     1      -1.318  -7.313  -8.979  0.00  0.00    +0.002 A 
ATOM     37  C   UNL     1      -2.157  -8.177  -9.660  0.00  0.00    +0.000 A 
ATOM     38  C   UNL     1      -3.537  -8.165  -9.421  0.00  0.00    +0.005 A 
ENDBRANCH  21  22
ENDBRANCH  20  21
ENDBRANCH   5  20
TORSDOF 5
