REMARK  Name = ZINC09255317
REMARK  10 active torsions:
REMARK  status: ('A' for Active; 'I' for Inactive)
REMARK    1  A    between atoms: C_1  and  C_2
REMARK    2  A    between atoms: C_6  and  N_9
REMARK    3  A    between atoms: C_7  and  C_8
REMARK    4  A    between atoms: C_10  and  S_14
REMARK    5  A    between atoms: S_14  and  C_15
REMARK    6  A    between atoms: C_15  and  C_16
REMARK    7  A    between atoms: C_16  and  C_18
REMARK    8  A    between atoms: C_20  and  C_32
REMARK    9  A    between atoms: N_21  and  C_24
REMARK   10  A    between atoms: C_22  and  C_23
REMARK                            x       y       z     vdW  Elec       q    Type
REMARK                         _______ _______ _______ _____ _____    ______ ____
ROOT
ATOM      1  C   UNL     1      -6.778  -0.127   0.454  0.00  0.00    +0.175 C 
ATOM      2  O   UNL     1      -6.062  -1.102   0.550  0.00  0.00    -0.291 OA
ENDROOT
BRANCH   1   3
ATOM      3  C   UNL     1      -8.232  -0.276   0.537  0.00  0.00    +0.039 A 
ATOM      4  C   UNL     1      -9.239   0.790   0.440  0.00  0.00    +0.034 A 
ATOM      5  C   UNL     1     -10.435   0.194   0.571  0.00  0.00    +0.017 A 
ATOM      6  N   UNL     1     -10.251  -1.148   0.739  0.00  0.00    -0.343 N 
ATOM      7  C   UNL     1      -8.941  -1.449   0.715  0.00  0.00    +0.027 A 
ATOM      8  C   UNL     1      -8.347  -2.827   0.862  0.00  0.00    +0.064 C 
ATOM      9  C   UNL     1     -11.769   0.895   0.537  0.00  0.00    +0.063 C 
BRANCH   6  10
ATOM     10  C   UNL     1     -11.330  -2.124   0.914  0.00  0.00    +0.110 C 
ATOM     11  C   UNL     1     -12.303  -2.027  -0.273  0.00  0.00    +0.049 C 
ATOM     12  C   UNL     1     -13.585  -2.833   0.085  0.00  0.00    +0.168 C 
ATOM     13  S   UNL     1     -13.798  -2.361   1.853  0.00  0.00    -0.029 S 
ATOM     14  O   UNL     1     -14.658  -1.232   1.929  0.00  0.00    -0.174 OA
ATOM     15  O   UNL     1     -14.103  -3.525   2.608  0.00  0.00    -0.174 OA
ATOM     16  C   UNL     1     -12.079  -1.831   2.236  0.00  0.00    +0.191 C 
ENDBRANCH   6  10
ENDBRANCH   1   3
BRANCH   1  17
ATOM     17  C   UNL     1      -6.171   1.237   0.249  0.00  0.00    +0.157 C 
BRANCH  17  18
ATOM     18  S   UNL     1      -4.367   1.092   0.189  0.00  0.00    -0.076 S 
BRANCH  18  20
ATOM     19  N   UNL     1      -2.672   3.286  -0.172  0.00  0.00    -0.187 N 
ATOM     20  C   UNL     1      -3.932   2.782  -0.051  0.00  0.00    +0.214 A 
ATOM     21  N   UNL     1      -4.762   3.799  -0.148  0.00  0.00    -0.101 NA
ATOM     22  N   UNL     1      -4.115   4.894  -0.320  0.00  0.00    -0.022 NA
ATOM     23  N   UNL     1      -2.846   4.671  -0.341  0.00  0.00    -0.038 NA
BRANCH  19  29
ATOM     24  C   UNL     1       1.897   2.805   1.586  0.00  0.00    +0.044 C 
ATOM     25  C   UNL     1       0.767   2.322   0.713  0.00  0.00    -0.046 A 
ATOM     26  C   UNL     1       0.923   1.179  -0.049  0.00  0.00    +0.004 A 
ATOM     27  C   UNL     1      -0.112   0.732  -0.850  0.00  0.00    +0.002 A 
ATOM     28  C   UNL     1      -1.302   1.431  -0.897  0.00  0.00    +0.028 A 
ATOM     29  C   UNL     1      -1.463   2.577  -0.130  0.00  0.00    +0.073 A 
ATOM     30  C   UNL     1      -0.423   3.022   0.674  0.00  0.00    -0.022 A 
ATOM     31  C   UNL     1      -0.591   4.269   1.504  0.00  0.00    +0.046 C 
ENDBRANCH  19  29
ENDBRANCH  18  20
ENDBRANCH  17  18
ENDBRANCH   1  17
TORSDOF 6
