REMARK  Name = ZINC50564103
REMARK  3 active torsions:
REMARK  status: ('A' for Active; 'I' for Inactive)
REMARK    1  A    between atoms: C_1  and  C_2
REMARK    2  A    between atoms: C_8  and  C_10
REMARK    3  A    between atoms: C_16  and  N_21
REMARK                            x       y       z     vdW  Elec       q    Type
REMARK                         _______ _______ _______ _____ _____    ______ ____
ROOT
ATOM      1  C   UNL     1      -0.286   1.313   0.098  0.00  0.00    +0.009 C 
ATOM      2  C   UNL     1      -0.084  -0.204   0.116  0.00  0.00    +0.006 C 
ATOM      3  C   UNL     1       0.579  -0.646  -1.190  0.00  0.00    +0.006 C 
ATOM      4  C   UNL     1       0.752  -2.167  -1.187  0.00  0.00    +0.019 C 
ATOM      5  C   UNL     1       1.662  -2.570  -0.022  0.00  0.00    +0.107 C 
ATOM      6  N   UNL     1       1.107  -2.024   1.223  0.00  0.00    -0.312 N 
ATOM      7  C   UNL     1       0.816  -0.585   1.296  0.00  0.00    +0.075 C 
ATOM      8  C   UNL     1       0.098  -0.272   2.611  0.00  0.00    +0.028 C 
ATOM      9  C   UNL     1       0.861  -2.850   2.310  0.00  0.00    +0.122 A 
ATOM     10  C   UNL     1       1.885  -3.081   3.240  0.00  0.00    +0.044 A 
ATOM     11  C   UNL     1       1.657  -3.890   4.313  0.00  0.00    +0.013 A 
ATOM     12  C   UNL     1       0.381  -4.475   4.451  0.00  0.00    +0.002 A 
ATOM     13  C   UNL     1       0.081  -5.317   5.532  0.00  0.00    +0.032 A 
ATOM     14  C   UNL     1      -1.177  -5.869   5.633  0.00  0.00    +0.025 A 
ATOM     15  C   UNL     1      -2.153  -5.596   4.668  0.00  0.00    +0.025 A 
ATOM     16  C   UNL     1      -1.884  -4.783   3.612  0.00  0.00    +0.030 A 
ATOM     17  C   UNL     1      -0.611  -4.202   3.478  0.00  0.00    +0.073 A 
ATOM     18  N   UNL     1      -0.330  -3.395   2.447  0.00  0.00    -0.232 NA
ENDROOT
BRANCH  14  19
ATOM     19  N   UNL     1      -1.481  -6.709   6.708  0.00  0.00    -0.358 N 
ATOM     20  H   UNL     1      -0.808  -6.900   7.380  0.00  0.00    +0.142 HD
ATOM     21  H   UNL     1      -2.366  -7.099   6.783  0.00  0.00    +0.142 HD
ENDBRANCH  14  19
TORSDOF 1
