REMARK  Name = ZINC12409981
REMARK  8 active torsions:
REMARK  status: ('A' for Active; 'I' for Inactive)
REMARK    1  A    between atoms: C_1  and  O_2
REMARK    2  A    between atoms: O_2  and  C_3
REMARK    3  A    between atoms: C_5  and  C_13
REMARK    4  A    between atoms: C_7  and  O_11
REMARK    5  A    between atoms: C_8  and  O_9
REMARK    6  A    between atoms: O_9  and  C_10
REMARK    7  A    between atoms: O_11  and  C_12
REMARK    8  A    between atoms: C_18  and  C_23
REMARK                            x       y       z     vdW  Elec       q    Type
REMARK                         _______ _______ _______ _____ _____    ______ ____
ROOT
ATOM      1  C   UNL     1       4.856   1.157  -0.037  0.00  0.00    +0.138 C 
ATOM      2  C   UNL     1       5.082   0.654  -1.448  0.00  0.00    +0.037 C 
ATOM      3  C   UNL     1       4.974  -0.582  -1.955  0.00  0.00    +0.019 C 
ATOM      4  C   UNL     1       5.200  -0.844  -3.435  0.00  0.00    +0.060 C 
ATOM      5  C   UNL     1       6.293   0.084  -3.963  0.00  0.00    +0.039 C 
ATOM      6  C   UNL     1       5.805   1.523  -3.756  0.00  0.00    +0.088 C 
ATOM      7  C   UNL     1       5.471   1.717  -2.312  0.00  0.00    +0.163 C 
ATOM      8  O   UNL     1       5.534   2.840  -1.852  0.00  0.00    -0.292 OA
ATOM      9  N   UNL     1       4.673  -1.704  -1.239  0.00  0.00    -0.297 N 
ATOM     10  C   UNL     1       3.679  -1.730  -0.270  0.00  0.00    +0.208 A 
ATOM     11  C   UNL     1       3.760  -0.840   0.879  0.00  0.00    +0.205 A 
ATOM     12  N   UNL     1       2.765  -1.091   1.671  0.00  0.00    -0.032 NA
ATOM     13  O   UNL     1       1.985  -2.111   1.062  0.00  0.00    -0.239 OA
ATOM     14  N   UNL     1       2.611  -2.454  -0.168  0.00  0.00    -0.032 NA
ATOM     15  N   UNL     1       4.755   0.126   0.980  0.00  0.00    -0.313 N 
ATOM     16  H   UNL     1       5.174  -2.515  -1.413  0.00  0.00    +0.153 HD
ATOM     17  H   UNL     1       5.375   0.111   1.726  0.00  0.00    +0.149 HD
ENDROOT
BRANCH   1  20
ATOM     18  C   UNL     1       2.457   4.058   0.293  0.00  0.00    +0.165 A 
ATOM     19  C   UNL     1       3.626   3.314   0.271  0.00  0.00    +0.055 A 
ATOM     20  C   UNL     1       3.583   1.964  -0.021  0.00  0.00    -0.016 A 
ATOM     21  C   UNL     1       2.376   1.352  -0.302  0.00  0.00    +0.055 A 
ATOM     22  C   UNL     1       1.202   2.090  -0.287  0.00  0.00    +0.165 A 
ATOM     23  C   UNL     1       1.241   3.447   0.011  0.00  0.00    +0.204 A 
BRANCH  18  25
ATOM     24  C   UNL     1       3.784   5.947   0.865  0.00  0.00    +0.277 C 
ATOM     25  O   UNL     1       2.500   5.386   0.585  0.00  0.00    -0.491 OA
ENDBRANCH  18  25
BRANCH  23  26
ATOM     26  O   UNL     1       0.091   4.175   0.026  0.00  0.00    -0.488 OA
ATOM     27  C   UNL     1      -0.304   4.790  -1.202  0.00  0.00    +0.277 C 
ENDBRANCH  23  26
BRANCH  22  28
ATOM     28  O   UNL     1       0.015   1.488  -0.565  0.00  0.00    -0.491 OA
ATOM     29  C   UNL     1       0.051   0.090  -0.862  0.00  0.00    +0.277 C 
ENDBRANCH  22  28
ENDBRANCH   1  20
BRANCH   5  30
ATOM     30  C   UNL     1       6.521  -0.175  -5.430  0.00  0.00    -0.006 A 
ATOM     31  C   UNL     1       7.663  -0.533  -6.066  0.00  0.00    +0.011 A 
ATOM     32  C   UNL     1       7.637  -0.720  -7.436  0.00  0.00    +0.008 A 
ATOM     33  C   UNL     1       6.471  -0.538  -8.102  0.00  0.00    +0.045 A 
ATOM     34  S   UNL     1       5.356  -0.096  -6.780  0.00  0.00    -0.101 S 
ENDBRANCH   5  30
TORSDOF 5
