REMARK  Name = ZINC54189489
REMARK  9 active torsions:
REMARK  status: ('A' for Active; 'I' for Inactive)
REMARK    1  A    between atoms: C_1  and  C_2
REMARK    2  A    between atoms: C_4  and  O_9
REMARK    3  A    between atoms: O_9  and  C_10
REMARK    4  A    between atoms: C_10  and  C_12
REMARK    5  A    between atoms: C_12  and  C_13
REMARK    6  A    between atoms: C_13  and  C_14
REMARK    7  A    between atoms: C_15  and  C_27
REMARK    8  A    between atoms: C_18  and  C_24
REMARK    9  A    between atoms: C_22  and  C_23
REMARK                            x       y       z     vdW  Elec       q    Type
REMARK                         _______ _______ _______ _____ _____    ______ ____
ROOT
ATOM      1  C   UNL     1       0.520  -7.141  -4.590  0.00  0.00    -0.006 A 
ATOM      2  C   UNL     1      -0.628  -7.524  -5.296  0.00  0.00    +0.045 A 
ATOM      3  N   UNL     1      -0.521  -8.207  -6.414  0.00  0.00    -0.232 NA
ATOM      4  C   UNL     1       0.676  -8.546  -6.896  0.00  0.00    +0.170 A 
ATOM      5  C   UNL     1       1.087  -9.252  -8.034  0.00  0.00    +0.169 A 
ATOM      6  N   UNL     1       2.436  -9.292  -8.011  0.00  0.00    -0.229 NA
ATOM      7  C   UNL     1       2.876  -8.669  -6.956  0.00  0.00    +0.206 A 
ATOM      8  N   UNL     1       1.825  -8.189  -6.234  0.00  0.00    -0.287 N 
ATOM      9  C   UNL     1       1.743  -7.475  -5.073  0.00  0.00    +0.028 A 
ATOM     10  C   UNL     1       2.993  -7.069  -4.335  0.00  0.00    +0.064 C 
ATOM     11  C   UNL     1      -1.991  -7.153  -4.771  0.00  0.00    +0.066 C 
ENDROOT
BRANCH   5  12
ATOM     12  C   UNL     1       0.218  -9.838  -9.054  0.00  0.00    +0.264 C 
ATOM     13  O   UNL     1      -0.992  -9.731  -8.958  0.00  0.00    -0.269 OA
ATOM     14  N   UNL     1       0.755 -10.494 -10.101  0.00  0.00    -0.324 N 
ATOM     15  H   UNL     1       1.718 -10.579 -10.178  0.00  0.00    +0.145 HD
ATOM     16  H   UNL     1       0.179 -10.882 -10.778  0.00  0.00    +0.145 HD
ENDBRANCH   5  12
BRANCH   1  17
ATOM     17  C   UNL     1       0.398  -6.359  -3.308  0.00  0.00    +0.050 C 
BRANCH  17  18
ATOM     18  C   UNL     1       0.273  -4.868  -3.630  0.00  0.00    +0.126 C 
BRANCH  18  19
ATOM     19  C   UNL     1       0.150  -4.086  -2.348  0.00  0.00    +0.313 C 
ATOM     20  O   UNL     1       0.162  -4.661  -1.285  0.00  0.00    -0.250 OA
BRANCH  19  21
ATOM     21  O   UNL     1       0.028  -2.749  -2.386  0.00  0.00    -0.426 OA
BRANCH  21  25
ATOM     22  C   UNL     1       2.489  -1.223   1.544  0.00  0.00    +0.045 C 
ATOM     23  C   UNL     1       1.220  -1.308   0.735  0.00  0.00    -0.029 A 
ATOM     24  C   UNL     1       1.209  -1.996  -0.463  0.00  0.00    +0.051 A 
ATOM     25  C   UNL     1       0.041  -2.073  -1.206  0.00  0.00    +0.132 A 
ATOM     26  C   UNL     1      -1.115  -1.460  -0.745  0.00  0.00    +0.048 A 
ATOM     27  C   UNL     1      -1.101  -0.773   0.453  0.00  0.00    +0.024 A 
ATOM     28  C   UNL     1       0.065  -0.701   1.196  0.00  0.00    +0.044 A 
ATOM     29 CL   UNL     1       0.079   0.156   2.705  0.00  0.00    -0.083 Cl
ENDBRANCH  21  25
ENDBRANCH  19  21
ENDBRANCH  18  19
ENDBRANCH  17  18
ENDBRANCH   1  17
TORSDOF 6
