REMARK  Name = ZINC05481519
REMARK  13 active torsions:
REMARK  status: ('A' for Active; 'I' for Inactive)
REMARK    1  A    between atoms: C_1  and  C_2
REMARK    2  A    between atoms: C_2  and  C_3
REMARK    3  A    between atoms: C_2  and  C_4
REMARK    4  A    between atoms: C_2  and  C_5
REMARK    5  A    between atoms: C_7  and  C_16
REMARK    6  A    between atoms: C_9  and  C_12
REMARK    7  A    between atoms: C_10  and  O_11
REMARK    8  A    between atoms: C_12  and  C_13
REMARK    9  A    between atoms: C_12  and  C_14
REMARK   10  A    between atoms: C_12  and  C_15
REMARK   11  A    between atoms: C_19  and  S_21
REMARK   12  A    between atoms: S_21  and  C_22
REMARK   13  A    between atoms: C_22  and  C_23
REMARK                            x       y       z     vdW  Elec       q    Type
REMARK                         _______ _______ _______ _____ _____    ______ ____
ROOT
ATOM      1  C   UNL     1       0.707  -0.490  -1.238  0.00  0.00    +0.000 A 
ATOM      2  C   UNL     1       1.215   0.418  -2.142  0.00  0.00    +0.018 A 
ATOM      3  C   UNL     1       1.869  -0.033  -3.290  0.00  0.00    +0.010 A 
ATOM      4  C   UNL     1       2.006  -1.403  -3.518  0.00  0.00    +0.018 A 
ATOM      5  C   UNL     1       1.495  -2.305  -2.609  0.00  0.00    +0.000 A 
ATOM      6  C   UNL     1       0.850  -1.852  -1.465  0.00  0.00    +0.124 A 
ENDROOT
BRANCH   3   7
ATOM      7  C   UNL     1       2.414   0.938  -4.262  0.00  0.00    +0.133 A 
ATOM      8  N   UNL     1       2.401   2.264  -4.241  0.00  0.00    -0.140 NA
ATOM      9  N   UNL     1       2.919   2.951  -5.163  0.00  0.00    -0.134 NA
ATOM     10  C   UNL     1       3.508   2.387  -6.211  0.00  0.00    +0.159 A 
ATOM     11  S   UNL     1       3.288   0.658  -5.800  0.00  0.00    -0.039 S 
BRANCH  10  12
ATOM     12  S   UNL     1       4.290   3.128  -7.605  0.00  0.00    -0.093 S 
BRANCH  12  13
ATOM     13  C   UNL     1       4.121   4.910  -7.308  0.00  0.00    +0.103 C 
BRANCH  13  14
ATOM     14  C   UNL     1       4.757   5.671  -8.442  0.00  0.00    -0.023 C 
ATOM     15  C   UNL     1       4.018   6.415  -9.227  0.00  0.00    +0.005 C 
ENDBRANCH  13  14
ENDBRANCH  12  13
ENDBRANCH  10  12
ENDBRANCH   3   7
BRANCH   1  17
ATOM     16  C   UNL     1      -0.019   1.526   0.010  0.00  0.00    +0.015 C 
ATOM     17  C   UNL     1       0.002  -0.004   0.002  0.00  0.00    -0.009 C 
ATOM     18  C   UNL     1       0.742  -0.511   1.242  0.00  0.00    +0.015 C 
ATOM     19  C   UNL     1      -1.433  -0.534   0.013  0.00  0.00    +0.015 C 
ENDBRANCH   1  17
BRANCH   5  20
ATOM     20  C   UNL     1       1.642  -3.785  -2.853  0.00  0.00    -0.009 C 
ATOM     21  C   UNL     1       2.389  -4.013  -4.169  0.00  0.00    +0.015 C 
ATOM     22  C   UNL     1       2.430  -4.417  -1.704  0.00  0.00    +0.015 C 
ATOM     23  C   UNL     1       0.256  -4.428  -2.936  0.00  0.00    +0.015 C 
ENDBRANCH   5  20
BRANCH   6  24
ATOM     24  O   UNL     1       0.353  -2.745  -0.569  0.00  0.00    -0.506 OA
ATOM     25  H   UNL     1      -0.560  -3.011  -0.744  0.00  0.00    +0.292 HD
ENDBRANCH   6  24
TORSDOF 7
