REMARK  Name = ZINC09526710
REMARK  5 active torsions:
REMARK  status: ('A' for Active; 'I' for Inactive)
REMARK    1  A    between atoms: C_4  and  C_7
REMARK    2  A    between atoms: C_14  and  C_15
REMARK    3  A    between atoms: C_14  and  N_52
REMARK    4  A    between atoms: N_17  and  C_18
REMARK    5  A    between atoms: C_18  and  C_19
REMARK                            x       y       z     vdW  Elec       q    Type
REMARK                         _______ _______ _______ _____ _____    ______ ____
ROOT
ATOM      1  C   UNL     1      -2.443  -1.532   2.227  0.00  0.00    +0.130 C 
ATOM      2  N   UNL     1      -1.895  -1.011   1.175  0.00  0.00    -0.253 NA
ATOM      3  C   UNL     1      -1.838   0.441   1.358  0.00  0.00    +0.124 C 
ATOM      4  C   UNL     1      -0.385   0.918   1.322  0.00  0.00    +0.031 C 
ATOM      5  C   UNL     1       0.200   0.651  -0.067  0.00  0.00    -0.074 C 
ATOM      6  C   UNL     1      -1.984   0.868  -1.096  0.00  0.00    -0.074 C 
ATOM      7  C   UNL     1      -2.639   1.141   0.260  0.00  0.00    +0.031 C 
ATOM      8  N   UNL     1      -2.427   0.727   2.670  0.00  0.00    -0.286 N 
ATOM      9  C   UNL     1      -2.792  -0.462   3.195  0.00  0.00    +0.264 C 
ATOM     10  O   UNL     1      -3.318  -0.627   4.277  0.00  0.00    -0.268 OA
ATOM     11  H   UNL     1      -2.534   1.600   3.080  0.00  0.00    +0.151 HD
ATOM     12  N   UNL     1      -0.599   1.384  -1.072  0.00  0.00    +0.386 N 
ATOM     13  H   UNL     1      -0.620   2.379  -0.820  0.00  0.00    -0.081 HD
ENDROOT
BRANCH   1  17
ATOM     14  C   UNL     1      -3.136  -5.683   2.819  0.00  0.00    +0.000 A 
ATOM     15  C   UNL     1      -3.506  -4.777   3.797  0.00  0.00    +0.001 A 
ATOM     16  C   UNL     1      -3.283  -3.428   3.611  0.00  0.00    +0.010 A 
ATOM     17  C   UNL     1      -2.684  -2.978   2.434  0.00  0.00    +0.005 A 
ATOM     18  C   UNL     1      -2.318  -3.897   1.449  0.00  0.00    +0.010 A 
ATOM     19  C   UNL     1      -2.541  -5.244   1.649  0.00  0.00    +0.001 A 
ENDBRANCH   1  17
BRANCH  12  20
ATOM     20  C   UNL     1       0.016   1.241  -2.408  0.00  0.00    +0.019 C 
BRANCH  20  21
ATOM     21  C   UNL     1       1.328   1.981  -2.419  0.00  0.00    +0.197 C 
ATOM     22  O   UNL     1       1.661   2.640  -1.457  0.00  0.00    -0.278 OA
ATOM     23  N   UNL     1       2.133   1.909  -3.498  0.00  0.00    -0.313 N 
ATOM     24  H   UNL     1       1.867   1.382  -4.267  0.00  0.00    +0.149 HD
BRANCH  23  25
ATOM     25  C   UNL     1       3.409   2.629  -3.509  0.00  0.00    +0.141 C 
BRANCH  25  26
ATOM     26  C   UNL     1       4.111   2.386  -4.820  0.00  0.00    -0.012 A 
ATOM     27  C   UNL     1       5.131   1.455  -4.896  0.00  0.00    +0.006 A 
ATOM     28  C   UNL     1       5.772   1.229  -6.100  0.00  0.00    +0.000 A 
ATOM     29  C   UNL     1       5.401   1.941  -7.226  0.00  0.00    +0.001 A 
ATOM     30  C   UNL     1       4.385   2.875  -7.150  0.00  0.00    +0.020 A 
ATOM     31  C   UNL     1       3.740   3.098  -5.946  0.00  0.00    +0.046 A 
ATOM     32 CL   UNL     1       2.464   4.272  -5.850  0.00  0.00    -0.083 Cl
ENDBRANCH  25  26
ENDBRANCH  23  25
ENDBRANCH  20  21
ENDBRANCH  12  20
TORSDOF 5
