REMARK  Name = ZINC18044675
REMARK  9 active torsions:
REMARK  status: ('A' for Active; 'I' for Inactive)
REMARK    1  A    between atoms: C_1  and  C_2
REMARK    2  A    between atoms: C_6  and  N_9
REMARK    3  A    between atoms: C_7  and  C_8
REMARK    4  A    between atoms: C_10  and  C_12
REMARK    5  A    between atoms: C_12  and  N_13
REMARK    6  A    between atoms: C_14  and  C_16
REMARK    7  A    between atoms: C_25  and  C_28
REMARK    8  A    between atoms: C_31  and  O_34
REMARK    9  A    between atoms: O_34  and  C_35
REMARK                            x       y       z     vdW  Elec       q    Type
REMARK                         _______ _______ _______ _____ _____    ______ ____
ROOT
ATOM      1  C   UNL     1      -0.383  -8.690   4.146  0.00  0.00    +0.048 C 
ATOM      2  C   UNL     1       0.872  -9.134   3.391  0.00  0.00    +0.019 C 
ATOM      3  C   UNL     1       0.789 -10.635   3.103  0.00  0.00    -0.009 C 
ATOM      4  C   UNL     1      -0.449 -10.924   2.252  0.00  0.00    +0.007 C 
ATOM      5  C   UNL     1      -1.703 -10.480   3.007  0.00  0.00    -0.009 C 
ATOM      6  C   UNL     1      -1.620  -8.979   3.295  0.00  0.00    +0.019 C 
ATOM      7  C   UNL     1      -1.801 -11.247   4.327  0.00  0.00    +0.015 C 
ATOM      8  C   UNL     1      -0.564 -10.958   5.179  0.00  0.00    -0.003 C 
ATOM      9  C   UNL     1       0.691 -11.402   4.423  0.00  0.00    +0.015 C 
ATOM     10  C   UNL     1      -0.481  -9.458   5.466  0.00  0.00    +0.027 C 
ENDROOT
BRANCH   8  11
ATOM     11  C   UNL     1      -0.661 -11.714   6.479  0.00  0.00    -0.041 A 
ATOM     12  C   UNL     1      -0.670 -11.026   7.678  0.00  0.00    +0.008 A 
ATOM     13  C   UNL     1      -0.758 -11.717   8.871  0.00  0.00    +0.046 A 
ATOM     14  C   UNL     1      -0.839 -13.102   8.866  0.00  0.00    +0.120 A 
ATOM     15  C   UNL     1      -0.830 -13.790   7.661  0.00  0.00    +0.046 A 
ATOM     16  C   UNL     1      -0.746 -13.094   6.470  0.00  0.00    +0.008 A 
BRANCH  14  17
ATOM     17  O   UNL     1      -0.925 -13.783  10.038  0.00  0.00    -0.495 OA
ATOM     18  C   UNL     1      -1.005 -15.208   9.956  0.00  0.00    +0.277 C 
ENDBRANCH  14  17
ENDBRANCH   8  11
BRANCH   1  20
ATOM     19  N   UNL     1      -0.207  -6.335   3.410  0.00  0.00    -0.306 N 
ATOM     20  C   UNL     1      -0.301  -7.212   4.429  0.00  0.00    +0.220 C 
ATOM     21  O   UNL     1      -0.321  -6.812   5.574  0.00  0.00    -0.275 OA
ATOM     22  H   UNL     1      -0.192  -6.655   2.495  0.00  0.00    +0.149 HD
BRANCH  19  23
ATOM     23  C   UNL     1      -0.129  -4.898   3.686  0.00  0.00    +0.200 C 
BRANCH  23  25
ATOM     24  N   UNL     1       0.052  -2.797   2.393  0.00  0.00    -0.284 N 
ATOM     25  C   UNL     1      -0.031  -4.143   2.385  0.00  0.00    +0.234 C 
ATOM     26  O   UNL     1      -0.028  -4.745   1.333  0.00  0.00    -0.274 OA
ATOM     27  H   UNL     1       0.130  -2.321   3.234  0.00  0.00    +0.155 HD
BRANCH  24  33
ATOM     28  C   UNL     1       1.206   1.236  -0.172  0.00  0.00    +0.044 C 
ATOM     29  C   UNL     1       0.577  -0.131  -0.084  0.00  0.00    -0.046 A 
ATOM     30  C   UNL     1      -0.027  -0.686  -1.198  0.00  0.00    +0.004 A 
ATOM     31  C   UNL     1      -0.605  -1.940  -1.122  0.00  0.00    +0.002 A 
ATOM     32  C   UNL     1      -0.580  -2.642   0.067  0.00  0.00    +0.023 A 
ATOM     33  C   UNL     1       0.026  -2.088   1.187  0.00  0.00    +0.037 A 
ATOM     34  C   UNL     1       0.610  -0.831   1.106  0.00  0.00    -0.026 A 
ATOM     35  C   UNL     1       1.274  -0.228   2.317  0.00  0.00    +0.046 C 
ENDBRANCH  24  33
ENDBRANCH  23  25
ENDBRANCH  19  23
ENDBRANCH   1  20
TORSDOF 6
