REMARK  Name = ZINC43262375
REMARK  8 active torsions:
REMARK  status: ('A' for Active; 'I' for Inactive)
REMARK    1  A    between atoms: C_1  and  C_2
REMARK    2  A    between atoms: C_2  and  C_4
REMARK    3  A    between atoms: C_2  and  N_21
REMARK    4  A    between atoms: C_4  and  C_6
REMARK    5  A    between atoms: C_4  and  N_12
REMARK    6  A    between atoms: N_12  and  C_13
REMARK    7  A    between atoms: N_12  and  C_14
REMARK    8  A    between atoms: C_14  and  C_15
REMARK                            x       y       z     vdW  Elec       q    Type
REMARK                         _______ _______ _______ _____ _____    ______ ____
ROOT
ATOM      1  C   UNL     1       0.781  -0.250   0.933  0.00  0.00    +0.079 C 
ENDROOT
BRANCH   1   2
ATOM      2  C   UNL     1       1.044  -1.711   0.674  0.00  0.00    +0.006 A 
ATOM      3  C   UNL     1       0.317  -2.790   1.054  0.00  0.00    +0.014 A 
ATOM      4  C   UNL     1       0.755  -4.053   0.700  0.00  0.00    +0.023 A 
ATOM      5  C   UNL     1       1.899  -4.174  -0.018  0.00  0.00    +0.055 A 
ATOM      6  S   UNL     1       2.391  -2.470  -0.220  0.00  0.00    -0.085 S 
ATOM      7 BR   UNL     1       2.750  -5.741  -0.647  0.00  0.00    -0.043 Br
ENDBRANCH   1   2
BRANCH   1   9
ATOM      8  C   UNL     1       0.269   1.945  -0.145  0.00  0.00    -0.012 C 
ATOM      9  C   UNL     1       0.391   0.438  -0.377  0.00  0.00    -0.056 C 
BRANCH   9  10
ATOM     10  N   UNL     1      -0.898  -0.092  -0.843  0.00  0.00    +0.381 N 
ATOM     11  H   UNL     1      -0.817  -1.086  -0.996  0.00  0.00    -0.090 HD
ATOM     12  H   UNL     1      -1.606   0.085  -0.147  0.00  0.00    -0.090 HD
ATOM     13  H   UNL     1      -1.155   0.362  -1.707  0.00  0.00    -0.090 HD
ENDBRANCH   9  10
ENDBRANCH   1   9
BRANCH   1  14
ATOM     14  N   UNL     1       1.994   0.377   1.473  0.00  0.00    -0.295 NA
ATOM     15  C   UNL     1       2.376  -0.232   2.754  0.00  0.00    +0.105 C 
BRANCH  14  16
ATOM     16  C   UNL     1       3.098   0.307   0.507  0.00  0.00    +0.127 C 
BRANCH  16  17
ATOM     17  C   UNL     1       4.160   1.308   0.884  0.00  0.00    +0.005 A 
ATOM     18  C   UNL     1       5.239   1.145   1.689  0.00  0.00    +0.027 A 
ATOM     19  C   UNL     1       6.089   2.216   1.895  0.00  0.00    +0.025 A 
ATOM     20  C   UNL     1       5.818   3.397   1.286  0.00  0.00    +0.060 A 
ATOM     21  S   UNL     1       4.328   3.013   0.382  0.00  0.00    -0.099 S 
ATOM     22 BR   UNL     1       7.607   2.037   3.009  0.00  0.00    -0.050 Br
ENDBRANCH  16  17
ENDBRANCH  14  16
ENDBRANCH   1  14
TORSDOF 6
