REMARK  Name = ZINC37640588
REMARK  4 active torsions:
REMARK  status: ('A' for Active; 'I' for Inactive)
REMARK    1  A    between atoms: C_6  and  C_7
REMARK    2  A    between atoms: C_7  and  N_8
REMARK    3  A    between atoms: N_16  and  C_19
REMARK    4  A    between atoms: C_19  and  C_20
REMARK                            x       y       z     vdW  Elec       q    Type
REMARK                         _______ _______ _______ _____ _____    ______ ____
ROOT
ATOM      1  N   UNL     1      -1.726  -1.017  -1.368  0.00  0.00    -0.256 N 
ATOM      2  C   UNL     1      -2.516  -0.113  -1.975  0.00  0.00    +0.265 A 
ATOM      3  O   UNL     1      -2.867   0.893  -1.387  0.00  0.00    -0.267 OA
ATOM      4  C   UNL     1      -2.952  -0.359  -3.366  0.00  0.00    +0.074 A 
ATOM      5  C   UNL     1      -3.808   0.485  -4.214  0.00  0.00    -0.023 A 
ATOM      6  C   UNL     1      -4.034  -0.001  -5.444  0.00  0.00    -0.004 A 
ATOM      7  S   UNL     1      -3.142  -1.535  -5.491  0.00  0.00    -0.075 S 
ATOM      8  C   UNL     1      -2.498  -1.536  -3.951  0.00  0.00    +0.097 A 
ATOM      9  N   UNL     1      -1.693  -2.405  -3.259  0.00  0.00    -0.278 N 
ATOM     10  C   UNL     1      -1.320  -2.133  -1.994  0.00  0.00    +0.334 A 
ATOM     11  O   UNL     1      -0.602  -2.918  -1.405  0.00  0.00    -0.246 OA
ATOM     12  C   UNL     1      -4.918   0.908  -6.255  0.00  0.00    +0.043 C 
ATOM     13  C   UNL     1      -5.573   1.843  -5.214  0.00  0.00    +0.010 C 
ATOM     14  C   UNL     1      -4.536   1.820  -4.073  0.00  0.00    +0.037 C 
ENDROOT
BRANCH   1  15
ATOM     15  C   UNL     1      -1.293  -0.775   0.011  0.00  0.00    +0.165 C 
BRANCH  15  21
ATOM     16  C   UNL     1      -0.017   1.378   0.010  0.00  0.00    +0.007 A 
ATOM     17  C   UNL     1       1.171   2.086   0.002  0.00  0.00    +0.020 A 
ATOM     18  C   UNL     1       2.378   1.410  -0.013  0.00  0.00    +0.041 A 
ATOM     19  C   UNL     1       2.396   0.027  -0.021  0.00  0.00    +0.020 A 
ATOM     20  C   UNL     1       1.208  -0.679  -0.013  0.00  0.00    +0.007 A 
ATOM     21  C   UNL     1       0.002  -0.004   0.002  0.00  0.00    -0.027 A 
ATOM     22 CL   UNL     1       3.870   2.298  -0.023  0.00  0.00    -0.084 Cl
ENDBRANCH  15  21
ENDBRANCH   1  15
BRANCH   9  23
ATOM     23  C   UNL     1      -1.232  -3.638  -3.904  0.00  0.00    +0.222 C 
BRANCH  23  24
ATOM     24  C   UNL     1       0.076  -3.378  -4.606  0.00  0.00    +0.230 C 
ATOM     25  O   UNL     1       0.574  -2.273  -4.572  0.00  0.00    -0.274 OA
ATOM     26  N   UNL     1       0.692  -4.375  -5.272  0.00  0.00    -0.328 N 
ATOM     27  H   UNL     1       0.294  -5.258  -5.300  0.00  0.00    +0.145 HD
ATOM     28  H   UNL     1       1.534  -4.207  -5.724  0.00  0.00    +0.145 HD
ENDBRANCH  23  24
ENDBRANCH   9  23
TORSDOF 4
