REMARK  Name = ZINC12495549
REMARK  6 active torsions:
REMARK  status: ('A' for Active; 'I' for Inactive)
REMARK    1  A    between atoms: C_5  and  C_7
REMARK    2  A    between atoms: N_9  and  C_10
REMARK    3  A    between atoms: C_10  and  N_12
REMARK    4  A    between atoms: N_12  and  C_13
REMARK    5  A    between atoms: C_15  and  N_20
REMARK    6  A    between atoms: C_18  and  O_19
REMARK                            x       y       z     vdW  Elec       q    Type
REMARK                         _______ _______ _______ _____ _____    ______ ____
ROOT
ATOM      1  C   UNL     1       0.081  -4.184  -0.268  0.00  0.00    +0.141 C 
ATOM      2  S   UNL     1       1.552  -4.986  -0.620  0.00  0.00    -0.018 S 
ENDROOT
BRANCH   1   5
ATOM      3  C   UNL     1       1.151  -2.122  -0.496  0.00  0.00    +0.251 C 
ATOM      4  O   UNL     1       2.196  -2.691  -0.746  0.00  0.00    -0.270 OA
ATOM      5  N   UNL     1       0.037  -2.837  -0.243  0.00  0.00    -0.264 N 
ATOM      6  H   UNL     1      -0.796  -2.382  -0.044  0.00  0.00    +0.157 HD
BRANCH   3  11
ATOM      7  C   UNL     1      -0.132   1.391  -0.160  0.00  0.00    +0.001 A 
ATOM      8  C   UNL     1       1.014   2.123  -0.419  0.00  0.00    +0.001 A 
ATOM      9  C   UNL     1       2.204   1.478  -0.704  0.00  0.00    +0.015 A 
ATOM     10  C   UNL     1       2.256   0.099  -0.730  0.00  0.00    +0.025 A 
ATOM     11  C   UNL     1       1.104  -0.645  -0.469  0.00  0.00    +0.050 A 
ATOM     12  C   UNL     1      -0.094   0.013  -0.183  0.00  0.00    +0.014 A 
ATOM     13  I   UNL     1       4.060  -0.876  -1.162  0.00  0.00    -0.043 I 
ENDBRANCH   3  11
ENDBRANCH   1   5
BRANCH   1  14
ATOM     14  N   UNL     1      -1.033  -4.899  -0.015  0.00  0.00    -0.294 N 
ATOM     15  H   UNL     1      -1.851  -4.447   0.245  0.00  0.00    +0.154 HD
BRANCH  14  16
ATOM     16  C   UNL     1      -1.010  -6.295  -0.129  0.00  0.00    +0.077 A 
ATOM     17  C   UNL     1       0.020  -7.023   0.447  0.00  0.00    +0.059 A 
ATOM     18  C   UNL     1       0.041  -8.400   0.334  0.00  0.00    +0.128 A 
ATOM     19  C   UNL     1      -0.964  -9.055  -0.354  0.00  0.00    +0.036 A 
ATOM     20  C   UNL     1      -1.994  -8.336  -0.931  0.00  0.00    +0.049 A 
ATOM     21  C   UNL     1      -2.025  -6.956  -0.817  0.00  0.00    +0.138 A 
BRANCH  18  22
ATOM     22  N   UNL     1       1.141  -9.175   0.949  0.00  0.00    +0.056 N 
ATOM     23  O   UNL     1       2.021  -8.604   1.550  0.00  0.00    -0.126 OA
ATOM     24  O   UNL     1       1.161 -10.380   0.850  0.00  0.00    -0.126 OA
ENDBRANCH  18  22
BRANCH  21  25
ATOM     25  O   UNL     1      -3.041  -6.248  -1.379  0.00  0.00    -0.505 OA
ATOM     26  H   UNL     1      -2.872  -5.975  -2.291  0.00  0.00    +0.292 HD
ENDBRANCH  21  25
ENDBRANCH  14  16
ENDBRANCH   1  14
TORSDOF 6
