REMARK  Name = ZINC09835464
REMARK  11 active torsions:
REMARK  status: ('A' for Active; 'I' for Inactive)
REMARK    1  A    between atoms: C_1  and  C_2
REMARK    2  A    between atoms: C_7  and  N_8
REMARK    3  A    between atoms: C_9  and  C_23
REMARK    4  A    between atoms: C_11  and  O_15
REMARK    5  A    between atoms: O_15  and  C_16
REMARK    6  A    between atoms: C_23  and  N_58
REMARK    7  A    between atoms: C_24  and  C_25
REMARK    8  A    between atoms: C_24  and  N_58
REMARK    9  A    between atoms: C_25  and  C_26
REMARK   10  A    between atoms: C_29  and  S_32
REMARK   11  A    between atoms: S_32  and  C_33
REMARK                            x       y       z     vdW  Elec       q    Type
REMARK                         _______ _______ _______ _____ _____    ______ ____
ROOT
ATOM      1  N   UNL     1       1.616   2.018  -0.691  0.00  0.00    -0.263 N 
ATOM      2  C   UNL     1       0.224   2.056  -1.155  0.00  0.00    +0.114 C 
ATOM      3  C   UNL     1      -0.017   1.085   0.005  0.00  0.00    +0.278 C 
ATOM      4  C   UNL     1       1.452   1.164   0.343  0.00  0.00    +0.263 C 
ATOM      5  O   UNL     1       2.175   0.672   1.183  0.00  0.00    -0.271 OA
ENDROOT
BRANCH   1  12
ATOM      6  C   UNL     1       2.258   4.577   0.376  0.00  0.00    +0.045 C 
ATOM      7  C   UNL     1       3.109   3.916  -0.678  0.00  0.00    -0.029 A 
ATOM      8  C   UNL     1       4.239   4.553  -1.154  0.00  0.00    +0.005 A 
ATOM      9  C   UNL     1       5.020   3.948  -2.121  0.00  0.00    +0.000 A 
ATOM     10  C   UNL     1       4.673   2.703  -2.615  0.00  0.00    +0.002 A 
ATOM     11  C   UNL     1       3.549   2.058  -2.138  0.00  0.00    +0.024 A 
ATOM     12  C   UNL     1       2.759   2.666  -1.171  0.00  0.00    +0.040 A 
ENDBRANCH   1  12
BRANCH   3  13
ATOM     13  O   UNL     1      -0.861   1.618   1.028  0.00  0.00    -0.478 OA
BRANCH  13  14
ATOM     14  C   UNL     1      -1.252   0.765   2.012  0.00  0.00    +0.122 A 
ATOM     15  C   UNL     1      -0.750  -0.527   2.051  0.00  0.00    +0.047 A 
ATOM     16  C   UNL     1      -1.145  -1.390   3.055  0.00  0.00    +0.023 A 
ATOM     17  C   UNL     1      -2.048  -0.969   4.014  0.00  0.00    +0.041 A 
ATOM     18  C   UNL     1      -2.554   0.318   3.974  0.00  0.00    +0.023 A 
ATOM     19  C   UNL     1      -2.158   1.186   2.975  0.00  0.00    +0.047 A 
ATOM     20 CL   UNL     1      -2.548  -2.058   5.271  0.00  0.00    -0.084 Cl
ENDBRANCH  13  14
ENDBRANCH   3  13
BRANCH   2  21
ATOM     21  C   UNL     1       0.009   1.443  -2.539  0.00  0.00    -0.055 C 
BRANCH  21  22
ATOM     22  N   UNL     1       0.384   2.430  -3.569  0.00  0.00    +0.381 N 
ATOM     23  H   UNL     1       1.372   2.685  -3.450  0.00  0.00    -0.086 HD
ATOM     24  H   UNL     1      -0.200   3.268  -3.464  0.00  0.00    -0.086 HD
BRANCH  22  25
ATOM     25  C   UNL     1       0.187   1.864  -4.917  0.00  0.00    -0.078 C 
BRANCH  25  26
ATOM     26  C   UNL     1       0.584   2.909  -5.962  0.00  0.00    +0.016 C 
BRANCH  26  27
ATOM     27  C   UNL     1       0.385   2.339  -7.343  0.00  0.00    -0.049 A 
ATOM     28  C   UNL     1       1.420   1.667  -7.967  0.00  0.00    +0.004 A 
ATOM     29  C   UNL     1       1.240   1.138  -9.230  0.00  0.00    +0.015 A 
ATOM     30  C   UNL     1       0.021   1.292  -9.878  0.00  0.00    +0.008 A 
ATOM     31  C   UNL     1      -1.015   1.973  -9.251  0.00  0.00    +0.015 A 
ATOM     32  C   UNL     1      -0.830   2.494  -7.985  0.00  0.00    +0.004 A 
BRANCH  30  33
ATOM     33  S   UNL     1      -0.212   0.625 -11.493  0.00  0.00    -0.129 S 
ATOM     34  C   UNL     1       1.381  -0.152 -11.880  0.00  0.00    +0.090 C 
ENDBRANCH  30  33
ENDBRANCH  26  27
ENDBRANCH  25  26
ENDBRANCH  22  25
ENDBRANCH  21  22
ENDBRANCH   2  21
TORSDOF 9
