REMARK  Name = ZINC36030020
REMARK  13 active torsions:
REMARK  status: ('A' for Active; 'I' for Inactive)
REMARK    1  A    between atoms: C_1  and  C_2
REMARK    2  A    between atoms: C_2  and  N_3
REMARK    3  A    between atoms: N_3  and  C_4
REMARK    4  A    between atoms: N_3  and  C_6
REMARK    5  A    between atoms: C_4  and  C_5
REMARK    6  A    between atoms: C_6  and  C_7
REMARK    7  A    between atoms: C_7  and  N_8
REMARK    8  A    between atoms: C_11  and  C_25
REMARK    9  A    between atoms: C_20  and  C_22
REMARK   10  A    between atoms: C_22  and  C_23
REMARK   11  A    between atoms: C_22  and  C_24
REMARK   12  A    between atoms: C_25  and  C_26
REMARK   13  A    between atoms: C_25  and  C_27
REMARK                            x       y       z     vdW  Elec       q    Type
REMARK                         _______ _______ _______ _____ _____    ______ ____
ROOT
ATOM      1  N   UNL     1       0.375  -4.719  -3.579  0.00  0.00    -0.315 N 
ATOM      2  C   UNL     1       0.985  -5.877  -3.248  0.00  0.00    +0.201 C 
ATOM      3  O   UNL     1       1.831  -6.012  -2.390  0.00  0.00    -0.277 OA
ATOM      4  C   UNL     1       0.434  -6.978  -4.128  0.00  0.00    +0.022 C 
ATOM      5  N   UNL     1      -0.231  -6.270  -5.249  0.00  0.00    +0.401 N 
ATOM      6  C   UNL     1      -0.594  -4.965  -4.650  0.00  0.00    +0.006 C 
ATOM      7  C   UNL     1      -0.500  -3.870  -5.710  0.00  0.00    +0.025 C 
ATOM      8  C   UNL     1      -0.836  -2.517  -5.074  0.00  0.00    +0.108 C 
ATOM      9  N   UNL     1      -2.143  -2.618  -4.411  0.00  0.00    -0.301 N 
ATOM     10  C   UNL     1      -2.357  -3.688  -3.428  0.00  0.00    +0.108 C 
ATOM     11  C   UNL     1      -2.009  -5.031  -4.079  0.00  0.00    +0.025 C 
ATOM     12  C   UNL     1      -3.128  -1.745  -4.700  0.00  0.00    +0.218 C 
ATOM     13  O   UNL     1      -2.969  -0.918  -5.573  0.00  0.00    -0.275 OA
ATOM     14  H   UNL     1       0.407  -6.147  -6.021  0.00  0.00    -0.082 HD
ATOM     15  H   UNL     1      -1.058  -6.766  -5.543  0.00  0.00    -0.082 HD
ENDROOT
BRANCH  12  16
ATOM     16  C   UNL     1      -4.428  -1.796  -3.939  0.00  0.00    +0.069 C 
ATOM     17  C   UNL     1      -4.274  -1.044  -2.616  0.00  0.00    +0.017 C 
ATOM     18  C   UNL     1      -5.533  -1.142  -4.772  0.00  0.00    +0.017 C 
ENDBRANCH  12  16
BRANCH   4  19
ATOM     19  C   UNL     1       1.569  -7.860  -4.651  0.00  0.00    -0.023 C 
ATOM     20  C   UNL     1       2.288  -8.518  -3.471  0.00  0.00    +0.006 C 
ATOM     21  C   UNL     1       0.994  -8.943  -5.566  0.00  0.00    +0.006 C 
ENDBRANCH   4  19
BRANCH   1  22
ATOM     22  C   UNL     1       0.637  -3.418  -2.959  0.00  0.00    +0.087 C 
BRANCH  22  23
ATOM     23  C   UNL     1       1.776  -2.718  -3.703  0.00  0.00    -0.060 C 
BRANCH  23  24
ATOM     24  N   UNL     1       1.951  -1.362  -3.167  0.00  0.00    +0.380 N 
ATOM     25  H   UNL     1       1.076  -0.862  -3.225  0.00  0.00    -0.082 HD
BRANCH  24  27
ATOM     26  C   UNL     1       2.438  -0.032  -1.169  0.00  0.00    -0.017 C 
ATOM     27  C   UNL     1       2.377  -1.440  -1.764  0.00  0.00    -0.082 C 
ENDBRANCH  24  27
BRANCH  24  28
ATOM     28  C   UNL     1       2.972  -0.653  -3.950  0.00  0.00    -0.082 C 
ATOM     29  C   UNL     1       2.478  -0.472  -5.387  0.00  0.00    -0.017 C 
ENDBRANCH  24  28
ENDBRANCH  23  24
ENDBRANCH  22  23
ENDBRANCH   1  22
TORSDOF 7
