REMARK  Name = ZINC15675873
REMARK  15 active torsions:
REMARK  status: ('A' for Active; 'I' for Inactive)
REMARK    1  A    between atoms: C_1  and  C_2
REMARK    2  A    between atoms: C_2  and  C_3
REMARK    3  A    between atoms: C_3  and  C_4
REMARK    4  A    between atoms: C_4  and  N_82
REMARK    5  A    between atoms: C_5  and  C_6
REMARK    6  A    between atoms: C_5  and  N_82
REMARK    7  A    between atoms: C_6  and  C_7
REMARK    8  A    between atoms: C_7  and  C_8
REMARK    9  A    between atoms: C_9  and  C_10
REMARK   10  A    between atoms: C_9  and  N_82
REMARK   11  A    between atoms: C_10  and  C_11
REMARK   12  A    between atoms: C_11  and  N_12
REMARK   13  A    between atoms: C_21  and  C_22
REMARK   14  A    between atoms: C_21  and  C_23
REMARK   15  A    between atoms: N_25  and  C_26
REMARK                            x       y       z     vdW  Elec       q    Type
REMARK                         _______ _______ _______ _____ _____    ______ ____
ROOT
ATOM      1  N   UNL     1       2.817   1.257   0.300  0.00  0.00    -0.281 N 
ATOM      2  C   UNL     1       1.585   0.731   0.109  0.00  0.00    +0.264 C 
ATOM      3  O   UNL     1       1.418  -0.299  -0.519  0.00  0.00    -0.268 OA
ATOM      4  C   UNL     1       0.461   1.468   0.700  0.00  0.00    +0.109 A 
ATOM      5  C   UNL     1      -0.849   1.119   0.846  0.00  0.00    +0.079 A 
ATOM      6  C   UNL     1      -1.496   2.179   1.498  0.00  0.00    +0.153 A 
ATOM      7  C   UNL     1      -0.545   3.172   1.735  0.00  0.00    +0.088 A 
ATOM      8  N   UNL     1       0.646   2.738   1.239  0.00  0.00    -0.331 N 
ATOM      9  C   UNL     1       1.953   3.402   1.211  0.00  0.00    +0.157 C 
ATOM     10  C   UNL     1       3.055   2.343   1.244  0.00  0.00    +0.128 C 
ATOM     11  C   UNL     1       3.136   1.761   2.656  0.00  0.00    +0.043 C 
ATOM     12  C   UNL     1      -1.230   4.221   2.396  0.00  0.00    +0.067 A 
ATOM     13  C   UNL     1      -2.512   3.841   2.526  0.00  0.00    +0.198 A 
ATOM     14  O   UNL     1      -2.675   2.621   1.988  0.00  0.00    -0.461 OA
ENDROOT
BRANCH  10  15
ATOM     15  C   UNL     1       4.370   2.999   0.911  0.00  0.00    +0.238 C 
ATOM     16  O   UNL     1       5.177   3.220   1.790  0.00  0.00    -0.273 OA
ATOM     17  N   UNL     1       4.651   3.340  -0.362  0.00  0.00    -0.311 N 
ATOM     18  H   UNL     1       3.972   3.249  -1.049  0.00  0.00    +0.149 HD
BRANCH  17  19
ATOM     19  C   UNL     1       5.981   3.846  -0.709  0.00  0.00    +0.073 C 
ATOM     20  C   UNL     1       6.050   5.347  -0.361  0.00  0.00    +0.022 C 
ATOM     21  C   UNL     1       7.496   5.741  -0.226  0.00  0.00    +0.002 C 
ATOM     22  C   UNL     1       8.075   6.311  -1.535  0.00  0.00    +0.000 C 
ATOM     23  C   UNL     1       7.624   5.526  -2.781  0.00  0.00    +0.000 C 
ATOM     24  C   UNL     1       7.639   4.037  -2.559  0.00  0.00    +0.002 C 
ATOM     25  C   UNL     1       6.228   3.593  -2.121  0.00  0.00    +0.022 C 
ENDBRANCH  17  19
ENDBRANCH  10  15
BRANCH   1  26
ATOM     26  C   UNL     1       3.946   0.721  -0.465  0.00  0.00    +0.107 C 
BRANCH  26  27
ATOM     27  C   UNL     1       4.671  -0.336   0.369  0.00  0.00    +0.000 C 
BRANCH  27  28
ATOM     28  C   UNL     1       5.907  -0.825  -0.389  0.00  0.00    -0.077 C 
BRANCH  28  29
ATOM     29  N   UNL     1       6.560  -1.887   0.405  0.00  0.00    +0.380 N 
ATOM     30  H   UNL     1       6.546  -1.619   1.396  0.00  0.00    -0.082 HD
BRANCH  29  31
ATOM     31  C   UNL     1       5.828  -3.161   0.242  0.00  0.00    -0.079 C 
BRANCH  31  32
ATOM     32  C   UNL     1       5.945  -3.667  -1.198  0.00  0.00    -0.019 C 
BRANCH  32  34
ATOM     33  C   UNL     1       5.212  -5.433  -2.805  0.00  0.00    +0.004 C 
ATOM     34  C   UNL     1       5.095  -4.928  -1.366  0.00  0.00    -0.005 C 
ENDBRANCH  32  34
ENDBRANCH  31  32
ENDBRANCH  29  31
BRANCH  29  35
ATOM     35  C   UNL     1       7.963  -2.052  -0.029  0.00  0.00    -0.079 C 
BRANCH  35  36
ATOM     36  C   UNL     1       8.670  -3.005   0.936  0.00  0.00    -0.019 C 
BRANCH  36  37
ATOM     37  C   UNL     1      10.157  -3.078   0.585  0.00  0.00    -0.005 C 
ATOM     38  C   UNL     1      10.864  -4.031   1.550  0.00  0.00    +0.004 C 
ENDBRANCH  36  37
ENDBRANCH  35  36
ENDBRANCH  29  35
ENDBRANCH  28  29
ENDBRANCH  27  28
ENDBRANCH  26  27
ENDBRANCH   1  26
TORSDOF 12
