REMARK  Name = ZINC01803232
REMARK  10 active torsions:
REMARK  status: ('A' for Active; 'I' for Inactive)
REMARK    1  A    between atoms: C_2  and  C_3
REMARK    2  A    between atoms: C_2  and  N_12
REMARK    3  A    between atoms: C_7  and  N_9
REMARK    4  A    between atoms: N_12  and  N_13
REMARK    5  A    between atoms: C_14  and  C_16
REMARK    6  A    between atoms: C_16  and  S_17
REMARK    7  A    between atoms: S_17  and  C_18
REMARK    8  A    between atoms: C_21  and  S_23
REMARK    9  A    between atoms: S_23  and  C_24
REMARK   10  A    between atoms: C_24  and  C_25
REMARK                            x       y       z     vdW  Elec       q    Type
REMARK                         _______ _______ _______ _____ _____    ______ ____
ROOT
ATOM      1  C   UNL     1       4.894   0.145  -0.044  0.00  0.00    +0.173 C 
ENDROOT
BRANCH   1   3
ATOM      2  N   UNL     1       2.423   0.032  -0.021  0.00  0.00    -0.236 N 
ATOM      3  C   UNL     1       3.600  -0.626  -0.036  0.00  0.00    +0.239 C 
ATOM      4  O   UNL     1       3.616  -1.839  -0.042  0.00  0.00    -0.273 OA
ATOM      5  H   UNL     1       2.410   1.002  -0.016  0.00  0.00    +0.173 HD
BRANCH   2   6
ATOM      6  N   UNL     1       1.220  -0.685  -0.013  0.00  0.00    -0.264 N 
ATOM      7  H   UNL     1       1.233  -1.655  -0.019  0.00  0.00    +0.170 HD
BRANCH   6   9
ATOM      8  C   UNL     1      -0.016   1.329   0.009  0.00  0.00    +0.035 C 
ATOM      9  C   UNL     1       0.002  -0.004   0.002  0.00  0.00    +0.045 C 
BRANCH   9  10
ATOM     10  C   UNL     1      -1.270  -0.762   0.010  0.00  0.00    -0.001 A 
ATOM     11  C   UNL     1      -1.255  -2.157   0.008  0.00  0.00    +0.010 A 
ATOM     12  C   UNL     1      -2.443  -2.857   0.016  0.00  0.00    +0.003 A 
ATOM     13  C   UNL     1      -3.649  -2.179   0.026  0.00  0.00    +0.033 A 
ATOM     14  C   UNL     1      -3.671  -0.796   0.028  0.00  0.00    +0.127 A 
ATOM     15  C   UNL     1      -2.489  -0.084   0.025  0.00  0.00    +0.042 A 
BRANCH  14  16
ATOM     16  N   UNL     1      -4.965  -0.078   0.037  0.00  0.00    +0.056 N 
ATOM     17  O   UNL     1      -6.002  -0.700   0.043  0.00  0.00    -0.126 OA
ATOM     18  O   UNL     1      -4.986   1.131   0.039  0.00  0.00    -0.126 OA
ENDBRANCH  14  16
ENDBRANCH   9  10
ENDBRANCH   6   9
ENDBRANCH   2   6
ENDBRANCH   1   3
BRANCH   1  19
ATOM     19  S   UNL     1       6.289  -1.015  -0.063  0.00  0.00    -0.088 S 
BRANCH  19  20
ATOM     20  C   UNL     1       7.710   0.027  -0.071  0.00  0.00    +0.160 A 
ATOM     21  N   UNL     1       7.781   1.344  -0.059  0.00  0.00    -0.134 NA
ATOM     22  N   UNL     1       9.009   1.964  -0.068  0.00  0.00    -0.134 NA
ATOM     23  C   UNL     1      10.110   1.238  -0.089  0.00  0.00    +0.160 A 
ATOM     24  S   UNL     1       9.440  -0.418  -0.090  0.00  0.00    -0.033 S 
BRANCH  23  25
ATOM     25  S   UNL     1      11.793   1.761  -0.104  0.00  0.00    -0.092 S 
BRANCH  25  26
ATOM     26  C   UNL     1      11.689   3.572  -0.084  0.00  0.00    +0.112 C 
BRANCH  26  27
ATOM     27  C   UNL     1      13.079   4.155  -0.096  0.00  0.00    -0.029 A 
ATOM     28  C   UNL     1      13.726   4.402   1.076  0.00  0.00    +0.005 A 
ATOM     29  C   UNL     1      15.011   4.940   1.085  0.00  0.00    +0.001 A 
ATOM     30  C   UNL     1      15.656   5.235  -0.077  0.00  0.00    +0.008 A 
ATOM     31  C   UNL     1      15.020   4.994  -1.306  0.00  0.00    -0.018 A 
ATOM     32  C   UNL     1      13.715   4.440  -1.315  0.00  0.00    -0.014 A 
ATOM     33  C   UNL     1      13.080   4.194  -2.545  0.00  0.00    +0.009 A 
ATOM     34  C   UNL     1      13.727   4.483  -3.707  0.00  0.00    +0.001 A 
ATOM     35  C   UNL     1      15.013   5.021  -3.697  0.00  0.00    +0.001 A 
ATOM     36  C   UNL     1      15.653   5.286  -2.526  0.00  0.00    +0.008 A 
ENDBRANCH  26  27
ENDBRANCH  25  26
ENDBRANCH  23  25
ENDBRANCH  19  20
ENDBRANCH   1  19
TORSDOF 10
