REMARK  Name = ZINC58893787
REMARK  16 active torsions:
REMARK  status: ('A' for Active; 'I' for Inactive)
REMARK    1  A    between atoms: C_1  and  C_2
REMARK    2  A    between atoms: C_2  and  O_3
REMARK    3  A    between atoms: O_3  and  C_4
REMARK    4  A    between atoms: C_7  and  C_10
REMARK    5  A    between atoms: C_10  and  C_12
REMARK    6  A    between atoms: C_10  and  O_33
REMARK    7  A    between atoms: C_12  and  C_13
REMARK    8  A    between atoms: C_13  and  C_14
REMARK    9  A    between atoms: N_16  and  N_17
REMARK   10  A    between atoms: C_18  and  C_19
REMARK   11  A    between atoms: C_22  and  O_26
REMARK   12  A    between atoms: O_26  and  C_27
REMARK   13  A    between atoms: C_27  and  C_28
REMARK   14  A    between atoms: C_28  and  O_30
REMARK   15  A    between atoms: O_30  and  C_31
REMARK   16  A    between atoms: C_31  and  C_32
REMARK                            x       y       z     vdW  Elec       q    Type
REMARK                         _______ _______ _______ _____ _____    ______ ____
ROOT
ATOM      1  C   UNL     1       3.651  -8.565  -0.241  0.00  0.00    +0.232 C 
ATOM      2  O   UNL     1       4.529  -7.733  -0.342  0.00  0.00    -0.274 OA
ATOM      3  N   UNL     1       3.968  -9.871  -0.141  0.00  0.00    -0.207 N 
ATOM      4  H   UNL     1       3.266 -10.535  -0.060  0.00  0.00    +0.177 HD
ENDROOT
BRANCH   3   5
ATOM      5  N   UNL     1       5.311 -10.268  -0.152  0.00  0.00    -0.188 NA
ATOM      6  C   UNL     1       5.615 -11.530  -0.175  0.00  0.00    +0.138 C 
BRANCH   6   7
ATOM      7  C   UNL     1       4.630 -12.516  -0.656  0.00  0.00    -0.004 A 
ATOM      8  C   UNL     1       3.493 -12.091  -1.347  0.00  0.00    +0.013 A 
ATOM      9  C   UNL     1       2.575 -13.016  -1.796  0.00  0.00    +0.047 A 
ATOM     10  C   UNL     1       2.779 -14.370  -1.561  0.00  0.00    +0.135 A 
ATOM     11  C   UNL     1       3.908 -14.798  -0.874  0.00  0.00    +0.060 A 
ATOM     12  C   UNL     1       4.835 -13.879  -0.428  0.00  0.00    +0.028 A 
ATOM     13 BR   UNL     1       4.179 -16.642  -0.558  0.00  0.00    -0.046 Br
BRANCH  10  14
ATOM     14  O   UNL     1       1.871 -15.278  -2.004  0.00  0.00    -0.480 OA
BRANCH  14  15
ATOM     15  C   UNL     1       0.732 -14.770  -2.703  0.00  0.00    +0.349 C 
BRANCH  15  16
ATOM     16  C   UNL     1      -0.157 -15.915  -3.115  0.00  0.00    +0.345 C 
ATOM     17  O   UNL     1       0.153 -17.049  -2.838  0.00  0.00    -0.247 OA
BRANCH  16  18
ATOM     18  O   UNL     1      -1.292 -15.674  -3.788  0.00  0.00    -0.463 OA
BRANCH  18  19
ATOM     19  C   UNL     1      -2.087 -16.806  -4.147  0.00  0.00    +0.229 C 
ATOM     20  C   UNL     1      -3.332 -16.337  -4.903  0.00  0.00    +0.048 C 
ENDBRANCH  18  19
ENDBRANCH  16  18
ENDBRANCH  15  16
ENDBRANCH  14  15
ENDBRANCH  10  14
ENDBRANCH   6   7
ENDBRANCH   3   5
BRANCH   1  21
ATOM     21  C   UNL     1       2.206  -8.137  -0.228  0.00  0.00    +0.100 C 
BRANCH  21  22
ATOM     22  C   UNL     1       2.124  -6.614  -0.355  0.00  0.00    +0.045 C 
BRANCH  22  23
ATOM     23  C   UNL     1       0.657  -6.180  -0.342  0.00  0.00    +0.145 C 
BRANCH  23  27
ATOM     24  C   UNL     1       0.435  -1.913  -0.345  0.00  0.00    +0.121 A 
ATOM     25  C   UNL     1       0.377  -2.610   0.853  0.00  0.00    +0.046 A 
ATOM     26  C   UNL     1       0.449  -3.990   0.851  0.00  0.00    +0.010 A 
ATOM     27  C   UNL     1       0.578  -4.675  -0.343  0.00  0.00    -0.019 A 
ATOM     28  C   UNL     1       0.636  -3.982  -1.538  0.00  0.00    +0.010 A 
ATOM     29  C   UNL     1       0.558  -2.603  -1.542  0.00  0.00    +0.046 A 
BRANCH  24  30
ATOM     30  O   UNL     1       0.364  -0.555  -0.346  0.00  0.00    -0.492 OA
BRANCH  30  32
ATOM     31  C   UNL     1       0.173   1.604   0.722  0.00  0.00    +0.048 C 
ATOM     32  C   UNL     1       0.237   0.089   0.923  0.00  0.00    +0.225 C 
ENDBRANCH  30  32
ENDBRANCH  24  30
ENDBRANCH  23  27
BRANCH  23  33
ATOM     33  O   UNL     1      -0.002  -6.692  -1.502  0.00  0.00    -0.387 OA
ATOM     34  H   UNL     1       0.378  -6.388  -2.337  0.00  0.00    +0.210 HD
ENDBRANCH  23  33
ENDBRANCH  22  23
ENDBRANCH  21  22
ENDBRANCH   1  21
TORSDOF 14
