REMARK  Name = ZINC36067460
REMARK  13 active torsions:
REMARK  status: ('A' for Active; 'I' for Inactive)
REMARK    1  A    between atoms: C_1  and  C_2
REMARK    2  A    between atoms: C_2  and  N_3
REMARK    3  A    between atoms: C_7  and  C_9
REMARK    4  A    between atoms: C_9  and  N_10
REMARK    5  A    between atoms: C_11  and  C_13
REMARK    6  A    between atoms: C_17  and  O_37
REMARK    7  A    between atoms: C_18  and  O_35
REMARK    8  A    between atoms: N_23  and  C_34
REMARK    9  A    between atoms: C_24  and  C_26
REMARK   10  A    between atoms: C_29  and  S_32
REMARK   11  A    between atoms: S_32  and  C_33
REMARK   12  A    between atoms: O_35  and  C_36
REMARK   13  A    between atoms: O_37  and  C_38
REMARK                            x       y       z     vdW  Elec       q    Type
REMARK                         _______ _______ _______ _____ _____    ______ ____
ROOT
ATOM      1  C   UNL     1      -1.485  -1.226   4.909  0.00  0.00    +0.130 C 
ATOM      2  C   UNL     1      -0.015  -1.555   4.959  0.00  0.00    -0.018 A 
ATOM      3  C   UNL     1       0.657  -1.937   3.820  0.00  0.00    +0.054 A 
ATOM      4  C   UNL     1       2.014  -2.224   3.877  0.00  0.00    +0.162 A 
ATOM      5  C   UNL     1       2.703  -2.124   5.086  0.00  0.00    +0.162 A 
ATOM      6  C   UNL     1       2.032  -1.746   6.234  0.00  0.00    +0.062 A 
ATOM      7  C   UNL     1       0.667  -1.466   6.176  0.00  0.00    +0.045 A 
ATOM      8  C   UNL     1      -0.082  -1.096   7.392  0.00  0.00    +0.247 C 
ATOM      9  O   UNL     1       0.510  -0.787   8.408  0.00  0.00    -0.270 OA
ATOM     10  N   UNL     1      -1.429  -1.103   7.367  0.00  0.00    -0.292 N 
ATOM     11  C   UNL     1      -2.156  -1.635   6.217  0.00  0.00    +0.122 C 
ATOM     12  C   UNL     1      -2.174  -0.572   8.511  0.00  0.00    +0.133 C 
ENDROOT
BRANCH  11  13
ATOM     13  C   UNL     1      -2.196  -3.139   6.305  0.00  0.00    -0.026 A 
ATOM     14  C   UNL     1      -1.071  -3.836   6.706  0.00  0.00    +0.006 A 
ATOM     15  C   UNL     1      -1.103  -5.214   6.787  0.00  0.00    +0.015 A 
ATOM     16  C   UNL     1      -2.268  -5.900   6.466  0.00  0.00    +0.008 A 
ATOM     17  C   UNL     1      -3.396  -5.196   6.064  0.00  0.00    +0.015 A 
ATOM     18  C   UNL     1      -3.358  -3.818   5.990  0.00  0.00    +0.006 A 
BRANCH  16  19
ATOM     19  S   UNL     1      -2.313  -7.659   6.568  0.00  0.00    -0.129 S 
ATOM     20  C   UNL     1      -4.003  -8.084   6.064  0.00  0.00    +0.090 C 
ENDBRANCH  16  19
ENDBRANCH  11  13
BRANCH   1  22
ATOM     21  N   UNL     1      -3.092  -1.382   3.035  0.00  0.00    -0.316 N 
ATOM     22  C   UNL     1      -2.124  -1.971   3.765  0.00  0.00    +0.223 C 
ATOM     23  O   UNL     1      -1.768  -3.100   3.502  0.00  0.00    -0.275 OA
ATOM     24  H   UNL     1      -3.429  -0.509   3.291  0.00  0.00    +0.149 HD
BRANCH  21  25
ATOM     25  C   UNL     1      -3.634  -2.059   1.854  0.00  0.00    +0.089 C 
BRANCH  25  30
ATOM     26  N   UNL     1      -5.739  -0.839   2.210  0.00  0.00    +0.382 N 
ATOM     27  C   UNL     1      -7.035  -1.388   1.758  0.00  0.00    -0.078 C 
ATOM     28  C   UNL     1      -6.894  -1.520   0.221  0.00  0.00    -0.020 C 
ATOM     29  C   UNL     1      -5.413  -1.959   0.079  0.00  0.00    -0.016 C 
ATOM     30  C   UNL     1      -4.710  -1.182   1.212  0.00  0.00    -0.051 C 
ATOM     31  H   UNL     1      -5.495  -1.242   3.102  0.00  0.00    -0.081 HD
BRANCH  26  33
ATOM     32  C   UNL     1      -6.816   0.971   3.461  0.00  0.00    -0.017 C 
ATOM     33  C   UNL     1      -5.838   0.621   2.337  0.00  0.00    -0.082 C 
ENDBRANCH  26  33
ENDBRANCH  25  30
ENDBRANCH  21  25
ENDBRANCH   1  22
BRANCH   5  34
ATOM     34  O   UNL     1       4.033  -2.400   5.135  0.00  0.00    -0.491 OA
ATOM     35  C   UNL     1       4.675  -2.278   6.406  0.00  0.00    +0.277 C 
ENDBRANCH   5  34
BRANCH   4  36
ATOM     36  O   UNL     1       2.674  -2.602   2.752  0.00  0.00    -0.491 OA
ATOM     37  C   UNL     1       1.909  -2.683   1.548  0.00  0.00    +0.277 C 
ENDBRANCH   4  36
TORSDOF 8
