REMARK  Name = ZINC02123323
REMARK  6 active torsions:
REMARK  status: ('A' for Active; 'I' for Inactive)
REMARK    1  A    between atoms: C_1  and  C_2
REMARK    2  A    between atoms: C_2  and  C_3
REMARK    3  A    between atoms: C_3  and  C_4
REMARK    4  A    between atoms: C_14  and  C_15
REMARK    5  A    between atoms: C_19  and  C_20
REMARK    6  A    between atoms: C_19  and  N_49
REMARK                            x       y       z     vdW  Elec       q    Type
REMARK                         _______ _______ _______ _____ _____    ______ ____
ROOT
ATOM      1  C   UNL     1      -1.308   2.095   0.020  0.00  0.00    -0.030 A 
ATOM      2  C   UNL     1      -2.439   1.343   0.030  0.00  0.00    +0.096 A 
ATOM      3  C   UNL     1      -2.346  -0.063   0.022  0.00  0.00    +0.337 A 
ATOM      4  O   UNL     1      -3.368  -0.726   0.027  0.00  0.00    -0.245 OA
ATOM      5  O   UNL     1      -1.160  -0.692   0.009  0.00  0.00    -0.422 OA
ATOM      6  C   UNL     1       0.002  -0.004   0.002  0.00  0.00    +0.146 A 
ATOM      7  C   UNL     1      -0.017   1.403   0.010  0.00  0.00    +0.021 A 
ATOM      8  C   UNL     1       1.185   2.118   0.002  0.00  0.00    +0.017 A 
ATOM      9  C   UNL     1       2.377   1.450  -0.014  0.00  0.00    -0.021 A 
ATOM     10  C   UNL     1       2.403   0.058  -0.021  0.00  0.00    +0.125 A 
ATOM     11  C   UNL     1       1.219  -0.666  -0.013  0.00  0.00    +0.034 A 
ATOM     12  C   UNL     1       1.257  -2.173  -0.021  0.00  0.00    +0.051 C 
ATOM     13  O   UNL     1       3.584  -0.614  -0.032  0.00  0.00    -0.509 OA
ATOM     14  C   UNL     1       4.751   0.124  -0.401  0.00  0.00    +0.158 C 
ATOM     15  C   UNL     1       3.660   2.243  -0.025  0.00  0.00    -0.034 C 
ATOM     16  N   UNL     1       4.772   1.369   0.394  0.00  0.00    +0.408 N 
ATOM     17  H   UNL     1       4.658   1.134   1.387  0.00  0.00    -0.076 HD
ENDROOT
BRANCH   1  18
ATOM     18  C   UNL     1      -1.379   3.601   0.029  0.00  0.00    +0.036 C 
BRANCH  18  20
ATOM     19  C   UNL     1      -1.356   5.653  -1.396  0.00  0.00    +0.004 C 
ATOM     20  C   UNL     1      -1.284   4.125  -1.405  0.00  0.00    +0.001 C 
ENDBRANCH  18  20
ENDBRANCH   1  18
BRANCH  16  21
ATOM     21  C   UNL     1       6.064   2.068   0.210  0.00  0.00    -0.036 C 
BRANCH  21  22
ATOM     22  C   UNL     1       7.162   1.240   0.828  0.00  0.00    -0.045 A 
ATOM     23  C   UNL     1       8.035   0.536   0.020  0.00  0.00    +0.003 A 
ATOM     24  C   UNL     1       9.041  -0.223   0.586  0.00  0.00    +0.000 A 
ATOM     25  C   UNL     1       9.176  -0.279   1.961  0.00  0.00    +0.001 A 
ATOM     26  C   UNL     1       8.303   0.424   2.770  0.00  0.00    +0.020 A 
ATOM     27  C   UNL     1       7.299   1.189   2.203  0.00  0.00    +0.042 A 
ATOM     28 CL   UNL     1       6.207   2.079   3.218  0.00  0.00    -0.083 Cl
ENDBRANCH  21  22
ENDBRANCH  16  21
TORSDOF 4
