REMARK  Name = ZINC00626689
REMARK  13 active torsions:
REMARK  status: ('A' for Active; 'I' for Inactive)
REMARK    1  A    between atoms: C_1  and  C_2
REMARK    2  A    between atoms: C_3  and  C_28
REMARK    3  A    between atoms: C_4  and  C_16
REMARK    4  A    between atoms: C_10  and  C_14
REMARK    5  A    between atoms: C_10  and  C_15
REMARK    6  A    between atoms: C_18  and  O_26
REMARK    7  A    between atoms: C_19  and  O_24
REMARK    8  A    between atoms: C_20  and  O_22
REMARK    9  A    between atoms: O_22  and  C_23
REMARK   10  A    between atoms: O_24  and  C_25
REMARK   11  A    between atoms: O_26  and  C_27
REMARK   12  A    between atoms: C_28  and  O_30
REMARK   13  A    between atoms: O_30  and  C_31
REMARK                            x       y       z     vdW  Elec       q    Type
REMARK                         _______ _______ _______ _____ _____    ______ ____
ROOT
ATOM      1  C   UNL     1       7.431   2.510   2.530  0.00  0.00    +0.061 C 
ATOM      2  C   UNL     1       6.407   3.416   1.895  0.00  0.00    +0.016 C 
ATOM      3  C   UNL     1       5.996   3.180   0.638  0.00  0.00    +0.065 C 
ATOM      4  C   UNL     1       4.972   4.056  -0.024  0.00  0.00    +0.092 C 
ATOM      5  C   UNL     1       4.841   5.374   0.697  0.00  0.00    +0.024 C 
ATOM      6  C   UNL     1       5.299   5.518   1.959  0.00  0.00    +0.016 C 
ATOM      7  N   UNL     1       5.903   4.472   2.603  0.00  0.00    -0.321 N 
ATOM      8  C   UNL     1       5.160   6.830   2.690  0.00  0.00    +0.058 C 
ATOM      9  C   UNL     1       5.209   7.985   1.688  0.00  0.00    -0.023 C 
ATOM     10  C   UNL     1       4.080   7.793   0.669  0.00  0.00    +0.086 C 
ATOM     11  C   UNL     1       4.233   6.444   0.019  0.00  0.00    +0.162 C 
ATOM     12  O   UNL     1       3.823   6.278  -1.113  0.00  0.00    -0.292 OA
ATOM     13  C   UNL     1       6.558   7.984   0.966  0.00  0.00    +0.011 C 
ATOM     14  C   UNL     1       5.019   9.315   2.420  0.00  0.00    +0.011 C 
ATOM     15  H   UNL     1       5.981   4.486   3.700  0.00  0.00    +0.152 HD
ENDROOT
BRANCH   4  16
ATOM     16  C   UNL     1       3.639   3.352  -0.015  0.00  0.00    -0.028 A 
ATOM     17  C   UNL     1       3.018   3.037  -1.209  0.00  0.00    +0.054 A 
ATOM     18  C   UNL     1       1.792   2.390  -1.205  0.00  0.00    +0.165 A 
ATOM     19  C   UNL     1       1.187   2.059   0.002  0.00  0.00    +0.204 A 
ATOM     20  C   UNL     1       1.812   2.382   1.200  0.00  0.00    +0.165 A 
ATOM     21  C   UNL     1       3.041   3.025   1.188  0.00  0.00    +0.054 A 
BRANCH  20  22
ATOM     22  O   UNL     1       1.222   2.065   2.384  0.00  0.00    -0.491 OA
ATOM     23  C   UNL     1       1.921   2.428   3.575  0.00  0.00    +0.277 C 
ENDBRANCH  20  22
BRANCH  19  24
ATOM     24  O   UNL     1      -0.017   1.425   0.010  0.00  0.00    -0.488 OA
ATOM     25  C   UNL     1       0.002  -0.004   0.002  0.00  0.00    +0.277 C 
ENDBRANCH  19  24
BRANCH  18  26
ATOM     26  O   UNL     1       1.182   2.080  -2.380  0.00  0.00    -0.491 OA
ATOM     27  C   UNL     1       1.861   2.451  -3.581  0.00  0.00    +0.277 C 
ENDBRANCH  18  26
ENDBRANCH   4  16
BRANCH   3  28
ATOM     28  C   UNL     1       6.538   2.085  -0.076  0.00  0.00    +0.338 C 
ATOM     29  O   UNL     1       7.368   1.368   0.450  0.00  0.00    -0.245 OA
BRANCH  28  30
ATOM     30  O   UNL     1       6.134   1.837  -1.339  0.00  0.00    -0.458 OA
BRANCH  30  31
ATOM     31  C   UNL     1       6.723   0.715  -2.000  0.00  0.00    +0.177 C 
ATOM     32  C   UNL     1       7.957   1.166  -2.808  0.00  0.00    +0.044 C 
ATOM     33  C   UNL     1       7.910   0.297  -4.089  0.00  0.00    +0.004 C 
ATOM     34  C   UNL     1       6.394   0.227  -4.399  0.00  0.00    +0.004 C 
ATOM     35  C   UNL     1       5.729   0.118  -3.011  0.00  0.00    +0.044 C 
ENDBRANCH  30  31
ENDBRANCH  28  30
ENDBRANCH   3  28
TORSDOF 7
