REMARK  Name = ZINC39413063
REMARK  8 active torsions:
REMARK  status: ('A' for Active; 'I' for Inactive)
REMARK    1  A    between atoms: C_1  and  C_2
REMARK    2  A    between atoms: N_5  and  C_7
REMARK    3  A    between atoms: C_7  and  C_8
REMARK    4  A    between atoms: N_10  and  C_11
REMARK    5  A    between atoms: N_10  and  C_18
REMARK    6  A    between atoms: C_11  and  C_12
REMARK    7  A    between atoms: C_18  and  C_19
REMARK    8  A    between atoms: N_22  and  C_25
REMARK                            x       y       z     vdW  Elec       q    Type
REMARK                         _______ _______ _______ _____ _____    ______ ____
ROOT
ATOM      1  C   UNL     1       2.576  -4.108   4.248  0.00  0.00    +0.111 C 
ENDROOT
BRANCH   1   2
ATOM      2  C   UNL     1       2.139  -3.396   5.529  0.00  0.00    +0.003 C 
ATOM      3  C   UNL     1       1.778  -1.942   5.210  0.00  0.00    -0.014 C 
ATOM      4  C   UNL     1       1.418  -1.215   6.507  0.00  0.00    -0.078 C 
ATOM      5  N   UNL     1       2.564  -1.246   7.424  0.00  0.00    +0.382 N 
ATOM      6  C   UNL     1       2.871  -2.634   7.791  0.00  0.00    -0.078 C 
ATOM      7  C   UNL     1       3.287  -3.415   6.543  0.00  0.00    -0.014 C 
ATOM      8  H   UNL     1       3.367  -0.834   6.972  0.00  0.00    -0.081 HD
BRANCH   5   9
ATOM      9  C   UNL     1       2.241  -0.480   8.635  0.00  0.00    -0.060 C 
ATOM     10  C   UNL     1       2.094   1.022   8.312  0.00  0.00    +0.020 C 
ATOM     11  C   UNL     1       2.646   1.744   9.523  0.00  0.00    -0.046 A 
ATOM     12  C   UNL     1       2.490   3.057   9.933  0.00  0.00    +0.004 A 
ATOM     13  C   UNL     1       3.096   3.501  11.091  0.00  0.00    +0.000 A 
ATOM     14  C   UNL     1       3.862   2.631  11.845  0.00  0.00    +0.000 A 
ATOM     15  C   UNL     1       4.019   1.321  11.438  0.00  0.00    +0.004 A 
ATOM     16  C   UNL     1       3.411   0.874  10.277  0.00  0.00    -0.046 A 
ATOM     17  C   UNL     1       3.427  -0.491   9.624  0.00  0.00    +0.020 C 
ENDBRANCH   5   9
ENDBRANCH   1   2
BRANCH   1  20
ATOM     18  C   UNL     1       1.222  -3.207   2.434  0.00  0.00    +0.237 C 
ATOM     19  O   UNL     1       1.964  -2.248   2.396  0.00  0.00    -0.274 OA
ATOM     20  N   UNL     1       1.442  -4.193   3.325  0.00  0.00    -0.297 N 
BRANCH  18  21
ATOM     21  C   UNL     1       0.055  -3.295   1.485  0.00  0.00    +0.239 C 
BRANCH  21  26
ATOM     22  C   UNL     1      -0.018   1.503   0.010  0.00  0.00    +0.067 C 
ATOM     23  C   UNL     1       0.002  -0.004   0.002  0.00  0.00    +0.060 A 
ATOM     24  C   UNL     1       0.008  -0.818  -1.135  0.00  0.00    +0.044 A 
ATOM     25  C   UNL     1       0.028  -2.107  -0.725  0.00  0.00    +0.109 A 
ATOM     26  N   UNL     1       0.034  -2.109   0.625  0.00  0.00    -0.262 N 
ATOM     27  N   UNL     1       0.023  -0.777   1.058  0.00  0.00    -0.176 NA
ENDBRANCH  21  26
ENDBRANCH  18  21
BRANCH  20  28
ATOM     28  C   UNL     1       0.546  -5.352   3.371  0.00  0.00    +0.139 C 
BRANCH  28  29
ATOM     29  C   UNL     1       1.066  -6.437   2.427  0.00  0.00    +0.136 C 
ATOM     30  C   UNL     1       0.113  -7.659   2.435  0.00  0.00    +0.035 C 
ATOM     31  C   UNL     1       0.418  -8.279   1.044  0.00  0.00    +0.031 C 
ATOM     32  C   UNL     1       0.702  -7.029   0.183  0.00  0.00    +0.160 C 
ATOM     33  O   UNL     1       1.061  -5.963   1.071  0.00  0.00    -0.375 OA
ENDBRANCH  28  29
ENDBRANCH  20  28
ENDBRANCH   1  20
TORSDOF 7
