REMARK  Name = ZINC15946260
REMARK  11 active torsions:
REMARK  status: ('A' for Active; 'I' for Inactive)
REMARK    1  A    between atoms: C_1  and  C_2
REMARK    2  A    between atoms: C_2  and  C_3
REMARK    3  A    between atoms: C_3  and  C_4
REMARK    4  A    between atoms: C_3  and  C_5
REMARK    5  A    between atoms: C_3  and  C_6
REMARK    6  A    between atoms: C_15  and  O_31
REMARK    7  A    between atoms: C_17  and  C_20
REMARK    8  A    between atoms: C_24  and  O_27
REMARK    9  A    between atoms: C_25  and  O_26
REMARK   10  A    between atoms: O_27  and  C_28
REMARK   11  A    between atoms: C_28  and  C_29
REMARK                            x       y       z     vdW  Elec       q    Type
REMARK                         _______ _______ _______ _____ _____    ______ ____
ROOT
ATOM      1  C   UNL     1      -1.413  -2.063   0.004  0.00  0.00    -0.000 C 
ATOM      2  C   UNL     1      -2.848  -2.596   0.009  0.00  0.00    +0.009 C 
ATOM      3  C   UNL     1      -2.842  -4.107   0.249  0.00  0.00    +0.037 C 
ATOM      4  C   UNL     1      -1.896  -4.757  -0.751  0.00  0.00    -0.023 A 
ATOM      5  C   UNL     1      -0.959  -4.030  -1.401  0.00  0.00    -0.004 A 
ATOM      6  S   UNL     1      -0.118  -5.197  -2.436  0.00  0.00    -0.078 S 
ATOM      7  C   UNL     1      -0.958  -6.570  -2.038  0.00  0.00    +0.080 A 
ATOM      8  C   UNL     1      -1.906  -6.168  -1.091  0.00  0.00    +0.068 A 
ATOM      9  C   UNL     1      -2.805  -7.212  -0.535  0.00  0.00    +0.220 C 
ATOM     10  N   UNL     1      -2.830  -8.372  -1.135  0.00  0.00    -0.223 NA
ATOM     11  C   UNL     1      -2.086  -8.691  -2.346  0.00  0.00    +0.227 C 
ATOM     12  N   UNL     1      -0.863  -7.876  -2.464  0.00  0.00    -0.313 N 
ATOM     13  C   UNL     1      -0.700  -2.561  -1.261  0.00  0.00    +0.046 C 
ATOM     14  H   UNL     1      -0.038  -8.239  -2.822  0.00  0.00    +0.149 HD
ENDROOT
BRANCH  11  15
ATOM     15  C   UNL     1      -2.963  -8.435  -3.545  0.00  0.00    +0.041 A 
ATOM     16  C   UNL     1      -2.408  -7.962  -4.719  0.00  0.00    +0.026 A 
ATOM     17  C   UNL     1      -3.210  -7.726  -5.821  0.00  0.00    +0.022 A 
ATOM     18  C   UNL     1      -4.571  -7.964  -5.752  0.00  0.00    +0.064 A 
ATOM     19  C   UNL     1      -5.133  -8.438  -4.578  0.00  0.00    +0.163 A 
ATOM     20  C   UNL     1      -4.324  -8.680  -3.471  0.00  0.00    +0.165 A 
ATOM     21 BR   UNL     1      -2.445  -7.078  -7.424  0.00  0.00    -0.050 Br
BRANCH  20  22
ATOM     22  O   UNL     1      -4.870  -9.151  -2.318  0.00  0.00    -0.503 OA
ATOM     23  H   UNL     1      -5.162  -8.459  -1.710  0.00  0.00    +0.292 HD
ENDBRANCH  20  22
BRANCH  19  24
ATOM     24  O   UNL     1      -6.471  -8.672  -4.508  0.00  0.00    -0.489 OA
BRANCH  24  25
ATOM     25  C   UNL     1      -7.238  -8.406  -5.684  0.00  0.00    +0.226 C 
ATOM     26  C   UNL     1      -8.710  -8.726  -5.417  0.00  0.00    +0.048 C 
ENDBRANCH  24  25
ENDBRANCH  19  24
ENDBRANCH  11  15
BRANCH   1  27
ATOM     27  C   UNL     1      -1.433  -0.534   0.013  0.00  0.00    -0.032 C 
ATOM     28  C   UNL     1      -2.149  -0.040   1.272  0.00  0.00    +0.011 C 
ATOM     29  C   UNL     1      -2.173  -0.027  -1.227  0.00  0.00    +0.011 C 
BRANCH  27  31
ATOM     30  C   UNL     1      -0.019   1.526   0.010  0.00  0.00    +0.004 C 
ATOM     31  C   UNL     1       0.002  -0.004   0.002  0.00  0.00    +0.003 C 
ENDBRANCH  27  31
ENDBRANCH   1  27
BRANCH   9  32
ATOM     32  O   UNL     1      -3.572  -6.970   0.553  0.00  0.00    -0.492 OA
ATOM     33  H   UNL     1      -4.117  -7.721   0.825  0.00  0.00    +0.294 HD
ENDBRANCH   9  32
TORSDOF 7
