REMARK  Name = ZINC13656081
REMARK  10 active torsions:
REMARK  status: ('A' for Active; 'I' for Inactive)
REMARK    1  A    between atoms: C_1  and  C_2
REMARK    2  A    between atoms: C_2  and  O_3
REMARK    3  A    between atoms: O_3  and  C_4
REMARK    4  A    between atoms: C_4  and  C_5
REMARK    5  A    between atoms: C_5  and  N_6
REMARK    6  A    between atoms: C_10  and  S_24
REMARK    7  A    between atoms: N_15  and  C_16
REMARK    8  A    between atoms: C_16  and  C_18
REMARK    9  A    between atoms: N_22  and  C_23
REMARK   10  A    between atoms: S_24  and  N_27
REMARK                            x       y       z     vdW  Elec       q    Type
REMARK                         _______ _______ _______ _____ _____    ______ ____
ROOT
ATOM      1  N   UNL     1      -0.448   1.713   0.963  0.00  0.00    -0.319 N 
ATOM      2  C   UNL     1       0.701   0.992   0.691  0.00  0.00    +0.058 A 
ATOM      3  C   UNL     1       0.832  -0.403   0.587  0.00  0.00    +0.029 A 
ATOM      4  C   UNL     1       2.046  -0.979   0.305  0.00  0.00    +0.030 A 
ATOM      5  C   UNL     1       3.180  -0.207   0.112  0.00  0.00    +0.106 A 
ATOM      6  C   UNL     1       3.082   1.170   0.207  0.00  0.00    +0.045 A 
ATOM      7  C   UNL     1       1.866   1.746   0.491  0.00  0.00    +0.041 A 
ATOM      8  S   UNL     1       1.313   3.422   0.697  0.00  0.00    -0.052 S 
ATOM      9  C   UNL     1      -0.406   3.074   1.034  0.00  0.00    +0.167 A 
ATOM     10  N   UNL     1      -1.393   3.925   1.286  0.00  0.00    -0.151 NA
ENDROOT
BRANCH   5  11
ATOM     11  S   UNL     1       4.728  -0.968  -0.249  0.00  0.00    +0.056 S 
ATOM     12  O   UNL     1       5.735  -0.052   0.155  0.00  0.00    -0.153 OA
ATOM     13  O   UNL     1       4.656  -2.294   0.257  0.00  0.00    -0.153 OA
BRANCH  11  14
ATOM     14  N   UNL     1       4.838  -1.096  -1.897  0.00  0.00    -0.204 NA
ATOM     15  H   UNL     1       4.115  -0.774  -2.458  0.00  0.00    +0.144 HD
ATOM     16  H   UNL     1       5.625  -1.493  -2.301  0.00  0.00    +0.144 HD
ENDBRANCH  11  14
ENDBRANCH   5  11
BRANCH  10  17
ATOM     17  C   UNL     1      -1.126   5.222   1.477  0.00  0.00    +0.287 C 
ATOM     18  O   UNL     1       0.024   5.623   1.416  0.00  0.00    -0.266 OA
BRANCH  17  19
ATOM     19  C   UNL     1      -2.223   6.167   1.760  0.00  0.00    +0.125 A 
ATOM     20  C   UNL     1      -2.092   7.501   2.084  0.00  0.00    +0.054 A 
ATOM     21  C   UNL     1      -3.372   8.020   2.268  0.00  0.00    +0.135 A 
ATOM     22  N   UNL     1      -4.245   7.063   2.078  0.00  0.00    -0.179 NA
ATOM     23  N   UNL     1      -3.559   5.884   1.757  0.00  0.00    -0.262 N 
ATOM     24  C   UNL     1      -4.166   4.582   1.471  0.00  0.00    +0.173 C 
ENDBRANCH  17  19
ENDBRANCH  10  17
BRANCH   1  25
ATOM     25  C   UNL     1      -1.715   1.011   1.180  0.00  0.00    +0.152 C 
BRANCH  25  26
ATOM     26  C   UNL     1      -2.512   1.723   2.275  0.00  0.00    +0.181 C 
BRANCH  26  27
ATOM     27  O   UNL     1      -3.687   0.967   2.578  0.00  0.00    -0.378 OA
BRANCH  27  29
ATOM     28  C   UNL     1      -5.601   0.533   3.987  0.00  0.00    +0.034 C 
ATOM     29  C   UNL     1      -4.443   1.483   3.675  0.00  0.00    +0.156 C 
ENDBRANCH  27  29
ENDBRANCH  26  27
ENDBRANCH  25  26
ENDBRANCH   1  25
TORSDOF 8
