REMARK  Name = ZINC22060334
REMARK  6 active torsions:
REMARK  status: ('A' for Active; 'I' for Inactive)
REMARK    1  A    between atoms: C_1  and  N_2
REMARK    2  A    between atoms: N_2  and  C_3
REMARK    3  A    between atoms: N_2  and  C_12
REMARK    4  A    between atoms: C_3  and  C_4
REMARK    5  A    between atoms: C_12  and  C_13
REMARK    6  A    between atoms: C_23  and  C_25
REMARK                            x       y       z     vdW  Elec       q    Type
REMARK                         _______ _______ _______ _____ _____    ______ ____
ROOT
ATOM      1  C   UNL     1      -0.018   1.503   0.010  0.00  0.00    +0.200 C 
ATOM      2  O   UNL     1      -1.077   2.095   0.018  0.00  0.00    -0.278 OA
ATOM      3  N   UNL     1       1.139   2.192   0.003  0.00  0.00    -0.291 N 
ATOM      4  C   UNL     1       2.429   1.485  -0.013  0.00  0.00    +0.114 C 
ATOM      5  C   UNL     1       3.138   1.805  -1.338  0.00  0.00    +0.062 C 
ATOM      6  C   UNL     1       2.988   3.264  -1.622  0.00  0.00    -0.003 A 
ATOM      7  C   UNL     1       2.112   4.139  -1.059  0.00  0.00    -0.012 A 
ATOM      8  C   UNL     1       2.170   5.458  -1.506  0.00  0.00    +0.013 A 
ATOM      9  C   UNL     1       3.071   5.813  -2.451  0.00  0.00    +0.046 A 
ATOM     10  S   UNL     1       3.902   4.263  -2.767  0.00  0.00    -0.101 S 
ATOM     11  C   UNL     1       1.132   3.662   0.005  0.00  0.00    +0.144 C 
ENDROOT
BRANCH  11  12
ATOM     12  C   UNL     1       1.562   4.173   1.356  0.00  0.00    +0.015 A 
ATOM     13  C   UNL     1       1.074   5.217   2.068  0.00  0.00    +0.013 A 
ATOM     14  C   UNL     1       1.629   5.506   3.301  0.00  0.00    +0.008 A 
ATOM     15  C   UNL     1       2.646   4.736   3.760  0.00  0.00    +0.045 A 
ATOM     16  S   UNL     1       2.842   3.554   2.436  0.00  0.00    -0.099 S 
ENDBRANCH  11  12
BRANCH   1  17
ATOM     17  C   UNL     1       0.002  -0.004   0.002  0.00  0.00    +0.019 C 
BRANCH  17  19
ATOM     18  C   UNL     1      -2.051  -0.179   1.274  0.00  0.00    -0.095 C 
ATOM     19  N   UNL     1      -1.376  -0.512   0.012  0.00  0.00    +0.386 N 
ATOM     20  H   UNL     1      -1.924  -0.020  -0.804  0.00  0.00    -0.081 HD
BRANCH  19  21
ATOM     21  C   UNL     1      -1.405  -1.961  -0.233  0.00  0.00    -0.038 C 
BRANCH  21  22
ATOM     22  C   UNL     1      -2.827  -2.404  -0.459  0.00  0.00    -0.010 A 
ATOM     23  C   UNL     1      -3.356  -2.410  -1.739  0.00  0.00    +0.126 A 
ATOM     24  C   UNL     1      -4.663  -2.818  -1.946  0.00  0.00    +0.038 A 
ATOM     25  C   UNL     1      -5.439  -3.218  -0.875  0.00  0.00    +0.004 A 
ATOM     26  C   UNL     1      -4.912  -3.211   0.403  0.00  0.00    +0.020 A 
ATOM     27  C   UNL     1      -3.604  -2.809   0.611  0.00  0.00    +0.045 A 
ATOM     28 CL   UNL     1      -2.941  -2.808   2.215  0.00  0.00    -0.083 Cl
ATOM     29  F   UNL     1      -2.596  -2.019  -2.786  0.00  0.00    -0.205 F 
ENDBRANCH  21  22
ENDBRANCH  19  21
ENDBRANCH  17  19
ENDBRANCH   1  17
TORSDOF 5
