REMARK  Name = ZINC36644548
REMARK  7 active torsions:
REMARK  status: ('A' for Active; 'I' for Inactive)
REMARK    1  A    between atoms: C_4  and  C_7
REMARK    2  A    between atoms: C_7  and  N_8
REMARK    3  A    between atoms: C_9  and  N_39
REMARK    4  A    between atoms: C_10  and  N_17
REMARK    5  A    between atoms: N_17  and  C_18
REMARK    6  A    between atoms: C_18  and  C_19
REMARK    7  A    between atoms: C_25  and  C_27
REMARK                            x       y       z     vdW  Elec       q    Type
REMARK                         _______ _______ _______ _____ _____    ______ ____
ROOT
ATOM      1  N   UNL     1       6.454   0.706   3.770  0.00  0.00    -0.259 N 
ATOM      2  C   UNL     1       6.256   1.971   3.345  0.00  0.00    +0.228 C 
ATOM      3  O   UNL     1       6.468   2.902   4.093  0.00  0.00    -0.275 OA
ENDROOT
BRANCH   2   4
ATOM      4  C   UNL     1       5.773   2.227   1.940  0.00  0.00    +0.116 C 
ATOM      5  C   UNL     1       4.248   2.112   1.897  0.00  0.00    +0.113 C 
ATOM      6  C   UNL     1       3.626   3.288   2.599  0.00  0.00    +0.218 C 
ATOM      7  O   UNL     1       2.602   3.135   3.232  0.00  0.00    -0.275 OA
ATOM      8  N   UNL     1       4.191   4.507   2.534  0.00  0.00    -0.285 N 
ATOM      9  C   UNL     1       5.380   4.700   1.824  0.00  0.00    +0.037 A 
ATOM     10  C   UNL     1       6.185   3.611   1.512  0.00  0.00    -0.014 A 
ATOM     11  C   UNL     1       7.359   3.800   0.811  0.00  0.00    +0.006 A 
ATOM     12  C   UNL     1       7.734   5.073   0.420  0.00  0.00    +0.000 A 
ATOM     13  C   UNL     1       6.936   6.158   0.729  0.00  0.00    +0.002 A 
ATOM     14  C   UNL     1       5.760   5.976   1.430  0.00  0.00    +0.023 A 
ATOM     15  H   UNL     1       3.771   5.258   2.982  0.00  0.00    +0.155 HD
ENDBRANCH   2   4
BRANCH   1  18
ATOM     16  N   UNL     1       4.734  -2.250   2.425  0.00  0.00    -0.276 N 
ATOM     17  C   UNL     1       5.046  -1.199   3.257  0.00  0.00    +0.128 A 
ATOM     18  C   UNL     1       6.109  -0.380   2.938  0.00  0.00    +0.140 A 
ATOM     19  C   UNL     1       6.845  -0.647   1.767  0.00  0.00    +0.277 A 
ATOM     20  O   UNL     1       7.790   0.061   1.462  0.00  0.00    -0.266 OA
ATOM     21  N   UNL     1       6.498  -1.689   0.987  0.00  0.00    -0.273 N 
ATOM     22  H   UNL     1       7.004  -1.874   0.181  0.00  0.00    +0.173 HD
ATOM     23  C   UNL     1       5.461  -2.480   1.317  0.00  0.00    +0.331 A 
ATOM     24  O   UNL     1       5.172  -3.417   0.598  0.00  0.00    -0.246 OA
BRANCH  17  25
ATOM     25  N   UNL     1       4.306  -0.968   4.392  0.00  0.00    -0.343 N 
ATOM     26  H   UNL     1       3.494  -1.473   4.553  0.00  0.00    +0.144 HD
ATOM     27  H   UNL     1       4.596  -0.298   5.031  0.00  0.00    +0.144 HD
ENDBRANCH  17  25
BRANCH  16  28
ATOM     28  C   UNL     1       3.607  -3.127   2.752  0.00  0.00    +0.163 C 
BRANCH  28  32
ATOM     29  C   UNL     1       4.976  -6.362   5.182  0.00  0.00    +0.000 A 
ATOM     30  C   UNL     1       4.538  -5.192   5.772  0.00  0.00    +0.000 A 
ATOM     31  C   UNL     1       4.095  -4.145   4.986  0.00  0.00    +0.005 A 
ATOM     32  C   UNL     1       4.091  -4.268   3.609  0.00  0.00    -0.028 A 
ATOM     33  C   UNL     1       4.531  -5.438   3.019  0.00  0.00    +0.005 A 
ATOM     34  C   UNL     1       4.972  -6.486   3.805  0.00  0.00    +0.000 A 
ENDBRANCH  28  32
ENDBRANCH  16  28
ENDBRANCH   1  18
BRANCH   1  35
ATOM     35  C   UNL     1       7.026   0.460   5.096  0.00  0.00    +0.149 C 
BRANCH  35  36
ATOM     36  C   UNL     1       8.529   0.421   4.995  0.00  0.00    -0.030 A 
ATOM     37  C   UNL     1       9.169  -0.755   4.649  0.00  0.00    +0.005 A 
ATOM     38  C   UNL     1      10.548  -0.791   4.557  0.00  0.00    +0.000 A 
ATOM     39  C   UNL     1      11.287   0.350   4.809  0.00  0.00    +0.000 A 
ATOM     40  C   UNL     1      10.648   1.526   5.154  0.00  0.00    +0.000 A 
ATOM     41  C   UNL     1       9.268   1.563   5.242  0.00  0.00    +0.005 A 
ENDBRANCH  35  36
ENDBRANCH   1  35
TORSDOF 7
