REMARK  Name = ZINC32932880
REMARK  12 active torsions:
REMARK  status: ('A' for Active; 'I' for Inactive)
REMARK    1  A    between atoms: C_1  and  C_2
REMARK    2  A    between atoms: C_2  and  C_3
REMARK    3  A    between atoms: C_2  and  C_4
REMARK    4  A    between atoms: C_4  and  C_6
REMARK    5  A    between atoms: C_4  and  N_12
REMARK    6  A    between atoms: N_10  and  C_11
REMARK    7  A    between atoms: N_12  and  S_13
REMARK    8  A    between atoms: S_13  and  C_16
REMARK    9  A    between atoms: C_19  and  S_22
REMARK   10  A    between atoms: S_22  and  N_25
REMARK   11  A    between atoms: N_25  and  C_26
REMARK   12  A    between atoms: N_25  and  C_27
REMARK                            x       y       z     vdW  Elec       q    Type
REMARK                         _______ _______ _______ _____ _____    ______ ____
ROOT
ATOM      1  S   UNL     1       1.016   5.299   1.589  0.00  0.00    +0.059 S 
ATOM      2  O   UNL     1      -0.145   5.797   2.240  0.00  0.00    -0.153 OA
ATOM      3  O   UNL     1       2.234   5.062   2.281  0.00  0.00    -0.153 OA
ENDROOT
BRANCH   1   4
ATOM      4  C   UNL     1       1.386   6.428   0.288  0.00  0.00    +0.105 A 
ATOM      5  C   UNL     1       2.657   6.465  -0.254  0.00  0.00    +0.030 A 
ATOM      6  C   UNL     1       2.947   7.348  -1.278  0.00  0.00    +0.030 A 
ATOM      7  C   UNL     1       1.968   8.200  -1.753  0.00  0.00    +0.106 A 
ATOM      8  C   UNL     1       0.698   8.166  -1.208  0.00  0.00    +0.030 A 
ATOM      9  C   UNL     1       0.407   7.281  -0.187  0.00  0.00    +0.030 A 
BRANCH   7  10
ATOM     10  S   UNL     1       2.338   9.328  -3.055  0.00  0.00    +0.060 S 
ATOM     11  O   UNL     1       3.444   8.783  -3.762  0.00  0.00    -0.153 OA
ATOM     12  O   UNL     1       1.105   9.634  -3.690  0.00  0.00    -0.153 OA
BRANCH  10  13
ATOM     13  N   UNL     1       2.870  10.729  -2.352  0.00  0.00    -0.183 NA
ATOM     14  C   UNL     1       4.297  10.915  -2.078  0.00  0.00    +0.131 C 
ATOM     15  C   UNL     1       1.914  11.783  -2.004  0.00  0.00    +0.131 C 
ENDBRANCH  10  13
ENDBRANCH   7  10
ENDBRANCH   1   4
BRANCH   1  16
ATOM     16  N   UNL     1       0.585   3.864   0.885  0.00  0.00    -0.179 NA
ATOM     17  H   UNL     1      -0.476   3.571   0.867  0.00  0.00    +0.149 HD
BRANCH  16  18
ATOM     18  C   UNL     1       1.567   3.106   0.106  0.00  0.00    +0.143 C 
BRANCH  18  19
ATOM     19  C   UNL     1       2.214   2.069   0.987  0.00  0.00    +0.106 A 
ATOM     20  N   UNL     1       1.589   1.281   1.819  0.00  0.00    -0.348 N 
ATOM     21  C   UNL     1       2.481   0.490   2.433  0.00  0.00    +0.101 A 
ATOM     22  C   UNL     1       3.705   0.799   1.965  0.00  0.00    +0.104 A 
ATOM     23  N   UNL     1       3.536   1.801   1.047  0.00  0.00    -0.338 N 
ATOM     24  C   UNL     1       4.593   2.460   0.275  0.00  0.00    +0.150 C 
ATOM     25  H   UNL     1       0.496   1.343   1.919  0.00  0.00    +0.166 HD
ENDBRANCH  18  19
BRANCH  18  27
ATOM     26  C   UNL     1      -0.260   1.526  -0.533  0.00  0.00    +0.009 C 
ATOM     27  C   UNL     1       0.866   2.415  -1.065  0.00  0.00    +0.009 C 
ATOM     28  C   UNL     1       0.281   3.471  -2.005  0.00  0.00    +0.009 C 
ENDBRANCH  18  27
ENDBRANCH  16  18
ENDBRANCH   1  16
TORSDOF 7
