REMARK  Name = ZINC09524327
REMARK  10 active torsions:
REMARK  status: ('A' for Active; 'I' for Inactive)
REMARK    1  A    between atoms: C_1  and  C_2
REMARK    2  A    between atoms: C_2  and  C_3
REMARK    3  A    between atoms: C_2  and  S_4
REMARK    4  A    between atoms: S_4  and  C_5
REMARK    5  A    between atoms: C_12  and  C_24
REMARK    6  A    between atoms: C_17  and  C_21
REMARK    7  A    between atoms: C_17  and  C_22
REMARK    8  A    between atoms: C_27  and  N_30
REMARK    9  A    between atoms: N_30  and  C_31
REMARK   10  A    between atoms: N_30  and  C_32
REMARK                            x       y       z     vdW  Elec       q    Type
REMARK                         _______ _______ _______ _____ _____    ______ ____
ROOT
ATOM      1  C   UNL     1      -1.512  -2.377  -0.145  0.00  0.00    +0.172 A 
ATOM      2  N   UNL     1      -2.619  -3.169  -0.176  0.00  0.00    -0.322 N 
ATOM      3  C   UNL     1      -2.489  -4.527  -0.302  0.00  0.00    +0.111 A 
ATOM      4  C   UNL     1      -1.246  -5.071  -0.397  0.00  0.00    +0.069 A 
ATOM      5  C   UNL     1      -0.123  -4.216  -0.355  0.00  0.00    +0.280 A 
ATOM      6  N   UNL     1      -0.303  -2.891  -0.238  0.00  0.00    -0.185 NA
ATOM      7  O   UNL     1       1.005  -4.679  -0.431  0.00  0.00    -0.265 OA
ATOM      8  C   UNL     1      -1.061  -6.552  -0.548  0.00  0.00    +0.092 C 
ATOM      9  C   UNL     1      -2.308  -7.303  -0.155  0.00  0.00    +0.024 C 
ATOM     10  C   UNL     1      -2.194  -8.679   0.112  0.00  0.00    +0.162 C 
ATOM     11  C   UNL     1      -3.395  -9.503   0.485  0.00  0.00    +0.086 C 
ATOM     12  C   UNL     1      -4.644  -8.877  -0.143  0.00  0.00    -0.023 C 
ATOM     13  C   UNL     1      -4.747  -7.424   0.329  0.00  0.00    +0.058 C 
ATOM     14  C   UNL     1      -3.499  -6.674  -0.066  0.00  0.00    +0.017 C 
ATOM     15  N   UNL     1      -3.602  -5.335  -0.329  0.00  0.00    -0.304 N 
ATOM     16  C   UNL     1      -5.887  -9.651   0.301  0.00  0.00    +0.011 C 
ATOM     17  C   UNL     1      -4.527  -8.914  -1.668  0.00  0.00    +0.011 C 
ATOM     18  O   UNL     1      -1.104  -9.211   0.040  0.00  0.00    -0.292 OA
ATOM     19  H   UNL     1      -4.468  -4.952  -0.536  0.00  0.00    +0.153 HD
ATOM     20  H   UNL     1      -3.502  -2.772  -0.109  0.00  0.00    +0.169 HD
ENDROOT
BRANCH   8  21
ATOM     21  C   UNL     1      -0.731  -6.864  -1.985  0.00  0.00    -0.035 A 
ATOM     22  C   UNL     1      -1.621  -6.523  -2.987  0.00  0.00    +0.006 A 
ATOM     23  C   UNL     1      -1.321  -6.808  -4.304  0.00  0.00    +0.023 A 
ATOM     24  C   UNL     1      -0.124  -7.436  -4.623  0.00  0.00    +0.029 A 
ATOM     25  C   UNL     1       0.767  -7.777  -3.614  0.00  0.00    +0.023 A 
ATOM     26  C   UNL     1       0.464  -7.485  -2.299  0.00  0.00    +0.006 A 
BRANCH  24  27
ATOM     27  N   UNL     1       0.181  -7.726  -5.955  0.00  0.00    -0.336 N 
ATOM     28  C   UNL     1      -0.760  -7.366  -7.018  0.00  0.00    +0.129 C 
ATOM     29  C   UNL     1       1.444  -8.389  -6.289  0.00  0.00    +0.129 C 
ENDBRANCH  24  27
ENDBRANCH   8  21
BRANCH   1  30
ATOM     30  S   UNL     1      -1.700  -0.632   0.015  0.00  0.00    -0.085 S 
BRANCH  30  32
ATOM     31  C   UNL     1      -0.019   1.526   0.010  0.00  0.00    +0.019 C 
ATOM     32  C   UNL     1       0.002  -0.004   0.002  0.00  0.00    +0.048 C 
ATOM     33  C   UNL     1       0.742  -0.511   1.242  0.00  0.00    +0.019 C 
ENDBRANCH  30  32
ENDBRANCH   1  30
TORSDOF 4
