REMARK  Name = ZINC36017140
REMARK  17 active torsions:
REMARK  status: ('A' for Active; 'I' for Inactive)
REMARK    1  A    between atoms: C_1  and  C_2
REMARK    2  A    between atoms: C_2  and  C_3
REMARK    3  A    between atoms: C_3  and  N_4
REMARK    4  A    between atoms: N_10  and  C_15
REMARK    5  A    between atoms: C_12  and  C_14
REMARK    6  A    between atoms: C_15  and  C_16
REMARK    7  A    between atoms: C_17  and  C_36
REMARK    8  A    between atoms: C_18  and  C_26
REMARK    9  A    between atoms: N_23  and  C_24
REMARK   10  A    between atoms: C_24  and  C_25
REMARK   11  A    between atoms: C_28  and  O_34
REMARK   12  A    between atoms: C_30  and  O_32
REMARK   13  A    between atoms: O_32  and  C_33
REMARK   14  A    between atoms: O_34  and  C_35
REMARK   15  A    between atoms: C_36  and  O_38
REMARK   16  A    between atoms: O_38  and  C_39
REMARK   17  A    between atoms: C_39  and  C_40
REMARK                            x       y       z     vdW  Elec       q    Type
REMARK                         _______ _______ _______ _____ _____    ______ ____
ROOT
ATOM      1  C   UNL     1       1.816  -8.674   0.796  0.00  0.00    +0.041 C 
ATOM      2  C   UNL     1       2.067  -8.785  -0.526  0.00  0.00    +0.080 C 
ATOM      3  C   UNL     1       1.185  -9.714  -1.336  0.00  0.00    +0.144 C 
ATOM      4  N   UNL     1       0.119 -10.424  -0.609  0.00  0.00    -0.288 N 
ATOM      5  C   UNL     1      -0.008 -10.208   0.715  0.00  0.00    +0.307 C 
ATOM      6  O   UNL     1      -0.885 -10.789   1.324  0.00  0.00    -0.252 OA
ATOM      7  N   UNL     1       0.805  -9.379   1.383  0.00  0.00    -0.258 N 
ATOM      8  H   UNL     1      -0.478 -11.031  -1.073  0.00  0.00    +0.151 HD
ENDROOT
BRANCH   3   9
ATOM      9  C   UNL     1       0.540  -8.905  -2.432  0.00  0.00    -0.016 A 
ATOM     10  C   UNL     1      -0.561  -8.118  -2.151  0.00  0.00    +0.051 A 
ATOM     11  C   UNL     1      -1.157  -7.372  -3.158  0.00  0.00    +0.124 A 
ATOM     12  C   UNL     1      -0.646  -7.416  -4.446  0.00  0.00    +0.091 A 
ATOM     13  C   UNL     1       0.459  -8.205  -4.725  0.00  0.00    +0.124 A 
ATOM     14  C   UNL     1       1.054  -8.945  -3.713  0.00  0.00    +0.051 A 
BRANCH  13  15
ATOM     15  O   UNL     1       0.962  -8.250  -5.987  0.00  0.00    -0.495 OA
ATOM     16  C   UNL     1       0.301  -7.459  -6.977  0.00  0.00    +0.277 C 
ENDBRANCH  13  15
BRANCH  11  17
ATOM     17  O   UNL     1      -2.240  -6.599  -2.882  0.00  0.00    -0.495 OA
ATOM     18  C   UNL     1      -2.802  -5.858  -3.967  0.00  0.00    +0.277 C 
ENDBRANCH  11  17
ENDBRANCH   3   9
BRANCH   7  19
ATOM     19  C   UNL     1       0.592  -9.214   2.823  0.00  0.00    +0.111 C 
ATOM     20  C   UNL     1      -0.391  -8.068   3.066  0.00  0.00    +0.025 C 
ENDBRANCH   7  19
BRANCH   2  21
ATOM     21  C   UNL     1       3.118  -8.059  -1.135  0.00  0.00    +0.339 C 
ATOM     22  O   UNL     1       2.885  -6.999  -1.685  0.00  0.00    -0.245 OA
BRANCH  21  23
ATOM     23  O   UNL     1       4.377  -8.543  -1.105  0.00  0.00    -0.462 OA
BRANCH  23  24
ATOM     24  C   UNL     1       5.388  -7.757  -1.740  0.00  0.00    +0.229 C 
ATOM     25  C   UNL     1       6.740  -8.461  -1.604  0.00  0.00    +0.048 C 
ENDBRANCH  23  24
ENDBRANCH  21  23
ENDBRANCH   2  21
BRANCH   1  26
ATOM     26  C   UNL     1       2.669  -7.761   1.638  0.00  0.00    +0.136 C 
BRANCH  26  33
ATOM     27  N   UNL     1       0.520  -1.935   1.640  0.00  0.00    -0.299 N 
ATOM     28  C   UNL     1       1.141  -2.645   2.603  0.00  0.00    +0.303 C 
ATOM     29  O   UNL     1       1.749  -2.070   3.485  0.00  0.00    -0.253 OA
ATOM     30  N   UNL     1       1.088  -3.991   2.589  0.00  0.00    -0.280 N 
ATOM     31  C   UNL     1       0.471  -4.710   1.464  0.00  0.00    +0.125 C 
ATOM     32  C   UNL     1       1.454  -5.776   0.969  0.00  0.00    +0.104 C 
ATOM     33  N   UNL     1       1.863  -6.623   2.098  0.00  0.00    -0.294 NA
ATOM     34  C   UNL     1       2.582  -5.844   3.115  0.00  0.00    +0.107 C 
ATOM     35  C   UNL     1       1.650  -4.781   3.694  0.00  0.00    +0.088 C 
ATOM     36  C   UNL     1       2.439  -3.864   4.631  0.00  0.00    +0.029 C 
ATOM     37  H   UNL     1       0.097  -2.393   0.897  0.00  0.00    +0.150 HD
BRANCH  27  38
ATOM     38  C   UNL     1       0.486  -0.472   1.714  0.00  0.00    +0.105 C 
BRANCH  38  40
ATOM     39  C   UNL     1      -0.309   1.610   0.585  0.00  0.00    +0.005 C 
ATOM     40  C   UNL     1      -0.273   0.082   0.507  0.00  0.00    +0.015 C 
ENDBRANCH  38  40
ENDBRANCH  27  38
ENDBRANCH  26  33
ENDBRANCH   1  26
TORSDOF 11
