REMARK  Name = ZINC05731920
REMARK  10 active torsions:
REMARK  status: ('A' for Active; 'I' for Inactive)
REMARK    1  A    between atoms: C_1  and  C_2
REMARK    2  A    between atoms: C_2  and  O_3
REMARK    3  A    between atoms: O_3  and  C_4
REMARK    4  A    between atoms: C_12  and  C_22
REMARK    5  A    between atoms: C_24  and  O_32
REMARK    6  A    between atoms: C_25  and  O_30
REMARK    7  A    between atoms: C_26  and  O_28
REMARK    8  A    between atoms: O_28  and  C_29
REMARK    9  A    between atoms: O_30  and  C_31
REMARK   10  A    between atoms: O_32  and  C_33
REMARK                            x       y       z     vdW  Elec       q    Type
REMARK                         _______ _______ _______ _____ _____    ______ ____
ROOT
ATOM      1  C   UNL     1      -0.729   1.949   1.299  0.00  0.00    +0.156 C 
ATOM      2  C   UNL     1      -2.091   1.276   1.292  0.00  0.00    -0.011 A 
ATOM      3  C   UNL     1      -3.051   1.827   2.143  0.00  0.00    +0.056 A 
ATOM      4  C   UNL     1      -4.315   1.262   2.149  0.00  0.00    +0.167 A 
ATOM      5  C   UNL     1      -4.619   0.169   1.323  0.00  0.00    +0.167 A 
ATOM      6  C   UNL     1      -3.660  -0.375   0.485  0.00  0.00    +0.054 A 
ATOM      7  C   UNL     1      -2.386   0.197   0.488  0.00  0.00    -0.030 A 
ATOM      8  C   UNL     1      -1.365  -0.442  -0.437  0.00  0.00    +0.064 C 
ATOM      9  C   UNL     1       0.012  -0.008   0.020  0.00  0.00    +0.118 C 
ATOM     10  C   UNL     1      -0.005   1.554   0.026  0.00  0.00    +0.074 C 
ATOM     11  C   UNL     1       1.512   1.797   0.033  0.00  0.00    +0.239 C 
ATOM     12  O   UNL     1       2.021   0.741  -0.853  0.00  0.00    -0.464 OA
ATOM     13  C   UNL     1       1.153  -0.296  -0.911  0.00  0.00    +0.312 C 
ATOM     14  O   UNL     1       1.276  -1.285  -1.594  0.00  0.00    -0.250 OA
ATOM     15  O   UNL     1      -5.910  -0.181   1.520  0.00  0.00    -0.453 OA
ATOM     16  C   UNL     1      -6.295   0.449   2.760  0.00  0.00    +0.466 C 
ATOM     17  O   UNL     1      -5.417   1.589   2.861  0.00  0.00    -0.453 OA
ENDROOT
BRANCH   8  18
ATOM     18  C   UNL     1      -1.478  -1.943  -0.363  0.00  0.00    -0.032 A 
ATOM     19  C   UNL     1      -1.308  -2.587   0.848  0.00  0.00    +0.054 A 
ATOM     20  C   UNL     1      -1.417  -3.968   0.922  0.00  0.00    +0.165 A 
ATOM     21  C   UNL     1      -1.685  -4.704  -0.226  0.00  0.00    +0.204 A 
ATOM     22  C   UNL     1      -1.850  -4.053  -1.442  0.00  0.00    +0.165 A 
ATOM     23  C   UNL     1      -1.746  -2.671  -1.506  0.00  0.00    +0.054 A 
BRANCH  22  24
ATOM     24  O   UNL     1      -2.112  -4.769  -2.568  0.00  0.00    -0.491 OA
ATOM     25  C   UNL     1      -2.269  -4.033  -3.783  0.00  0.00    +0.277 C 
ENDBRANCH  22  24
BRANCH  21  26
ATOM     26  O   UNL     1      -1.787  -6.060  -0.159  0.00  0.00    -0.488 OA
ATOM     27  C   UNL     1      -0.586  -6.810  -0.351  0.00  0.00    +0.277 C 
ENDBRANCH  21  26
BRANCH  20  28
ATOM     28  O   UNL     1      -1.256  -4.601   2.115  0.00  0.00    -0.491 OA
ATOM     29  C   UNL     1      -0.982  -3.781   3.253  0.00  0.00    +0.277 C 
ENDBRANCH  20  28
ENDBRANCH   8  18
BRANCH   1  30
ATOM     30  O   UNL     1      -0.891   3.368   1.342  0.00  0.00    -0.372 OA
BRANCH  30  32
ATOM     31  C   UNL     1      -0.202   5.537   2.155  0.00  0.00    +0.034 C 
ATOM     32  C   UNL     1       0.139   4.049   2.061  0.00  0.00    +0.157 C 
ENDBRANCH  30  32
ENDBRANCH   1  30
TORSDOF 6
