REMARK  Name = ZINC12526192
REMARK  9 active torsions:
REMARK  status: ('A' for Active; 'I' for Inactive)
REMARK    1  A    between atoms: C_1  and  N_2
REMARK    2  A    between atoms: N_2  and  C_3
REMARK    3  A    between atoms: N_2  and  S_4
REMARK    4  A    between atoms: S_4  and  C_7
REMARK    5  A    between atoms: C_10  and  O_25
REMARK    6  A    between atoms: C_11  and  N_13
REMARK    7  A    between atoms: N_13  and  S_14
REMARK    8  A    between atoms: S_14  and  C_17
REMARK    9  A    between atoms: C_18  and  C_19
REMARK                            x       y       z     vdW  Elec       q    Type
REMARK                         _______ _______ _______ _____ _____    ______ ____
ROOT
ATOM      1  C   UNL     1      -5.361  -2.256   1.146  0.00  0.00    +0.107 A 
ATOM      2  C   UNL     1      -5.668  -1.901   2.446  0.00  0.00    +0.032 A 
ATOM      3  C   UNL     1      -4.682  -1.892   3.416  0.00  0.00    +0.049 A 
ATOM      4  C   UNL     1      -3.384  -2.245   3.087  0.00  0.00    +0.139 A 
ATOM      5  C   UNL     1      -3.072  -2.598   1.776  0.00  0.00    +0.091 A 
ATOM      6  C   UNL     1      -4.067  -2.605   0.808  0.00  0.00    +0.056 A 
ENDROOT
BRANCH   1   7
ATOM      7  S   UNL     1      -6.622  -2.265  -0.084  0.00  0.00    +0.060 S 
ATOM      8  O   UNL     1      -7.635  -1.374   0.366  0.00  0.00    -0.153 OA
ATOM      9  O   UNL     1      -5.970  -2.106  -1.336  0.00  0.00    -0.153 OA
BRANCH   7  11
ATOM     10  C   UNL     1      -8.437  -4.077   0.776  0.00  0.00    +0.131 C 
ATOM     11  N   UNL     1      -7.292  -3.779  -0.089  0.00  0.00    -0.183 NA
ATOM     12  C   UNL     1      -6.740  -4.822  -0.958  0.00  0.00    +0.131 C 
ENDBRANCH   7  11
ENDBRANCH   1   7
BRANCH   5  13
ATOM     13  N   UNL     1      -1.761  -2.951   1.437  0.00  0.00    -0.213 N 
ATOM     14  H   UNL     1      -1.210  -3.436   2.071  0.00  0.00    +0.174 HD
BRANCH  13  15
ATOM     15  S   UNL     1      -1.151  -2.540  -0.047  0.00  0.00    +0.066 S 
ATOM     16  O   UNL     1      -2.065  -3.036  -1.014  0.00  0.00    -0.151 OA
ATOM     17  O   UNL     1       0.222  -2.907  -0.037  0.00  0.00    -0.151 OA
BRANCH  15  18
ATOM     18  C   UNL     1      -1.200  -0.782  -0.162  0.00  0.00    +0.157 C 
ATOM     19  C   UNL     1      -0.072  -0.091  -0.242  0.00  0.00    +0.028 C 
BRANCH  19  20
ATOM     20  C   UNL     1      -0.114   1.383  -0.339  0.00  0.00    -0.024 A 
ATOM     21  C   UNL     1      -1.340   2.050  -0.352  0.00  0.00    +0.008 A 
ATOM     22  C   UNL     1      -1.372   3.427  -0.438  0.00  0.00    +0.001 A 
ATOM     23  C   UNL     1      -0.192   4.145  -0.522  0.00  0.00    +0.000 A 
ATOM     24  C   UNL     1       1.026   3.490  -0.514  0.00  0.00    +0.001 A 
ATOM     25  C   UNL     1       1.072   2.114  -0.424  0.00  0.00    +0.008 A 
ENDBRANCH  19  20
ENDBRANCH  15  18
ENDBRANCH  13  15
ENDBRANCH   5  13
BRANCH   4  26
ATOM     26  O   UNL     1      -2.415  -2.243   4.041  0.00  0.00    -0.505 OA
ATOM     27  H   UNL     1      -1.955  -1.397   4.132  0.00  0.00    +0.292 HD
ENDBRANCH   4  26
TORSDOF 7
