REMARK  Name = ZINC04253340
REMARK  2 active torsions:
REMARK  status: ('A' for Active; 'I' for Inactive)
REMARK    1  A    between atoms: C_6  and  N_7
REMARK    2  A    between atoms: C_14  and  N_25
REMARK                            x       y       z     vdW  Elec       q    Type
REMARK                         _______ _______ _______ _____ _____    ______ ____
ROOT
ATOM      1  C   UNL     1      -2.467   9.047  -0.754  0.00  0.00    +0.026 A 
ATOM      2  C   UNL     1      -1.880   7.906  -1.268  0.00  0.00    +0.051 A 
ATOM      3  C   UNL     1      -1.265   7.000  -0.419  0.00  0.00    +0.162 A 
ATOM      4  C   UNL     1      -1.238   7.237   0.951  0.00  0.00    +0.164 A 
ATOM      5  C   UNL     1      -1.828   8.380   1.466  0.00  0.00    +0.072 A 
ATOM      6  C   UNL     1      -2.443   9.286   0.614  0.00  0.00    +0.028 A 
ATOM      7  O   UNL     1      -0.633   6.349   1.785  0.00  0.00    -0.485 OA
ATOM      8  C   UNL     1      -1.220   5.051   1.890  0.00  0.00    +0.270 C 
ATOM      9  C   UNL     1      -0.657   4.335   3.119  0.00  0.00    +0.270 C 
ATOM     10  O   UNL     1       0.451   3.520   2.730  0.00  0.00    -0.485 OA
ATOM     11  C   UNL     1       0.452   2.231   3.164  0.00  0.00    +0.164 A 
ATOM     12  C   UNL     1       1.021   1.911   4.385  0.00  0.00    +0.072 A 
ATOM     13  C   UNL     1       1.021   0.595   4.826  0.00  0.00    +0.028 A 
ATOM     14  C   UNL     1       0.450  -0.399   4.042  0.00  0.00    +0.026 A 
ATOM     15  C   UNL     1      -0.118  -0.080   2.824  0.00  0.00    +0.051 A 
ATOM     16  C   UNL     1      -0.120   1.233   2.381  0.00  0.00    +0.162 A 
ATOM     17  O   UNL     1      -0.682   1.547   1.183  0.00  0.00    -0.486 OA
ATOM     18  C   UNL     1      -0.013   1.086   0.008  0.00  0.00    +0.257 C 
ATOM     19  C   UNL     1      -0.753   1.593  -1.231  0.00  0.00    +0.201 C 
ATOM     20  O   UNL     1      -0.537   2.998  -1.374  0.00  0.00    -0.373 OA
ATOM     21  C   UNL     1      -1.738   3.766  -1.460  0.00  0.00    +0.201 C 
ATOM     22  C   UNL     1      -1.407   5.179  -1.945  0.00  0.00    +0.257 C 
ATOM     23  O   UNL     1      -0.688   5.877  -0.927  0.00  0.00    -0.486 OA
ENDROOT
BRANCH   6  24
ATOM     24  N   UNL     1      -3.039  10.441   1.132  0.00  0.00    -0.358 N 
ATOM     25  H   UNL     1      -3.469  11.075   0.537  0.00  0.00    +0.142 HD
ATOM     26  H   UNL     1      -3.022  10.608   2.088  0.00  0.00    +0.142 HD
ENDBRANCH   6  24
BRANCH  13  27
ATOM     27  N   UNL     1       1.595   0.270   6.060  0.00  0.00    -0.358 N 
ATOM     28  H   UNL     1       1.993   0.965   6.608  0.00  0.00    +0.142 HD
ATOM     29  H   UNL     1       1.594  -0.650   6.368  0.00  0.00    +0.142 HD
ENDBRANCH  13  27
TORSDOF 2
