REMARK  Name = ZINC19298814
REMARK  5 active torsions:
REMARK  status: ('A' for Active; 'I' for Inactive)
REMARK    1  A    between atoms: C_4  and  C_7
REMARK    2  A    between atoms: C_10  and  S_20
REMARK    3  A    between atoms: N_11  and  C_12
REMARK    4  A    between atoms: S_20  and  C_21
REMARK    5  A    between atoms: C_21  and  C_22
REMARK                            x       y       z     vdW  Elec       q    Type
REMARK                         _______ _______ _______ _____ _____    ______ ____
ROOT
ATOM      1  C   UNL     1       4.289   2.550  -1.138  0.00  0.00    +0.074 A 
ATOM      2  C   UNL     1       5.392   3.199  -0.680  0.00  0.00    +0.140 A 
ATOM      3  N   UNL     1       5.370   3.171   0.658  0.00  0.00    -0.229 NA
ATOM      4  C   UNL     1       4.296   2.536   1.070  0.00  0.00    +0.174 A 
ATOM      5  N   UNL     1       3.589   2.123  -0.021  0.00  0.00    -0.286 N 
ENDROOT
BRANCH   5   6
ATOM      6  C   UNL     1       2.383   1.409  -0.013  0.00  0.00    +0.069 A 
ATOM      7  C   UNL     1       2.397   0.020  -0.021  0.00  0.00    +0.028 A 
ATOM      8  C   UNL     1       1.207  -0.682  -0.014  0.00  0.00    +0.004 A 
ATOM      9  C   UNL     1       0.002  -0.004   0.002  0.00  0.00    +0.021 A 
ATOM     10  C   UNL     1      -0.017   1.379   0.010  0.00  0.00    +0.061 A 
ATOM     11  C   UNL     1       1.172   2.088   0.002  0.00  0.00    +0.083 A 
ATOM     12 CL   UNL     1       1.149   3.824   0.011  0.00  0.00    -0.080 Cl
ATOM     13 CL   UNL     1      -1.532   2.227   0.021  0.00  0.00    -0.082 Cl
ENDBRANCH   5   6
BRANCH   1  17
ATOM     14  C   UNL     1       3.200   1.949  -5.199  0.00  0.00    +0.000 A 
ATOM     15  C   UNL     1       4.412   2.542  -4.891  0.00  0.00    +0.001 A 
ATOM     16  C   UNL     1       4.772   2.741  -3.574  0.00  0.00    +0.010 A 
ATOM     17  C   UNL     1       3.910   2.341  -2.551  0.00  0.00    +0.000 A 
ATOM     18  C   UNL     1       2.692   1.738  -2.868  0.00  0.00    +0.010 A 
ATOM     19  C   UNL     1       2.342   1.550  -4.189  0.00  0.00    +0.001 A 
ENDBRANCH   1  17
BRANCH   4  20
ATOM     20  S   UNL     1       3.846   2.261   2.751  0.00  0.00    -0.080 S 
BRANCH  20  21
ATOM     21  C   UNL     1       5.230   3.077   3.584  0.00  0.00    +0.153 C 
BRANCH  21  22
ATOM     22  C   UNL     1       5.054   2.965   5.077  0.00  0.00    +0.146 A 
ATOM     23  N   UNL     1       4.398   3.905   5.735  0.00  0.00    -0.199 NA
ATOM     24  C   UNL     1       4.237   3.808   7.053  0.00  0.00    +0.217 A 
ATOM     25  N   UNL     1       4.745   2.769   7.708  0.00  0.00    -0.181 NA
ATOM     26  C   UNL     1       5.408   1.829   7.043  0.00  0.00    +0.217 A 
ATOM     27  N   UNL     1       5.561   1.931   5.725  0.00  0.00    -0.199 NA
ATOM     28  N   UNL     1       5.938   0.749   7.719  0.00  0.00    -0.327 N 
ATOM     29  N   UNL     1       3.547   4.787   7.739  0.00  0.00    -0.327 N 
ATOM     30  H   UNL     1       6.487  -0.029   7.168  0.00  0.00    +0.145 HD
ATOM     31  H   UNL     1       5.811   0.665   8.808  0.00  0.00    +0.145 HD
ATOM     32  H   UNL     1       3.414   4.705   8.828  0.00  0.00    +0.145 HD
ATOM     33  H   UNL     1       3.131   5.648   7.197  0.00  0.00    +0.145 HD
ENDBRANCH  21  22
ENDBRANCH  20  21
ENDBRANCH   4  20
TORSDOF 5
