REMARK  Name = ZINC13346265
REMARK  9 active torsions:
REMARK  status: ('A' for Active; 'I' for Inactive)
REMARK    1  A    between atoms: C_1  and  C_2
REMARK    2  A    between atoms: C_4  and  C_14
REMARK    3  A    between atoms: C_5  and  C_13
REMARK    4  A    between atoms: N_6  and  C_7
REMARK    5  A    between atoms: N_16  and  N_17
REMARK    6  A    between atoms: N_17  and  S_18
REMARK    7  A    between atoms: S_18  and  C_21
REMARK    8  A    between atoms: C_24  and  O_29
REMARK    9  A    between atoms: C_25  and  C_27
REMARK                            x       y       z     vdW  Elec       q    Type
REMARK                         _______ _______ _______ _____ _____    ______ ____
ROOT
ATOM      1  C   UNL     1      -3.037  -5.650  -1.718  0.00  0.00    +0.261 C 
ATOM      2  O   UNL     1      -2.885  -6.822  -1.429  0.00  0.00    -0.269 OA
ATOM      3  N   UNL     1      -2.375  -4.696  -1.034  0.00  0.00    -0.228 N 
ATOM      4  H   UNL     1      -2.497  -3.761  -1.264  0.00  0.00    +0.171 HD
ENDROOT
BRANCH   1   8
ATOM      5  C   UNL     1      -5.708  -2.921  -5.102  0.00  0.00    +0.064 C 
ATOM      6  C   UNL     1      -5.114  -4.051  -4.301  0.00  0.00    +0.022 A 
ATOM      7  C   UNL     1      -4.239  -3.917  -3.289  0.00  0.00    +0.036 A 
ATOM      8  C   UNL     1      -3.944  -5.274  -2.815  0.00  0.00    +0.059 A 
ATOM      9  C   UNL     1      -4.677  -6.120  -3.602  0.00  0.00    +0.033 A 
ATOM     10  N   UNL     1      -5.378  -5.379  -4.485  0.00  0.00    -0.317 N 
ATOM     11  C   UNL     1      -4.699  -7.623  -3.498  0.00  0.00    +0.064 C 
BRANCH  10  12
ATOM     12  C   UNL     1      -6.247  -5.898  -5.455  0.00  0.00    +0.047 A 
ATOM     13  C   UNL     1      -7.402  -6.564  -5.068  0.00  0.00    +0.026 A 
ATOM     14  C   UNL     1      -8.258  -7.070  -6.027  0.00  0.00    +0.002 A 
ATOM     15  C   UNL     1      -7.962  -6.923  -7.369  0.00  0.00    +0.000 A 
ATOM     16  C   UNL     1      -6.809  -6.263  -7.756  0.00  0.00    +0.002 A 
ATOM     17  C   UNL     1      -5.951  -5.751  -6.803  0.00  0.00    +0.026 A 
ENDBRANCH  10  12
ENDBRANCH   1   8
BRANCH   3  18
ATOM     18  N   UNL     1      -1.512  -5.053   0.010  0.00  0.00    -0.108 NA
ATOM     19  H   UNL     1      -1.837  -5.600   0.743  0.00  0.00    +0.172 HD
BRANCH  18  20
ATOM     20  S   UNL     1       0.063  -4.543  -0.006  0.00  0.00    +0.074 S 
ATOM     21  O   UNL     1       0.608  -4.946  -1.255  0.00  0.00    -0.152 OA
ATOM     22  O   UNL     1       0.631  -4.938   1.236  0.00  0.00    -0.152 OA
BRANCH  20  23
ATOM     23  C   UNL     1       0.039  -2.781  -0.011  0.00  0.00    +0.108 A 
ATOM     24  C   UNL     1       0.041  -2.088   1.188  0.00  0.00    +0.032 A 
ATOM     25  C   UNL     1       0.023  -0.707   1.198  0.00  0.00    +0.048 A 
ATOM     26  C   UNL     1       0.002  -0.004   0.002  0.00  0.00    +0.131 A 
ATOM     27  C   UNL     1      -0.006  -0.702  -1.214  0.00  0.00    +0.106 A 
ATOM     28  C   UNL     1       0.020  -2.099  -1.208  0.00  0.00    +0.047 A 
BRANCH  27  29
ATOM     29  C   UNL     1      -0.035   0.034  -2.491  0.00  0.00    +0.390 C 
ATOM     30  O   UNL     1      -0.052   1.249  -2.492  0.00  0.00    -0.240 OA
ATOM     31  O   UNL     1      -0.042  -0.641  -3.657  0.00  0.00    -0.240 OA
ENDBRANCH  27  29
BRANCH  26  32
ATOM     32  O   UNL     1      -0.016   1.352   0.009  0.00  0.00    -0.506 OA
ATOM     33  H   UNL     1       0.862   1.758   0.003  0.00  0.00    +0.292 HD
ENDBRANCH  26  32
ENDBRANCH  20  23
ENDBRANCH  18  20
ENDBRANCH   3  18
TORSDOF 7
