REMARK  Name = ZINC09882100
REMARK  7 active torsions:
REMARK  status: ('A' for Active; 'I' for Inactive)
REMARK    1  A    between atoms: C_1  and  C_2
REMARK    2  A    between atoms: C_2  and  C_25
REMARK    3  A    between atoms: N_5  and  C_9
REMARK    4  A    between atoms: C_9  and  N_63
REMARK    5  A    between atoms: N_12  and  S_15
REMARK    6  A    between atoms: S_15  and  C_18
REMARK    7  A    between atoms: C_18  and  C_19
REMARK                            x       y       z     vdW  Elec       q    Type
REMARK                         _______ _______ _______ _____ _____    ______ ____
ROOT
ATOM      1  C   UNL     1      -3.229   1.130   1.351  0.00  0.00    +0.047 C 
ATOM      2  C   UNL     1      -2.497   0.952   0.019  0.00  0.00    +0.136 C 
ATOM      3  C   UNL     1      -3.459   1.096  -1.143  0.00  0.00    +0.249 C 
ATOM      4  O   UNL     1      -4.117   2.073  -1.432  0.00  0.00    -0.272 OA
ATOM      5  N   UNL     1      -3.433  -0.087  -1.787  0.00  0.00    -0.241 N 
ATOM      6  C   UNL     1      -2.596  -0.951  -1.200  0.00  0.00    +0.308 C 
ATOM      7  O   UNL     1      -2.403  -2.082  -1.599  0.00  0.00    -0.252 OA
ATOM      8  N   UNL     1      -1.992  -0.426  -0.118  0.00  0.00    -0.281 N 
ATOM      9  H   UNL     1      -1.350  -0.868   0.459  0.00  0.00    +0.152 HD
ENDROOT
BRANCH   2  10
ATOM     10  C   UNL     1      -1.369   1.944  -0.101  0.00  0.00    -0.008 A 
ATOM     11  C   UNL     1      -0.087   1.508  -0.242  0.00  0.00    +0.007 A 
ATOM     12  C   UNL     1       0.969   2.410  -0.360  0.00  0.00    +0.001 A 
ATOM     13  C   UNL     1       0.749   3.753  -0.332  0.00  0.00    +0.008 A 
ATOM     14  C   UNL     1      -0.560   4.241  -0.181  0.00  0.00    -0.018 A 
ATOM     15  C   UNL     1      -1.634   3.323  -0.061  0.00  0.00    -0.012 A 
ATOM     16  C   UNL     1      -2.943   3.810   0.089  0.00  0.00    +0.009 A 
ATOM     17  C   UNL     1      -3.163   5.153   0.117  0.00  0.00    +0.001 A 
ATOM     18  C   UNL     1      -2.107   6.056  -0.002  0.00  0.00    +0.001 A 
ATOM     19  C   UNL     1      -0.826   5.620  -0.148  0.00  0.00    +0.008 A 
ENDBRANCH   2  10
BRANCH   5  20
ATOM     20  C   UNL     1      -4.223  -0.391  -2.983  0.00  0.00    +0.043 C 
BRANCH  20  26
ATOM     21  C   UNL     1      -3.535   1.407  -4.452  0.00  0.00    -0.059 C 
ATOM     22  C   UNL     1      -2.579   1.765  -5.595  0.00  0.00    +0.090 C 
ATOM     23  N   UNL     1      -2.880   0.898  -6.744  0.00  0.00    -0.184 NA
ATOM     24  C   UNL     1      -2.950  -0.554  -6.522  0.00  0.00    +0.090 C 
ATOM     25  C   UNL     1      -3.892  -0.821  -5.343  0.00  0.00    -0.059 C 
ATOM     26  N   UNL     1      -3.423  -0.042  -4.176  0.00  0.00    +0.392 N 
ATOM     27  H   UNL     1      -2.439  -0.271  -3.996  0.00  0.00    -0.079 HD
BRANCH  23  28
ATOM     28  S   UNL     1      -3.132   1.541  -8.250  0.00  0.00    +0.036 S 
ATOM     29  O   UNL     1      -2.417   2.769  -8.244  0.00  0.00    -0.158 OA
ATOM     30  O   UNL     1      -2.779   0.501  -9.152  0.00  0.00    -0.158 OA
BRANCH  28  31
ATOM     31  C   UNL     1      -4.917   1.857  -8.328  0.00  0.00    +0.220 C 
BRANCH  31  32
ATOM     32  C   UNL     1      -5.263   2.449  -9.670  0.00  0.00    -0.025 A 
ATOM     33  C   UNL     1      -5.252   3.820  -9.844  0.00  0.00    +0.005 A 
ATOM     34  C   UNL     1      -5.566   4.363 -11.076  0.00  0.00    +0.000 A 
ATOM     35  C   UNL     1      -5.900   3.535 -12.132  0.00  0.00    +0.000 A 
ATOM     36  C   UNL     1      -5.916   2.164 -11.956  0.00  0.00    +0.000 A 
ATOM     37  C   UNL     1      -5.598   1.621 -10.725  0.00  0.00    +0.005 A 
ENDBRANCH  31  32
ENDBRANCH  28  31
ENDBRANCH  23  28
ENDBRANCH  20  26
ENDBRANCH   5  20
TORSDOF 6
