REMARK  Name = ZINC63329953
REMARK  7 active torsions:
REMARK  status: ('A' for Active; 'I' for Inactive)
REMARK    1  A    between atoms: C_1  and  C_2
REMARK    2  A    between atoms: C_2  and  C_3
REMARK    3  A    between atoms: C_2  and  N_11
REMARK    4  A    between atoms: N_11  and  C_12
REMARK    5  A    between atoms: N_15  and  C_16
REMARK    6  A    between atoms: C_19  and  C_22
REMARK    7  A    between atoms: N_24  and  C_25
REMARK                            x       y       z     vdW  Elec       q    Type
REMARK                         _______ _______ _______ _____ _____    ______ ____
ROOT
ATOM      1  N   UNL     1       0.625  -0.542  -1.142  0.00  0.00    -0.282 N 
ATOM      2  C   UNL     1       2.074  -0.382  -1.289  0.00  0.00    +0.134 C 
ATOM      3  C   UNL     1      -0.080  -1.196  -2.086  0.00  0.00    +0.303 C 
ATOM      4  O   UNL     1      -1.282  -1.328  -1.964  0.00  0.00    -0.253 OA
ATOM      5  N   UNL     1       0.548  -1.702  -3.166  0.00  0.00    -0.296 N 
ATOM      6  H   UNL     1       1.507  -1.595  -3.264  0.00  0.00    +0.151 HD
ENDROOT
BRANCH   5   7
ATOM      7  C   UNL     1      -0.219  -2.412  -4.193  0.00  0.00    +0.074 C 
ATOM      8  C   UNL     1      -0.383  -3.877  -3.785  0.00  0.00    +0.023 C 
ATOM      9  C   UNL     1       0.996  -4.524  -3.639  0.00  0.00    +0.014 C 
ATOM     10  C   UNL     1       1.738  -4.447  -4.974  0.00  0.00    +0.075 C 
ATOM     11  C   UNL     1       1.903  -2.982  -5.383  0.00  0.00    +0.014 C 
ATOM     12  C   UNL     1       0.524  -2.335  -5.529  0.00  0.00    +0.023 C 
BRANCH  10  13
ATOM     13  C   UNL     1       3.097  -5.084  -4.831  0.00  0.00    +0.216 C 
ATOM     14  O   UNL     1       3.437  -5.553  -3.765  0.00  0.00    -0.276 OA
ATOM     15  N   UNL     1       3.933  -5.132  -5.886  0.00  0.00    -0.318 N 
ATOM     16  C   UNL     1       5.254  -5.752  -5.747  0.00  0.00    +0.128 C 
ATOM     17  H   UNL     1       3.661  -4.757  -6.738  0.00  0.00    +0.148 HD
ENDBRANCH  10  13
ENDBRANCH   5   7
BRANCH   1  19
ATOM     18  C   UNL     1       0.044   1.534   0.013  0.00  0.00    +0.033 C 
ATOM     19  C   UNL     1      -0.057   0.008   0.032  0.00  0.00    +0.107 C 
BRANCH  19  20
ATOM     20  C   UNL     1       0.592  -0.522   1.285  0.00  0.00    +0.011 A 
ATOM     21  C   UNL     1       1.437   0.286   2.021  0.00  0.00    +0.046 A 
ATOM     22  C   UNL     1       2.033  -0.201   3.172  0.00  0.00    +0.124 A 
ATOM     23  C   UNL     1       1.782  -1.498   3.585  0.00  0.00    +0.041 A 
ATOM     24  C   UNL     1       0.937  -2.307   2.850  0.00  0.00    +0.041 A 
ATOM     25  C   UNL     1       0.337  -1.818   1.701  0.00  0.00    +0.128 A 
ATOM     26  F   UNL     1      -0.493  -2.607   0.985  0.00  0.00    -0.205 F 
ATOM     27  F   UNL     1       2.859   0.590   3.891  0.00  0.00    -0.205 F 
ENDBRANCH  19  20
ENDBRANCH   1  19
TORSDOF 4
