REMARK  Name = ZINC31162601
REMARK  5 active torsions:
REMARK  status: ('A' for Active; 'I' for Inactive)
REMARK    1  A    between atoms: C_1  and  C_2
REMARK    2  A    between atoms: C_2  and  C_34
REMARK    3  A    between atoms: C_13  and  O_32
REMARK    4  A    between atoms: C_18  and  C_19
REMARK    5  A    between atoms: C_18  and  C_20
REMARK                            x       y       z     vdW  Elec       q    Type
REMARK                         _______ _______ _______ _____ _____    ______ ____
ROOT
ATOM      1  C   UNL     1       1.873  -2.235  -0.274  0.00  0.00    +0.060 C 
ATOM      2  C   UNL     1       1.707  -0.751  -0.610  0.00  0.00    +0.124 C 
ATOM      3  C   UNL     1       2.998  -0.030  -0.324  0.00  0.00    +0.020 C 
ATOM      4  C   UNL     1       2.975   1.262   0.008  0.00  0.00    +0.013 C 
ATOM      5  C   UNL     1       1.666   1.928   0.094  0.00  0.00    +0.042 A 
ATOM      6  C   UNL     1       0.503   1.144   0.178  0.00  0.00    +0.131 A 
ATOM      7  C   UNL     1      -0.747   1.728   0.260  0.00  0.00    +0.047 A 
ATOM      8  C   UNL     1      -0.902   3.113   0.277  0.00  0.00    +0.012 A 
ATOM      9  C   UNL     1       0.232   3.886   0.197  0.00  0.00    +0.016 A 
ATOM     10  C   UNL     1       1.523   3.324   0.092  0.00  0.00    +0.081 A 
ATOM     11  N   UNL     1       2.451   4.304  -0.025  0.00  0.00    -0.252 NA
ATOM     12  C   UNL     1       1.957   5.483  -0.009  0.00  0.00    +0.061 C 
ATOM     13  C   UNL     1       0.452   5.364   0.218  0.00  0.00    +0.134 C 
ATOM     14  C   UNL     1      -0.237   6.075  -0.950  0.00  0.00    +0.081 C 
ATOM     15  C   UNL     1       0.347   7.475  -1.090  0.00  0.00    +0.118 C 
ATOM     16  C   UNL     1       1.845   7.496  -1.397  0.00  0.00    +0.035 C 
ATOM     17  C   UNL     1       2.624   6.814  -0.259  0.00  0.00    +0.012 C 
ATOM     18  C   UNL     1       2.563   7.674   1.005  0.00  0.00    +0.017 C 
ATOM     19  C   UNL     1       4.080   6.598  -0.675  0.00  0.00    +0.017 C 
ATOM     20  C   UNL     1       2.334   8.951  -1.514  0.00  0.00    +0.042 C 
ATOM     21  C   UNL     1       1.144   9.878  -1.281  0.00  0.00    +0.114 C 
ATOM     22  C   UNL     1       1.501  11.353  -1.249  0.00  0.00    +0.037 C 
ATOM     23  C   UNL     1       0.623  11.904  -0.086  0.00  0.00    +0.022 C 
ATOM     24  C   UNL     1       0.624  10.703   0.904  0.00  0.00    +0.109 C 
ATOM     25  N   UNL     1       0.574   9.531   0.052  0.00  0.00    -0.285 N 
ATOM     26  C   UNL     1       0.129   8.257   0.209  0.00  0.00    +0.240 C 
ATOM     27  O   UNL     1      -0.366   7.808   1.221  0.00  0.00    -0.273 OA
ATOM     28  C   UNL     1       0.066   9.530  -2.289  0.00  0.00    +0.238 C 
ATOM     29  O   UNL     1      -0.375  10.308  -3.109  0.00  0.00    -0.273 OA
ATOM     30  N   UNL     1      -0.353   8.222  -2.160  0.00  0.00    -0.299 N 
ATOM     31  O   UNL     1       0.642  -0.209   0.172  0.00  0.00    -0.482 OA
ATOM     32  C   UNL     1       1.367  -0.605  -2.094  0.00  0.00    +0.060 C 
ATOM     33  H   UNL     1      -1.126   7.724  -2.763  0.00  0.00    +0.150 HD
ENDROOT
BRANCH  13  34
ATOM     34  O   UNL     1       0.065   5.930   1.472  0.00  0.00    -0.378 OA
ATOM     35  H   UNL     1       0.167   7.012   1.642  0.00  0.00    +0.211 HD
ENDBRANCH  13  34
TORSDOF 1
