REMARK  Name = ZINC12497121
REMARK  6 active torsions:
REMARK  status: ('A' for Active; 'I' for Inactive)
REMARK    1  A    between atoms: C_1  and  O_2
REMARK    2  A    between atoms: O_2  and  C_3
REMARK    3  A    between atoms: C_3  and  C_5
REMARK    4  A    between atoms: C_5  and  C_30
REMARK    5  A    between atoms: C_10  and  C_12
REMARK    6  A    between atoms: N_21  and  C_24
REMARK                            x       y       z     vdW  Elec       q    Type
REMARK                         _______ _______ _______ _____ _____    ______ ____
ROOT
ATOM      1  C   UNL     1      -1.293  -0.775   0.010  0.00  0.00    +0.070 C 
ATOM      2  C   UNL     1      -1.135  -2.088  -0.666  0.00  0.00    +0.090 C 
ATOM      3  C   UNL     1      -2.612  -2.353  -1.162  0.00  0.00    +0.078 C 
ATOM      4  C   UNL     1      -2.850  -1.018  -1.827  0.00  0.00    -0.023 C 
ATOM      5  C   UNL     1      -2.375  -3.646  -1.843  0.00  0.00    +0.229 C 
ATOM      6  O   UNL     1      -2.905  -4.052  -2.854  0.00  0.00    -0.275 OA
ATOM      7  N   UNL     1      -1.429  -4.285  -1.086  0.00  0.00    -0.210 N 
ATOM      8  C   UNL     1      -0.789  -3.437  -0.216  0.00  0.00    +0.229 C 
ATOM      9  O   UNL     1      -0.095  -3.736   0.732  0.00  0.00    -0.275 OA
ATOM     10  N   UNL     1      -2.317  -0.064  -0.808  0.00  0.00    +0.398 N 
ATOM     11  H   UNL     1      -1.887   0.741  -1.278  0.00  0.00    -0.083 HD
ATOM     12  H   UNL     1      -3.080   0.260  -0.203  0.00  0.00    -0.083 HD
ENDROOT
BRANCH   4  13
ATOM     13  C   UNL     1      -2.077  -0.912  -3.116  0.00  0.00    -0.025 A 
ATOM     14  C   UNL     1      -0.789  -0.411  -3.111  0.00  0.00    +0.005 A 
ATOM     15  C   UNL     1      -0.080  -0.314  -4.294  0.00  0.00    +0.000 A 
ATOM     16  C   UNL     1      -0.658  -0.719  -5.483  0.00  0.00    +0.003 A 
ATOM     17  C   UNL     1      -1.946  -1.221  -5.490  0.00  0.00    +0.038 A 
ATOM     18  C   UNL     1      -2.655  -1.323  -4.306  0.00  0.00    +0.125 A 
ATOM     19  F   UNL     1      -3.912  -1.818  -4.311  0.00  0.00    -0.205 F 
ENDBRANCH   4  13
BRANCH   7  20
ATOM     20  C   UNL     1      -1.144  -5.654  -1.189  0.00  0.00    +0.044 A 
ATOM     21  C   UNL     1      -0.163  -6.222  -0.387  0.00  0.00    +0.024 A 
ATOM     22  C   UNL     1       0.111  -7.572  -0.487  0.00  0.00    +0.002 A 
ATOM     23  C   UNL     1      -0.582  -8.355  -1.393  0.00  0.00    +0.000 A 
ATOM     24  C   UNL     1      -1.556  -7.790  -2.196  0.00  0.00    +0.002 A 
ATOM     25  C   UNL     1      -1.838  -6.442  -2.096  0.00  0.00    +0.024 A 
ENDBRANCH   7  20
BRANCH   1  26
ATOM     26  C   UNL     1      -1.782  -0.965   1.423  0.00  0.00    -0.047 A 
ATOM     27  C   UNL     1      -0.874  -1.156   2.449  0.00  0.00    +0.003 A 
ATOM     28  C   UNL     1      -1.323  -1.325   3.745  0.00  0.00    +0.000 A 
ATOM     29  C   UNL     1      -2.678  -1.313   4.015  0.00  0.00    +0.000 A 
ATOM     30  C   UNL     1      -3.586  -1.126   2.989  0.00  0.00    +0.000 A 
ATOM     31  C   UNL     1      -3.137  -0.952   1.693  0.00  0.00    +0.003 A 
ENDBRANCH   1  26
BRANCH   1  32
ATOM     32  C   UNL     1       0.012  -0.020   0.003  0.00  0.00    +0.301 C 
ATOM     33  O   UNL     1       1.059  -0.623  -0.015  0.00  0.00    -0.252 OA
BRANCH  32  35
ATOM     34  C   UNL     1       1.303   1.982   0.009  0.00  0.00    +0.280 C 
ATOM     35  O   UNL     1       0.010   1.322   0.016  0.00  0.00    -0.469 OA
ENDBRANCH  32  35
ENDBRANCH   1  32
TORSDOF 5
