REMARK  Name = ZINC20837874
REMARK  8 active torsions:
REMARK  status: ('A' for Active; 'I' for Inactive)
REMARK    1  A    between atoms: C_1  and  C_2
REMARK    2  A    between atoms: C_5  and  C_8
REMARK    3  A    between atoms: C_8  and  C_32
REMARK    4  A    between atoms: N_9  and  N_10
REMARK    5  A    between atoms: C_13  and  S_16
REMARK    6  A    between atoms: S_16  and  C_17
REMARK    7  A    between atoms: C_17  and  C_18
REMARK    8  A    between atoms: N_20  and  C_21
REMARK                            x       y       z     vdW  Elec       q    Type
REMARK                         _______ _______ _______ _____ _____    ______ ____
ROOT
ATOM      1  N   UNL     1      -0.060  13.273  -2.954  0.00  0.00    -0.205 N 
ATOM      2  C   UNL     1      -0.467  11.968  -2.718  0.00  0.00    +0.232 A 
ATOM      3  N   UNL     1      -0.321  11.281  -1.544  0.00  0.00    -0.186 NA
ATOM      4  C   UNL     1      -0.848  10.033  -1.718  0.00  0.00    +0.211 A 
ATOM      5  N   UNL     1      -1.296   9.949  -2.948  0.00  0.00    -0.144 NA
ATOM      6  N   UNL     1      -1.059  11.177  -3.579  0.00  0.00    -0.245 N 
ATOM      7  H   UNL     1       0.430  13.850  -2.156  0.00  0.00    +0.177 HD
ATOM      8  H   UNL     1      -1.277  11.537  -4.596  0.00  0.00    +0.192 HD
ENDROOT
BRANCH   1  10
ATOM      9  C   UNL     1       0.109  15.078  -4.432  0.00  0.00    +0.063 C 
ATOM     10  N   UNL     1      -0.272  13.856  -4.210  0.00  0.00    -0.184 NA
ATOM     11  C   UNL     1       0.779  15.868  -3.338  0.00  0.00    +0.068 C 
BRANCH   9  16
ATOM     12  C   UNL     1      -0.763  17.472  -9.587  0.00  0.00    +0.044 C 
ATOM     13  C   UNL     1      -0.535  16.845  -8.236  0.00  0.00    -0.050 A 
ATOM     14  C   UNL     1      -0.942  15.543  -8.004  0.00  0.00    +0.004 A 
ATOM     15  C   UNL     1      -0.736  14.962  -6.770  0.00  0.00    +0.010 A 
ATOM     16  C   UNL     1      -0.115  15.692  -5.753  0.00  0.00    -0.003 A 
ATOM     17  C   UNL     1       0.288  17.008  -5.994  0.00  0.00    +0.010 A 
ATOM     18  C   UNL     1       0.082  17.573  -7.234  0.00  0.00    +0.004 A 
ENDBRANCH   9  16
ENDBRANCH   1  10
BRANCH   4  19
ATOM     19  S   UNL     1      -0.910   8.757  -0.504  0.00  0.00    -0.075 S 
BRANCH  19  20
ATOM     20  C   UNL     1      -1.720   7.377  -1.359  0.00  0.00    +0.173 C 
BRANCH  20  21
ATOM     21  C   UNL     1      -1.837   6.204  -0.420  0.00  0.00    +0.224 C 
ATOM     22  O   UNL     1      -1.416   6.290   0.714  0.00  0.00    -0.275 OA
ATOM     23  N   UNL     1      -2.411   5.059  -0.841  0.00  0.00    -0.308 N 
ATOM     24  H   UNL     1      -2.793   4.981  -1.869  0.00  0.00    +0.149 HD
BRANCH  23  25
ATOM     25  C   UNL     1      -2.525   3.919   0.072  0.00  0.00    +0.103 C 
ATOM     26  C   UNL     1      -3.706   3.051  -0.372  0.00  0.00    +0.027 C 
ATOM     27  C   UNL     1      -3.683   1.759   0.454  0.00  0.00    +0.007 C 
ATOM     28  C   UNL     1      -2.487   0.921   0.005  0.00  0.00    +0.035 C 
ATOM     29  C   UNL     1      -1.228   1.748   0.017  0.00  0.00    -0.042 A 
ATOM     30  C   UNL     1      -1.245   3.125   0.037  0.00  0.00    -0.024 A 
ATOM     31  C   UNL     1      -0.048   3.828   0.025  0.00  0.00    +0.006 A 
ATOM     32  C   UNL     1       1.158   3.158   0.008  0.00  0.00    +0.000 A 
ATOM     33  C   UNL     1       1.176   1.776   0.000  0.00  0.00    +0.000 A 
ATOM     34  C   UNL     1      -0.013   1.076   0.008  0.00  0.00    +0.004 A 
ENDBRANCH  23  25
ENDBRANCH  20  21
ENDBRANCH  19  20
ENDBRANCH   4  19
TORSDOF 6
