REMARK  Name = ZINC44944723
REMARK  11 active torsions:
REMARK  status: ('A' for Active; 'I' for Inactive)
REMARK    1  A    between atoms: C_1  and  C_2
REMARK    2  A    between atoms: C_2  and  N_3
REMARK    3  A    between atoms: C_14  and  C_16
REMARK    4  A    between atoms: C_16  and  N_17
REMARK    5  A    between atoms: N_17  and  C_18
REMARK    6  A    between atoms: N_17  and  C_24
REMARK    7  A    between atoms: C_18  and  C_19
REMARK    8  A    between atoms: C_24  and  C_25
REMARK    9  A    between atoms: N_27  and  C_28
REMARK   10  A    between atoms: C_30  and  C_34
REMARK   11  A    between atoms: N_32  and  C_33
REMARK                            x       y       z     vdW  Elec       q    Type
REMARK                         _______ _______ _______ _____ _____    ______ ____
ROOT
ATOM      1  N   UNL     1      -4.881  -3.280  -4.275  0.00  0.00    +0.393 N 
ATOM      2  H   UNL     1      -5.000  -3.842  -3.446  0.00  0.00    -0.080 HD
ENDROOT
BRANCH   1   3
ATOM      3  C   UNL     1      -5.052  -1.861  -3.933  0.00  0.00    -0.042 C 
BRANCH   3  15
ATOM      4  N   UNL     1     -10.115  -1.066  -1.561  0.00  0.00    -0.340 N 
ATOM      5  C   UNL     1     -10.869  -0.680  -2.655  0.00  0.00    +0.050 A 
ATOM      6  C   UNL     1     -12.207  -0.324  -2.792  0.00  0.00    +0.026 A 
ATOM      7  C   UNL     1     -12.705   0.026  -4.029  0.00  0.00    +0.002 A 
ATOM      8  C   UNL     1     -11.883   0.026  -5.146  0.00  0.00    +0.001 A 
ATOM      9  C   UNL     1     -10.555  -0.324  -5.030  0.00  0.00    +0.010 A 
ATOM     10  C   UNL     1     -10.039  -0.679  -3.786  0.00  0.00    +0.008 A 
ATOM     11  C   UNL     1      -8.702  -1.094  -3.324  0.00  0.00    +0.008 A 
ATOM     12  C   UNL     1      -8.809  -1.314  -1.942  0.00  0.00    +0.050 A 
ATOM     13  C   UNL     1      -7.684  -1.715  -1.228  0.00  0.00    +0.026 A 
ATOM     14  C   UNL     1      -6.480  -1.888  -1.876  0.00  0.00    +0.004 A 
ATOM     15  C   UNL     1      -6.376  -1.667  -3.241  0.00  0.00    -0.063 A 
ATOM     16  C   UNL     1      -7.481  -1.278  -3.967  0.00  0.00    +0.012 A 
BRANCH   4  18
ATOM     17  C   UNL     1     -10.470   0.149   0.531  0.00  0.00    +0.027 C 
ATOM     18  C   UNL     1     -10.626  -1.189  -0.194  0.00  0.00    +0.119 C 
ENDBRANCH   4  18
ENDBRANCH   3  15
ENDBRANCH   1   3
BRANCH   1  19
ATOM     19  C   UNL     1      -3.534  -3.493  -4.822  0.00  0.00    -0.002 C 
BRANCH  19  20
ATOM     20  C   UNL     1      -2.509  -3.233  -3.748  0.00  0.00    +0.089 A 
ATOM     21  C   UNL     1      -2.087  -4.122  -2.831  0.00  0.00    +0.042 A 
ATOM     22  C   UNL     1      -1.130  -3.460  -2.029  0.00  0.00    +0.041 A 
ATOM     23  C   UNL     1      -1.024  -2.206  -2.503  0.00  0.00    +0.195 A 
ATOM     24  O   UNL     1      -1.857  -2.076  -3.549  0.00  0.00    -0.470 OA
ENDBRANCH  19  20
ENDBRANCH   1  19
BRANCH   1  25
ATOM     25  C   UNL     1      -5.883  -3.666  -5.277  0.00  0.00    +0.020 C 
BRANCH  25  26
ATOM     26  C   UNL     1      -5.788  -5.148  -5.537  0.00  0.00    +0.202 C 
ATOM     27  O   UNL     1      -4.967  -5.816  -4.945  0.00  0.00    -0.278 OA
ATOM     28  N   UNL     1      -6.617  -5.730  -6.426  0.00  0.00    -0.272 N 
ATOM     29  H   UNL     1      -7.274  -5.196  -6.899  0.00  0.00    +0.156 HD
BRANCH  28  30
ATOM     30  C   UNL     1      -6.529  -7.101  -6.667  0.00  0.00    +0.123 A 
ATOM     31  C   UNL     1      -5.664  -7.965  -6.073  0.00  0.00    +0.073 A 
ATOM     32  C   UNL     1      -5.909  -9.248  -6.599  0.00  0.00    +0.095 A 
ATOM     33  N   UNL     1      -6.886  -9.152  -7.475  0.00  0.00    -0.170 NA
ATOM     34  N   UNL     1      -7.297  -7.814  -7.532  0.00  0.00    -0.253 N 
ATOM     35  C   UNL     1      -8.366  -7.277  -8.378  0.00  0.00    +0.174 C 
BRANCH  32  36
ATOM     36  C   UNL     1      -5.190 -10.492  -6.229  0.00  0.00    +0.002 A 
ATOM     37  C   UNL     1      -4.173 -10.456  -5.277  0.00  0.00    +0.010 A 
ATOM     38  C   UNL     1      -3.508 -11.616  -4.937  0.00  0.00    +0.001 A 
ATOM     39  C   UNL     1      -3.849 -12.814  -5.538  0.00  0.00    +0.000 A 
ATOM     40  C   UNL     1      -4.858 -12.856  -6.484  0.00  0.00    +0.001 A 
ATOM     41  C   UNL     1      -5.533 -11.702  -6.828  0.00  0.00    +0.010 A 
ENDBRANCH  32  36
ENDBRANCH  28  30
ENDBRANCH  25  26
ENDBRANCH   1  25
TORSDOF 9
