REMARK  Name = ZINC13636572
REMARK  7 active torsions:
REMARK  status: ('A' for Active; 'I' for Inactive)
REMARK    1  A    between atoms: C_4  and  C_7
REMARK    2  A    between atoms: C_7  and  C_8
REMARK    3  A    between atoms: C_8  and  N_9
REMARK    4  A    between atoms: N_9  and  S_10
REMARK    5  A    between atoms: S_10  and  C_13
REMARK    6  A    between atoms: C_26  and  C_29
REMARK    7  A    between atoms: C_32  and  O_35
REMARK                            x       y       z     vdW  Elec       q    Type
REMARK                         _______ _______ _______ _____ _____    ______ ____
ROOT
ATOM      1  C   UNL     1       0.002  -0.004   0.002  0.00  0.00    +0.106 A 
ATOM      2  C   UNL     1      -0.017   1.379   0.010  0.00  0.00    +0.030 A 
ATOM      3  C   UNL     1       1.173   2.079   0.002  0.00  0.00    +0.025 A 
ATOM      4  C   UNL     1       2.382   1.395  -0.012  0.00  0.00    +0.031 A 
ATOM      5  C   UNL     1       2.406   0.009  -0.019  0.00  0.00    -0.018 A 
ATOM      6  C   UNL     1       1.203  -0.684  -0.012  0.00  0.00    +0.034 A 
ATOM      7  C   UNL     1       3.683  -0.770  -0.035  0.00  0.00    +0.049 C 
ATOM      8  C   UNL     1       3.980  -1.370   1.319  0.00  0.00    -0.023 C 
ATOM      9  C   UNL     1       5.270  -1.351   1.550  0.00  0.00    -0.030 C 
ATOM     10  C   UNL     1       6.011  -0.740   0.377  0.00  0.00    +0.033 C 
ATOM     11  C   UNL     1       4.918   0.107  -0.323  0.00  0.00    +0.029 C 
ATOM     12  C   UNL     1       4.805   1.432   0.437  0.00  0.00    +0.105 C 
ATOM     13  N   UNL     1       3.580   2.119   0.015  0.00  0.00    -0.336 N 
ATOM     14  H   UNL     1       3.599   3.052  -0.249  0.00  0.00    +0.147 HD
ENDROOT
BRANCH  12  15
ATOM     15  C   UNL     1       4.747   1.161   1.918  0.00  0.00    -0.027 A 
ATOM     16  C   UNL     1       3.557   0.771   2.503  0.00  0.00    +0.009 A 
ATOM     17  C   UNL     1       3.502   0.518   3.860  0.00  0.00    +0.046 A 
ATOM     18  C   UNL     1       4.642   0.665   4.638  0.00  0.00    +0.117 A 
ATOM     19  C   UNL     1       5.834   1.062   4.050  0.00  0.00    +0.046 A 
ATOM     20  C   UNL     1       5.884   1.309   2.691  0.00  0.00    +0.009 A 
BRANCH  18  21
ATOM     21  O   UNL     1       4.590   0.421   5.973  0.00  0.00    -0.507 OA
ATOM     22  H   UNL     1       4.366   1.196   6.506  0.00  0.00    +0.292 HD
ENDBRANCH  18  21
ENDBRANCH  12  15
BRANCH   1  23
ATOM     23  S   UNL     1      -1.514  -0.902   0.011  0.00  0.00    +0.058 S 
ATOM     24  O   UNL     1      -1.224  -2.183   0.552  0.00  0.00    -0.153 OA
ATOM     25  O   UNL     1      -2.493  -0.040   0.576  0.00  0.00    -0.153 OA
BRANCH  23  26
ATOM     26  N   UNL     1      -1.950  -1.143  -1.568  0.00  0.00    -0.190 NA
ATOM     27  H   UNL     1      -2.756  -0.732  -1.917  0.00  0.00    +0.148 HD
BRANCH  26  28
ATOM     28  C   UNL     1      -1.118  -1.977  -2.439  0.00  0.00    +0.110 C 
BRANCH  28  29
ATOM     29  C   UNL     1      -1.905  -2.345  -3.698  0.00  0.00    +0.052 C 
BRANCH  29  33
ATOM     30  C   UNL     1       0.521  -4.777  -6.237  0.00  0.00    +0.000 A 
ATOM     31  C   UNL     1      -0.285  -5.365  -5.280  0.00  0.00    +0.000 A 
ATOM     32  C   UNL     1      -1.070  -4.578  -4.458  0.00  0.00    +0.003 A 
ATOM     33  C   UNL     1      -1.049  -3.203  -4.593  0.00  0.00    -0.046 A 
ATOM     34  C   UNL     1      -0.247  -2.614  -5.553  0.00  0.00    +0.003 A 
ATOM     35  C   UNL     1       0.542  -3.401  -6.372  0.00  0.00    +0.000 A 
ENDBRANCH  29  33
ENDBRANCH  28  29
ENDBRANCH  26  28
ENDBRANCH  23  26
ENDBRANCH   1  23
TORSDOF 7
