REMARK  Name = ZINC39869697
REMARK  6 active torsions:
REMARK  status: ('A' for Active; 'I' for Inactive)
REMARK    1  A    between atoms: C_1  and  C_2
REMARK    2  A    between atoms: C_5  and  O_26
REMARK    3  A    between atoms: C_6  and  N_8
REMARK    4  A    between atoms: C_14  and  C_15
REMARK    5  A    between atoms: C_14  and  C_16
REMARK    6  A    between atoms: C_19  and  N_22
REMARK                            x       y       z     vdW  Elec       q    Type
REMARK                         _______ _______ _______ _____ _____    ______ ____
ROOT
ATOM      1  N   UNL     1       0.052  -2.794   2.398  0.00  0.00    -0.293 N 
ATOM      2  C   UNL     1       0.152  -2.119   3.586  0.00  0.00    +0.156 C 
ATOM      3  N   UNL     1       0.147  -0.811   3.790  0.00  0.00    -0.154 NA
ATOM      4  C   UNL     1       0.251  -0.284   4.989  0.00  0.00    +0.276 C 
ATOM      5  O   UNL     1       0.244   0.924   5.165  0.00  0.00    -0.267 OA
ATOM      6  C   UNL     1       0.375  -1.238   6.118  0.00  0.00    +0.082 C 
ATOM      7  C   UNL     1       0.496  -1.001   7.447  0.00  0.00    -0.024 C 
ATOM      8  C   UNL     1       0.517   0.416   7.960  0.00  0.00    +0.045 C 
ATOM      9  S   UNL     1       0.314  -2.791   5.232  0.00  0.00    -0.051 S 
ATOM     10  H   UNL     1      -0.016  -3.762   2.395  0.00  0.00    +0.154 HD
ENDROOT
BRANCH   1  16
ATOM     11  C   UNL     1       0.559   1.455  -0.022  0.00  0.00    +0.044 C 
ATOM     12  C   UNL     1       0.290  -0.027  -0.014  0.00  0.00    -0.048 A 
ATOM     13  C   UNL     1       0.039  -0.689  -1.202  0.00  0.00    +0.007 A 
ATOM     14  C   UNL     1      -0.208  -2.049  -1.201  0.00  0.00    +0.047 A 
ATOM     15  C   UNL     1      -0.205  -2.754  -0.008  0.00  0.00    +0.138 A 
ATOM     16  C   UNL     1       0.048  -2.088   1.189  0.00  0.00    +0.075 A 
ATOM     17  C   UNL     1       0.300  -0.723   1.180  0.00  0.00    +0.030 A 
BRANCH  15  18
ATOM     18  O   UNL     1      -0.448  -4.092  -0.006  0.00  0.00    -0.505 OA
ATOM     19  H   UNL     1       0.345  -4.636  -0.100  0.00  0.00    +0.292 HD
ENDBRANCH  15  18
ENDBRANCH   1  16
BRANCH   7  20
ATOM     20  C   UNL     1       0.606  -2.125   8.388  0.00  0.00    -0.021 A 
ATOM     21  C   UNL     1      -0.461  -3.017   8.546  0.00  0.00    +0.010 A 
ATOM     22  C   UNL     1      -0.350  -4.069   9.431  0.00  0.00    +0.033 A 
ATOM     23  C   UNL     1       0.813  -4.244  10.161  0.00  0.00    +0.126 A 
ATOM     24  C   UNL     1       1.873  -3.367  10.010  0.00  0.00    +0.033 A 
ATOM     25  C   UNL     1       1.780  -2.313   9.125  0.00  0.00    +0.010 A 
BRANCH  23  26
ATOM     26  N   UNL     1       0.923  -5.375  11.109  0.00  0.00    +0.056 N 
ATOM     27  O   UNL     1      -0.001  -6.143  11.243  0.00  0.00    -0.126 OA
ATOM     28  O   UNL     1       1.938  -5.532  11.748  0.00  0.00    -0.126 OA
ENDBRANCH  23  26
ENDBRANCH   7  20
TORSDOF 4
