REMARK  Name = ZINC44166735
REMARK  10 active torsions:
REMARK  status: ('A' for Active; 'I' for Inactive)
REMARK    1  A    between atoms: C_1  and  C_2
REMARK    2  A    between atoms: C_2  and  N_3
REMARK    3  A    between atoms: N_3  and  C_4
REMARK    4  A    between atoms: N_3  and  C_6
REMARK    5  A    between atoms: C_4  and  C_5
REMARK    6  A    between atoms: C_9  and  C_12
REMARK    7  A    between atoms: C_17  and  C_20
REMARK    8  A    between atoms: N_22  and  C_23
REMARK    9  A    between atoms: C_23  and  C_25
REMARK   10  A    between atoms: C_23  and  C_26
REMARK                            x       y       z     vdW  Elec       q    Type
REMARK                         _______ _______ _______ _____ _____    ______ ____
ROOT
ATOM      1  C   UNL     1      -7.505  -0.839   5.574  0.00  0.00    -0.030 C 
ATOM      2  C   UNL     1      -7.458   0.005   6.854  0.00  0.00    +0.058 C 
ATOM      3  S   UNL     1      -6.186  -0.695   7.952  0.00  0.00    -0.163 S 
ATOM      4  C   UNL     1      -6.612  -2.464   7.979  0.00  0.00    +0.062 C 
ATOM      5  C   UNL     1      -6.786  -2.939   6.531  0.00  0.00    +0.027 C 
ATOM      6  N   UNL     1      -7.891  -2.213   5.901  0.00  0.00    +0.392 N 
ATOM      7  H   UNL     1      -8.678  -2.194   6.532  0.00  0.00    -0.084 HD
ATOM      8  H   UNL     1      -8.159  -2.691   5.054  0.00  0.00    -0.084 HD
ENDROOT
BRANCH   1  12
ATOM      9  C   UNL     1     -10.361   0.835   2.872  0.00  0.00    +0.030 A 
ATOM     10  C   UNL     1      -9.007   1.090   2.699  0.00  0.00    +0.023 A 
ATOM     11  C   UNL     1      -8.086   0.548   3.575  0.00  0.00    +0.004 A 
ATOM     12  C   UNL     1      -8.512  -0.248   4.622  0.00  0.00    -0.060 A 
ATOM     13  C   UNL     1      -9.860  -0.504   4.797  0.00  0.00    +0.004 A 
ATOM     14  C   UNL     1     -10.786   0.039   3.928  0.00  0.00    +0.023 A 
BRANCH   9  15
ATOM     15  N   UNL     1     -11.295   1.382   1.988  0.00  0.00    -0.330 N 
BRANCH  15  17
ATOM     16  C   UNL     1     -10.796   3.683   1.325  0.00  0.00    +0.024 C 
ATOM     17  C   UNL     1     -10.845   2.221   0.875  0.00  0.00    +0.102 C 
ENDBRANCH  15  17
BRANCH  15  18
ATOM     18  C   UNL     1     -12.723   1.117   2.176  0.00  0.00    +0.102 C 
ATOM     19  C   UNL     1     -13.113  -0.145   1.403  0.00  0.00    +0.024 C 
ENDBRANCH  15  18
ENDBRANCH   9  15
ENDBRANCH   1  12
BRANCH   5  20
ATOM     20  C   UNL     1      -7.087  -4.415   6.521  0.00  0.00    +0.200 C 
ATOM     21  O   UNL     1      -8.125  -4.819   6.040  0.00  0.00    -0.278 OA
ATOM     22  N   UNL     1      -6.204  -5.287   7.047  0.00  0.00    -0.310 N 
ATOM     23  H   UNL     1      -5.374  -4.964   7.432  0.00  0.00    +0.149 HD
BRANCH  22  24
ATOM     24  C   UNL     1      -6.497  -6.722   7.037  0.00  0.00    +0.101 C 
ATOM     25  C   UNL     1      -5.187  -7.511   7.094  0.00  0.00    +0.033 C 
BRANCH  24  26
ATOM     26  C   UNL     1      -7.345  -7.070   8.233  0.00  0.00    -0.020 A 
ATOM     27  C   UNL     1      -7.335  -6.271   9.335  0.00  0.00    +0.006 A 
ATOM     28  C   UNL     1      -8.113  -6.576  10.450  0.00  0.00    +0.001 A 
ATOM     29  C   UNL     1      -8.904  -7.683  10.470  0.00  0.00    +0.008 A 
ATOM     30  C   UNL     1      -8.941  -8.533   9.352  0.00  0.00    -0.018 A 
ATOM     31  C   UNL     1      -8.154  -8.219   8.215  0.00  0.00    -0.013 A 
ATOM     32  C   UNL     1      -8.195  -9.065   7.094  0.00  0.00    +0.009 A 
ATOM     33  C   UNL     1      -8.991 -10.169   7.112  0.00  0.00    +0.001 A 
ATOM     34  C   UNL     1      -9.769 -10.474   8.228  0.00  0.00    +0.001 A 
ATOM     35  C   UNL     1      -9.745  -9.685   9.336  0.00  0.00    +0.008 A 
ENDBRANCH  24  26
ENDBRANCH  22  24
ENDBRANCH   5  20
TORSDOF 7
