REMARK  Name = ZINC59410379
REMARK  9 active torsions:
REMARK  status: ('A' for Active; 'I' for Inactive)
REMARK    1  A    between atoms: C_1  and  C_2
REMARK    2  A    between atoms: C_6  and  C_36
REMARK    3  A    between atoms: C_6  and  O_37
REMARK    4  A    between atoms: C_7  and  O_35
REMARK    5  A    between atoms: C_17  and  C_19
REMARK    6  A    between atoms: C_19  and  N_20
REMARK    7  A    between atoms: N_23  and  C_26
REMARK    8  A    between atoms: C_29  and  N_32
REMARK    9  A    between atoms: O_37  and  C_38
REMARK                            x       y       z     vdW  Elec       q    Type
REMARK                         _______ _______ _______ _____ _____    ______ ____
ROOT
ATOM      1  C   UNL     1      -0.017   1.553   0.018  0.00  0.00    +0.014 C 
ATOM      2  C   UNL     1      -0.014   0.025   0.025  0.00  0.00    +0.003 C 
ATOM      3  C   UNL     1      -1.460  -0.478   0.108  0.00  0.00    +0.010 C 
ATOM      4  C   UNL     1      -2.061  -0.107   1.462  0.00  0.00    +0.003 C 
ATOM      5  C   UNL     1      -1.268  -0.771   2.583  0.00  0.00    +0.037 C 
ATOM      6  C   UNL     1       0.205  -0.367   2.541  0.00  0.00    +0.095 C 
ATOM      7  C   UNL     1       0.801  -0.579   1.161  0.00  0.00    +0.100 C 
ATOM      8  C   UNL     1       2.242  -0.067   1.090  0.00  0.00    +0.046 C 
ATOM      9  C   UNL     1       2.895  -0.563  -0.201  0.00  0.00    +0.048 C 
ATOM     10  C   UNL     1       2.055  -0.146  -1.427  0.00  0.00    +0.181 C 
ATOM     11  C   UNL     1       0.589  -0.468  -1.299  0.00  0.00    +0.054 C 
ATOM     12  O   UNL     1       2.349   1.238  -1.613  0.00  0.00    -0.461 OA
ATOM     13  C   UNL     1       3.617   1.491  -1.229  0.00  0.00    +0.312 C 
ATOM     14  O   UNL     1       4.226   2.513  -1.447  0.00  0.00    -0.250 OA
ATOM     15  C   UNL     1       4.164   0.290  -0.478  0.00  0.00    +0.118 C 
ATOM     16  C   UNL     1       0.382   1.052   3.069  0.00  0.00    +0.044 C 
ENDROOT
BRANCH   7  17
ATOM     17  O   UNL     1       0.860  -2.011   0.939  0.00  0.00    -0.385 OA
ATOM     18  H   UNL     1       1.360  -2.494   1.611  0.00  0.00    +0.210 HD
ENDBRANCH   7  17
BRANCH   6  19
ATOM     19  O   UNL     1       0.904  -1.248   3.454  0.00  0.00    -0.374 OA
ATOM     20  C   UNL     1       0.445  -1.167   4.805  0.00  0.00    +0.194 C 
ENDBRANCH   6  19
BRANCH  15  21
ATOM     21  C   UNL     1       4.878   0.714   0.801  0.00  0.00    +0.099 C 
BRANCH  21  22
ATOM     22  N   UNL     1       6.125   1.410   0.458  0.00  0.00    -0.299 NA
ATOM     23  C   UNL     1       7.074   0.498  -0.194  0.00  0.00    +0.103 C 
ATOM     24  C   UNL     1       8.282   1.296  -0.696  0.00  0.00    +0.120 C 
ATOM     25  N   UNL     1       8.833   2.067   0.428  0.00  0.00    -0.327 N 
ATOM     26  C   UNL     1       7.913   2.901   1.218  0.00  0.00    +0.120 C 
ATOM     27  C   UNL     1       6.720   2.039   1.645  0.00  0.00    +0.103 C 
BRANCH  25  28
ATOM     28  C   UNL     1      10.193   2.009   0.739  0.00  0.00    +0.030 A 
ATOM     29  C   UNL     1      11.067   1.317  -0.089  0.00  0.00    +0.025 A 
ATOM     30  C   UNL     1      12.412   1.262   0.221  0.00  0.00    +0.034 A 
ATOM     31  C   UNL     1      12.889   1.895   1.354  0.00  0.00    +0.126 A 
ATOM     32  C   UNL     1      12.021   2.585   2.181  0.00  0.00    +0.034 A 
ATOM     33  C   UNL     1      10.676   2.649   1.874  0.00  0.00    +0.025 A 
BRANCH  31  34
ATOM     34  N   UNL     1      14.330   1.833   1.683  0.00  0.00    +0.056 N 
ATOM     35  O   UNL     1      15.090   1.230   0.962  0.00  0.00    -0.126 OA
ATOM     36  O   UNL     1      14.748   2.386   2.674  0.00  0.00    -0.126 OA
ENDBRANCH  31  34
ENDBRANCH  25  28
ENDBRANCH  21  22
ENDBRANCH  15  21
TORSDOF 6
