REMARK  Name = ZINC00493806
REMARK  7 active torsions:
REMARK  status: ('A' for Active; 'I' for Inactive)
REMARK    1  A    between atoms: C_1  and  C_2
REMARK    2  A    between atoms: C_2  and  C_26
REMARK    3  A    between atoms: C_6  and  C_15
REMARK    4  A    between atoms: C_8  and  N_12
REMARK    5  A    between atoms: C_9  and  N_11
REMARK    6  A    between atoms: C_20  and  O_21
REMARK    7  A    between atoms: O_21  and  C_22
REMARK                            x       y       z     vdW  Elec       q    Type
REMARK                         _______ _______ _______ _____ _____    ______ ____
ROOT
ATOM      1  C   UNL     1      -2.510   1.810   3.506  0.00  0.00    +0.012 C 
ATOM      2  C   UNL     1      -3.449   0.604   3.566  0.00  0.00    -0.021 C 
ATOM      3  C   UNL     1      -4.232   0.496   2.255  0.00  0.00    +0.081 C 
ATOM      4  C   UNL     1      -3.272   0.295   1.106  0.00  0.00    +0.115 C 
ATOM      5  C   UNL     1      -2.110  -0.362   1.287  0.00  0.00    +0.047 C 
ATOM      6  C   UNL     1      -1.164  -0.569   0.130  0.00  0.00    +0.118 C 
ATOM      7  C   UNL     1      -1.887  -0.361  -1.171  0.00  0.00    +0.172 C 
ATOM      8  C   UNL     1      -3.038   0.289  -1.210  0.00  0.00    +0.211 C 
ATOM      9  O   UNL     1      -3.610   0.790  -0.098  0.00  0.00    -0.444 OA
ATOM     10  C   UNL     1      -1.744  -0.868   2.548  0.00  0.00    +0.164 C 
ATOM     11  O   UNL     1      -0.695  -1.468   2.668  0.00  0.00    -0.292 OA
ATOM     12  C   UNL     1      -2.630  -0.678   3.749  0.00  0.00    +0.086 C 
ATOM     13  C   UNL     1      -4.423   0.768   4.734  0.00  0.00    +0.012 C 
ENDROOT
BRANCH   6  14
ATOM     14  C   UNL     1      -0.026   0.414   0.233  0.00  0.00    +0.008 A 
ATOM     15  C   UNL     1      -0.281   1.771   0.217  0.00  0.00    +0.008 A 
ATOM     16  C   UNL     1       0.762   2.673   0.311  0.00  0.00    +0.001 A 
ATOM     17  C   UNL     1       2.064   2.219   0.420  0.00  0.00    +0.004 A 
ATOM     18  C   UNL     1       2.325   0.863   0.436  0.00  0.00    +0.046 A 
ATOM     19  C   UNL     1       1.279  -0.044   0.342  0.00  0.00    +0.124 A 
BRANCH  19  20
ATOM     20  O   UNL     1       1.533  -1.379   0.358  0.00  0.00    -0.495 OA
ATOM     21  C   UNL     1       2.900  -1.778   0.473  0.00  0.00    +0.277 C 
ENDBRANCH  19  20
ENDBRANCH   6  14
BRANCH   8  22
ATOM     22  N   UNL     1      -3.676   0.459  -2.433  0.00  0.00    -0.328 N 
ATOM     23  H   UNL     1      -4.185   1.266  -2.606  0.00  0.00    +0.145 HD
ATOM     24  H   UNL     1      -3.612  -0.230  -3.113  0.00  0.00    +0.145 HD
ENDBRANCH   8  22
BRANCH   7  25
ATOM     25  N   UNL     1      -1.302  -0.889  -2.425  0.00  0.00    +0.058 N 
ATOM     26  O   UNL     1      -1.824  -0.632  -3.495  0.00  0.00    -0.126 OA
ATOM     27  O   UNL     1      -0.301  -1.581  -2.386  0.00  0.00    -0.126 OA
ENDBRANCH   7  25
TORSDOF 4
