REMARK  Name = ZINC63479873
REMARK  3 active torsions:
REMARK  status: ('A' for Active; 'I' for Inactive)
REMARK    1  A    between atoms: C_7  and  C_10
REMARK    2  A    between atoms: C_10  and  C_11
REMARK    3  A    between atoms: N_19  and  C_22
REMARK                            x       y       z     vdW  Elec       q    Type
REMARK                         _______ _______ _______ _____ _____    ______ ____
ROOT
ATOM      1  C   UNL     1       0.236  -3.703  -1.156  0.00  0.00    +0.072 C 
ATOM      2  C   UNL     1      -0.647  -4.939  -1.434  0.00  0.00    +0.107 C 
ATOM      3  C   UNL     1       0.010  -5.628  -2.662  0.00  0.00    +0.123 C 
ATOM      4  C   UNL     1      -1.030  -5.470  -3.748  0.00  0.00    +0.233 C 
ATOM      5  O   UNL     1      -0.919  -5.867  -4.888  0.00  0.00    -0.274 OA
ATOM      6  N   UNL     1      -2.094  -4.825  -3.254  0.00  0.00    -0.210 N 
ATOM      7  C   UNL     1      -1.992  -4.481  -1.949  0.00  0.00    +0.232 C 
ATOM      8  O   UNL     1      -2.832  -3.900  -1.296  0.00  0.00    -0.274 OA
ATOM      9  C   UNL     1       1.242  -4.771  -2.975  0.00  0.00    +0.136 C 
ATOM     10  N   UNL     1       1.561  -4.039  -1.741  0.00  0.00    -0.295 NA
ATOM     11  C   UNL     1       2.393  -5.613  -3.447  0.00  0.00    +0.003 A 
ATOM     12  C   UNL     1       3.098  -6.654  -2.886  0.00  0.00    +0.008 A 
ATOM     13  C   UNL     1       4.137  -7.243  -3.585  0.00  0.00    +0.000 A 
ATOM     14  C   UNL     1       4.465  -6.784  -4.847  0.00  0.00    +0.002 A 
ATOM     15  C   UNL     1       3.761  -5.741  -5.413  0.00  0.00    +0.023 A 
ATOM     16  C   UNL     1       2.714  -5.142  -4.717  0.00  0.00    +0.039 A 
ATOM     17  N   UNL     1       1.866  -4.090  -5.070  0.00  0.00    -0.283 N 
ATOM     18  C   UNL     1       0.973  -3.810  -4.102  0.00  0.00    +0.243 C 
ATOM     19  O   UNL     1       0.117  -2.951  -4.132  0.00  0.00    -0.273 OA
ATOM     20  H   UNL     1       2.092  -3.204  -1.936  0.00  0.00    +0.124 HD
ATOM     21  H   UNL     1       1.915  -3.615  -5.915  0.00  0.00    +0.155 HD
ENDROOT
BRANCH   6  22
ATOM     22  C   UNL     1      -3.228  -4.533  -4.025  0.00  0.00    +0.045 A 
ATOM     23  C   UNL     1      -3.535  -3.215  -4.338  0.00  0.00    +0.024 A 
ATOM     24  C   UNL     1      -4.652  -2.930  -5.098  0.00  0.00    +0.003 A 
ATOM     25  C   UNL     1      -5.466  -3.954  -5.547  0.00  0.00    +0.020 A 
ATOM     26  C   UNL     1      -5.163  -5.268  -5.236  0.00  0.00    +0.043 A 
ATOM     27  C   UNL     1      -4.042  -5.560  -4.481  0.00  0.00    +0.044 A 
ATOM     28 CL   UNL     1      -6.186  -6.551  -5.801  0.00  0.00    -0.083 Cl
ENDBRANCH   6  22
BRANCH   1  29
ATOM     29  C   UNL     1       0.363  -3.468   0.351  0.00  0.00    +0.052 C 
BRANCH  29  36
ATOM     30  C   UNL     1      -0.881   0.884   1.106  0.00  0.00    +0.001 A 
ATOM     31  C   UNL     1       0.202   1.755   1.289  0.00  0.00    +0.002 A 
ATOM     32  C   UNL     1       1.486   1.340   1.246  0.00  0.00    +0.026 A 
ATOM     33  C   UNL     1       1.792  -0.028   1.006  0.00  0.00    +0.043 A 
ATOM     34  N   UNL     1       2.935  -0.664   0.919  0.00  0.00    -0.380 N 
ATOM     35  C   UNL     1       2.662  -2.082   0.656  0.00  0.00    +0.144 C 
ATOM     36  C   UNL     1       1.156  -2.210   0.597  0.00  0.00    -0.040 C 
ATOM     37  C   UNL     1       0.666  -0.968   0.810  0.00  0.00    -0.001 A 
ATOM     38  C   UNL     1      -0.701  -0.436   0.873  0.00  0.00    +0.010 A 
ATOM     39  H   UNL     1       3.814  -0.265   1.011  0.00  0.00    +0.160 HD
ENDBRANCH  29  36
ENDBRANCH   1  29
TORSDOF 3
