REMARK  Name = ZINC13718535
REMARK  11 active torsions:
REMARK  status: ('A' for Active; 'I' for Inactive)
REMARK    1  A    between atoms: C_4  and  C_7
REMARK    2  A    between atoms: C_7  and  C_9
REMARK    3  A    between atoms: C_7  and  O_35
REMARK    4  A    between atoms: C_9  and  N_10
REMARK    5  A    between atoms: C_11  and  C_13
REMARK    6  A    between atoms: C_13  and  N_14
REMARK    7  A    between atoms: C_15  and  C_17
REMARK    8  A    between atoms: C_20  and  C_23
REMARK    9  A    between atoms: C_23  and  N_24
REMARK   10  A    between atoms: N_24  and  S_25
REMARK   11  A    between atoms: S_25  and  C_28
REMARK                            x       y       z     vdW  Elec       q    Type
REMARK                         _______ _______ _______ _____ _____    ______ ____
ROOT
ATOM      1  N   UNL     1       5.197  -6.809  -4.524  0.00  0.00    -0.306 N 
ATOM      2  C   UNL     1       4.830  -5.580  -4.937  0.00  0.00    +0.217 C 
ATOM      3  O   UNL     1       5.576  -4.637  -4.773  0.00  0.00    -0.276 OA
ATOM      4  H   UNL     1       4.601  -7.563  -4.655  0.00  0.00    +0.149 HD
ENDROOT
BRANCH   2   5
ATOM      5  C   UNL     1       3.493  -5.376  -5.601  0.00  0.00    +0.075 C 
ATOM      6  C   UNL     1       3.326  -3.900  -5.969  0.00  0.00    +0.013 C 
ATOM      7  C   UNL     1       3.401  -3.047  -4.702  0.00  0.00    +0.005 C 
ATOM      8  C   UNL     1       2.285  -3.462  -3.741  0.00  0.00    +0.005 C 
ATOM      9  C   UNL     1       2.452  -4.938  -3.373  0.00  0.00    +0.005 C 
ATOM     10  C   UNL     1       2.377  -5.791  -4.641  0.00  0.00    +0.013 C 
BRANCH   8  11
ATOM     11  C   UNL     1       2.359  -2.609  -2.473  0.00  0.00    +0.109 C 
BRANCH  11  12
ATOM     12  N   UNL     1       1.222  -2.923  -1.605  0.00  0.00    -0.190 NA
ATOM     13  H   UNL     1       0.463  -3.414  -1.959  0.00  0.00    +0.148 HD
BRANCH  12  14
ATOM     14  S   UNL     1       1.230  -2.441  -0.021  0.00  0.00    +0.058 S 
ATOM     15  O   UNL     1       2.486  -2.834   0.516  0.00  0.00    -0.153 OA
ATOM     16  O   UNL     1      -0.004  -2.866   0.539  0.00  0.00    -0.153 OA
BRANCH  14  17
ATOM     17  C   UNL     1       1.208  -0.679  -0.013  0.00  0.00    +0.105 A 
ATOM     18  C   UNL     1       0.002  -0.004   0.002  0.00  0.00    +0.031 A 
ATOM     19  C   UNL     1      -0.017   1.378   0.010  0.00  0.00    +0.040 A 
ATOM     20  C   UNL     1       1.173   2.086   0.002  0.00  0.00    +0.124 A 
ATOM     21  C   UNL     1       2.381   1.408  -0.013  0.00  0.00    +0.040 A 
ATOM     22  C   UNL     1       2.397   0.026  -0.020  0.00  0.00    +0.031 A 
ATOM     23  F   UNL     1       1.156   3.437   0.009  0.00  0.00    -0.205 F 
ENDBRANCH  14  17
ENDBRANCH  12  14
ENDBRANCH  11  12
ENDBRANCH   8  11
ENDBRANCH   2   5
BRANCH   1  24
ATOM     24  C   UNL     1       6.497  -7.007  -3.877  0.00  0.00    +0.200 C 
BRANCH  24  26
ATOM     25  N   UNL     1       7.788  -8.880  -2.906  0.00  0.00    -0.311 N 
ATOM     26  C   UNL     1       6.661  -8.461  -3.515  0.00  0.00    +0.230 C 
ATOM     27  O   UNL     1       5.780  -9.253  -3.772  0.00  0.00    -0.274 OA
ATOM     28  H   UNL     1       8.493  -8.246  -2.701  0.00  0.00    +0.149 HD
BRANCH  25  29
ATOM     29  C   UNL     1       7.948 -10.293  -2.554  0.00  0.00    +0.140 C 
BRANCH  29  30
ATOM     30  C   UNL     1       9.306 -10.500  -1.879  0.00  0.00    +0.162 C 
BRANCH  30  34
ATOM     31  C   UNL     1       9.771 -14.620  -0.852  0.00  0.00    +0.000 A 
ATOM     32  C   UNL     1       9.294 -13.724   0.086  0.00  0.00    +0.000 A 
ATOM     33  C   UNL     1       9.143 -12.390  -0.247  0.00  0.00    +0.006 A 
ATOM     34  C   UNL     1       9.470 -11.953  -1.517  0.00  0.00    -0.018 A 
ATOM     35  C   UNL     1       9.943 -12.851  -2.456  0.00  0.00    +0.006 A 
ATOM     36  C   UNL     1      10.098 -14.183  -2.122  0.00  0.00    +0.000 A 
ENDBRANCH  30  34
BRANCH  30  37
ATOM     37  O   UNL     1      10.348 -10.112  -2.776  0.00  0.00    -0.386 OA
ATOM     38  H   UNL     1      10.361 -10.612  -3.604  0.00  0.00    +0.210 HD
ENDBRANCH  30  37
ENDBRANCH  29  30
ENDBRANCH  25  29
ENDBRANCH  24  26
ENDBRANCH   1  24
TORSDOF 11
