REMARK  Name = ZINC09576801
REMARK  7 active torsions:
REMARK  status: ('A' for Active; 'I' for Inactive)
REMARK    1  A    between atoms: C_1  and  C_2
REMARK    2  A    between atoms: C_2  and  C_25
REMARK    3  A    between atoms: N_5  and  C_9
REMARK    4  A    between atoms: C_9  and  C_10
REMARK    5  A    between atoms: N_12  and  C_13
REMARK    6  A    between atoms: C_13  and  C_14
REMARK    7  A    between atoms: C_14  and  C_15
REMARK                            x       y       z     vdW  Elec       q    Type
REMARK                         _______ _______ _______ _____ _____    ______ ____
ROOT
ATOM      1  C   UNL     1      -1.244   4.073  -1.222  0.00  0.00    +0.047 C 
ATOM      2  C   UNL     1      -0.727   3.357   0.027  0.00  0.00    +0.135 C 
ATOM      3  C   UNL     1       0.787   3.284   0.012  0.00  0.00    +0.251 C 
ATOM      4  O   UNL     1       1.565   4.213   0.009  0.00  0.00    -0.272 OA
ATOM      5  N   UNL     1       1.087   1.970   0.002  0.00  0.00    -0.215 N 
ATOM      6  C   UNL     1      -0.014   1.211   0.009  0.00  0.00    +0.310 C 
ATOM      7  O   UNL     1       0.002  -0.004   0.002  0.00  0.00    -0.252 OA
ATOM      8  N   UNL     1      -1.143   1.944   0.018  0.00  0.00    -0.281 N 
ATOM      9  H   UNL     1      -2.052   1.607   0.019  0.00  0.00    +0.152 HD
ENDROOT
BRANCH   2  10
ATOM     10  C   UNL     1      -1.212   4.052   1.273  0.00  0.00    -0.015 A 
ATOM     11  C   UNL     1      -0.431   5.024   1.872  0.00  0.00    +0.006 A 
ATOM     12  C   UNL     1      -0.878   5.659   3.014  0.00  0.00    +0.004 A 
ATOM     13  C   UNL     1      -2.106   5.327   3.562  0.00  0.00    -0.044 A 
ATOM     14  C   UNL     1      -2.886   4.356   2.963  0.00  0.00    -0.044 A 
ATOM     15  C   UNL     1      -2.439   3.724   1.815  0.00  0.00    +0.010 A 
ATOM     16  C   UNL     1      -4.170   4.178   3.745  0.00  0.00    +0.036 C 
ATOM     17  C   UNL     1      -3.898   4.824   5.120  0.00  0.00    +0.009 C 
ATOM     18  C   UNL     1      -2.812   5.868   4.787  0.00  0.00    +0.036 C 
ENDBRANCH   2  10
BRANCH   5  19
ATOM     19  C   UNL     1       2.453   1.438  -0.013  0.00  0.00    +0.213 C 
BRANCH  19  20
ATOM     20  C   UNL     1       2.908   1.264  -1.439  0.00  0.00    +0.231 C 
ATOM     21  O   UNL     1       2.165   1.554  -2.353  0.00  0.00    -0.274 OA
ATOM     22  N   UNL     1       4.140   0.784  -1.699  0.00  0.00    -0.314 N 
ATOM     23  H   UNL     1       4.734   0.552  -0.968  0.00  0.00    +0.149 HD
BRANCH  22  24
ATOM     24  C   UNL     1       4.583   0.614  -3.085  0.00  0.00    +0.109 C 
BRANCH  24  25
ATOM     25  C   UNL     1       6.009   0.059  -3.101  0.00  0.00    +0.056 C 
BRANCH  25  26
ATOM     26  C   UNL     1       6.464  -0.115  -4.527  0.00  0.00    -0.021 A 
ATOM     27  C   UNL     1       6.397  -1.242  -5.254  0.00  0.00    +0.087 A 
ATOM     28  N   UNL     1       6.904  -1.020  -6.505  0.00  0.00    -0.360 N 
ATOM     29  H   UNL     1       6.962  -1.685  -7.209  0.00  0.00    +0.165 HD
ATOM     30  C   UNL     1       7.320   0.288  -6.617  0.00  0.00    +0.047 A 
ATOM     31  C   UNL     1       7.057   0.913  -5.384  0.00  0.00    +0.003 A 
ATOM     32  C   UNL     1       7.384   2.258  -5.202  0.00  0.00    +0.010 A 
ATOM     33  C   UNL     1       7.949   2.964  -6.227  0.00  0.00    +0.001 A 
ATOM     34  C   UNL     1       8.206   2.353  -7.447  0.00  0.00    +0.002 A 
ATOM     35  C   UNL     1       7.896   1.025  -7.646  0.00  0.00    +0.026 A 
ENDBRANCH  25  26
ENDBRANCH  24  25
ENDBRANCH  22  24
ENDBRANCH  19  20
ENDBRANCH   5  19
TORSDOF 6
