REMARK  Name = ZINC06986188
REMARK  9 active torsions:
REMARK  status: ('A' for Active; 'I' for Inactive)
REMARK    1  A    between atoms: C_1  and  C_2
REMARK    2  A    between atoms: C_2  and  C_3
REMARK    3  A    between atoms: C_2  and  C_4
REMARK    4  A    between atoms: C_2  and  N_5
REMARK    5  A    between atoms: C_6  and  C_8
REMARK    6  A    between atoms: C_8  and  N_9
REMARK    7  A    between atoms: C_10  and  C_12
REMARK    8  A    between atoms: N_15  and  C_18
REMARK    9  A    between atoms: C_23  and  N_24
REMARK                            x       y       z     vdW  Elec       q    Type
REMARK                         _______ _______ _______ _____ _____    ______ ____
ROOT
ATOM      1  C   UNL     1       6.277   0.130  -3.693  0.00  0.00    +0.078 C 
ATOM      2  C   UNL     1       6.255   1.661  -3.699  0.00  0.00    +0.031 C 
ATOM      3  C   UNL     1       7.694   2.187  -3.674  0.00  0.00    +0.106 C 
ATOM      4  N   UNL     1       8.436   1.590  -4.792  0.00  0.00    -0.328 N 
ATOM      5  C   UNL     1       8.445   0.128  -4.933  0.00  0.00    +0.106 C 
ATOM      6  C   UNL     1       6.998  -0.376  -4.944  0.00  0.00    +0.031 C 
ENDROOT
BRANCH   4   7
ATOM      7  C   UNL     1       9.119   2.398  -5.705  0.00  0.00    +0.060 A 
ATOM      8  C   UNL     1       8.503   2.786  -6.888  0.00  0.00    +0.025 A 
ATOM      9  C   UNL     1       9.181   3.584  -7.788  0.00  0.00    +0.002 A 
ATOM     10  C   UNL     1      10.472   3.998  -7.512  0.00  0.00    +0.002 A 
ATOM     11  C   UNL     1      11.088   3.613  -6.335  0.00  0.00    +0.034 A 
ATOM     12  C   UNL     1      10.413   2.819  -5.428  0.00  0.00    +0.147 A 
BRANCH  12  13
ATOM     13  N   UNL     1      11.071   2.413  -4.166  0.00  0.00    +0.058 N 
ATOM     14  O   UNL     1      12.157   2.860  -3.880  0.00  0.00    -0.126 OA
ATOM     15  O   UNL     1      10.522   1.634  -3.422  0.00  0.00    -0.126 OA
ENDBRANCH  12  13
ENDBRANCH   4   7
BRANCH   1  17
ATOM     16  N   UNL     1       4.034  -0.072  -2.671  0.00  0.00    -0.306 N 
ATOM     17  C   UNL     1       4.863  -0.391  -3.684  0.00  0.00    +0.217 C 
ATOM     18  O   UNL     1       4.471  -1.098  -4.588  0.00  0.00    -0.276 OA
ATOM     19  H   UNL     1       4.347   0.493  -1.947  0.00  0.00    +0.149 HD
BRANCH  16  20
ATOM     20  C   UNL     1       2.659  -0.580  -2.661  0.00  0.00    +0.200 C 
BRANCH  20  22
ATOM     21  N   UNL     1       0.664  -0.423  -1.208  0.00  0.00    -0.309 N 
ATOM     22  C   UNL     1       1.948  -0.081  -1.430  0.00  0.00    +0.231 C 
ATOM     23  O   UNL     1       2.532   0.628  -0.637  0.00  0.00    -0.274 OA
ATOM     24  H   UNL     1       0.197  -0.990  -1.842  0.00  0.00    +0.149 HD
BRANCH  21  26
ATOM     25  C   UNL     1      -0.049   1.591  -0.018  0.00  0.00    +0.031 C 
ATOM     26  C   UNL     1      -0.028   0.061  -0.011  0.00  0.00    +0.026 C 
ATOM     27  C   UNL     1       0.707  -0.433   1.237  0.00  0.00    +0.031 C 
ATOM     28  C   UNL     1      -1.463  -0.469  -0.001  0.00  0.00    +0.031 C 
ENDBRANCH  21  26
ENDBRANCH  20  22
ENDBRANCH  16  20
ENDBRANCH   1  17
TORSDOF 6
