REMARK  Name = ZINC39657200
REMARK  7 active torsions:
REMARK  status: ('A' for Active; 'I' for Inactive)
REMARK    1  A    between atoms: C_1  and  C_2
REMARK    2  A    between atoms: C_6  and  C_8
REMARK    3  A    between atoms: C_8  and  C_9
REMARK    4  A    between atoms: C_13  and  C_22
REMARK    5  A    between atoms: N_24  and  C_25
REMARK    6  A    between atoms: C_25  and  C_27
REMARK    7  A    between atoms: C_25  and  C_28
REMARK                            x       y       z     vdW  Elec       q    Type
REMARK                         _______ _______ _______ _____ _____    ______ ____
ROOT
ATOM      1  C   UNL     1       1.640  -3.057   2.948  0.00  0.00    +0.220 C 
ATOM      2  O   UNL     1       2.572  -2.707   2.256  0.00  0.00    -0.275 OA
ATOM      3  N   UNL     1       1.865  -3.756   4.078  0.00  0.00    -0.300 N 
ATOM      4  C   UNL     1       0.864  -4.273   5.041  0.00  0.00    +0.121 C 
ATOM      5  C   UNL     1       1.397  -5.665   5.449  0.00  0.00    +0.100 C 
ATOM      6  C   UNL     1       2.911  -5.598   5.185  0.00  0.00    -0.004 C 
ATOM      7  C   UNL     1       3.169  -4.187   4.636  0.00  0.00    +0.115 C 
ATOM      8  C   UNL     1       3.313  -6.643   4.149  0.00  0.00    -0.010 C 
ATOM      9  C   UNL     1       4.830  -6.595   3.945  0.00  0.00    -0.082 C 
ATOM     10  N   UNL     1       5.505  -6.857   5.222  0.00  0.00    +0.379 N 
ATOM     11  C   UNL     1       5.186  -5.796   6.185  0.00  0.00    -0.082 C 
ATOM     12  C   UNL     1       3.684  -5.810   6.483  0.00  0.00    -0.010 C 
ATOM     13  H   UNL     1       5.197  -7.746   5.588  0.00  0.00    -0.086 HD
ATOM     14  H   UNL     1       6.503  -6.886   5.073  0.00  0.00    -0.086 HD
ENDROOT
BRANCH   5  15
ATOM     15  C   UNL     1       1.128  -5.922   6.910  0.00  0.00    +0.219 C 
ATOM     16  O   UNL     1       1.099  -4.996   7.693  0.00  0.00    -0.275 OA
ATOM     17  N   UNL     1       0.920  -7.180   7.345  0.00  0.00    -0.308 N 
ATOM     18  H   UNL     1       0.943  -7.920   6.719  0.00  0.00    +0.149 HD
BRANCH  17  19
ATOM     19  C   UNL     1       0.658  -7.430   8.765  0.00  0.00    +0.100 C 
ATOM     20  C   UNL     1      -0.833  -7.241   9.050  0.00  0.00    +0.033 C 
BRANCH  19  21
ATOM     21  C   UNL     1       1.060  -8.841   9.109  0.00  0.00    -0.027 A 
ATOM     22  C   UNL     1       0.801  -9.869   8.222  0.00  0.00    +0.006 A 
ATOM     23  C   UNL     1       1.170 -11.164   8.537  0.00  0.00    +0.015 A 
ATOM     24  C   UNL     1       1.799 -11.430   9.740  0.00  0.00    +0.018 A 
ATOM     25  C   UNL     1       2.058 -10.401  10.627  0.00  0.00    +0.015 A 
ATOM     26  C   UNL     1       1.693  -9.106  10.309  0.00  0.00    +0.006 A 
ATOM     27 BR   UNL     1       2.303 -13.200  10.171  0.00  0.00    -0.050 Br
ENDBRANCH  19  21
ENDBRANCH  17  19
ENDBRANCH   5  15
BRANCH   1  28
ATOM     28  C   UNL     1       0.230  -2.711   2.544  0.00  0.00    +0.131 C 
BRANCH  28  34
ATOM     29  C   UNL     1       0.449   1.664   0.125  0.00  0.00    +0.044 C 
ATOM     30  C   UNL     1       0.357   0.160   0.096  0.00  0.00    -0.050 A 
ATOM     31  C   UNL     1       0.295  -0.506  -1.114  0.00  0.00    +0.003 A 
ATOM     32  C   UNL     1       0.211  -1.885  -1.140  0.00  0.00    +0.001 A 
ATOM     33  C   UNL     1       0.190  -2.599   0.044  0.00  0.00    +0.004 A 
ATOM     34  C   UNL     1       0.253  -1.933   1.254  0.00  0.00    -0.038 A 
ATOM     35  C   UNL     1       0.341  -0.554   1.280  0.00  0.00    +0.007 A 
ENDBRANCH  28  34
ENDBRANCH   1  28
TORSDOF 5
