REMARK  Name = ZINC27345557
REMARK  8 active torsions:
REMARK  status: ('A' for Active; 'I' for Inactive)
REMARK    1  A    between atoms: C_1  and  C_2
REMARK    2  A    between atoms: C_2  and  C_28
REMARK    3  A    between atoms: N_5  and  C_9
REMARK    4  A    between atoms: C_9  and  C_10
REMARK    5  A    between atoms: N_12  and  C_13
REMARK    6  A    between atoms: C_13  and  C_14
REMARK    7  A    between atoms: C_14  and  C_16
REMARK    8  A    between atoms: C_14  and  N_23
REMARK                            x       y       z     vdW  Elec       q    Type
REMARK                         _______ _______ _______ _____ _____    ______ ____
ROOT
ATOM      1  C   UNL     1      -2.082   1.636   1.986  0.00  0.00    +0.231 C 
ATOM      2  O   UNL     1      -1.861   0.997   2.993  0.00  0.00    -0.274 OA
ATOM      3  N   UNL     1      -2.847   2.745   2.047  0.00  0.00    -0.315 N 
ATOM      4  H   UNL     1      -3.048   3.325   1.135  0.00  0.00    +0.149 HD
ENDROOT
BRANCH   1   5
ATOM      5  C   UNL     1      -1.503   1.192   0.668  0.00  0.00    +0.213 C 
BRANCH   5  10
ATOM      6  C   UNL     1      -0.323  -3.057   2.292  0.00  0.00    +0.047 C 
ATOM      7  C   UNL     1      -0.055  -2.207   1.048  0.00  0.00    +0.135 C 
ATOM      8  C   UNL     1      -1.220  -1.275   0.777  0.00  0.00    +0.251 C 
ATOM      9  O   UNL     1      -2.365  -1.587   0.532  0.00  0.00    -0.272 OA
ATOM     10  N   UNL     1      -0.717  -0.028   0.867  0.00  0.00    -0.215 N 
ATOM     11  C   UNL     1       0.590  -0.042   1.153  0.00  0.00    +0.310 C 
ATOM     12  O   UNL     1       1.264   0.961   1.284  0.00  0.00    -0.252 OA
ATOM     13  N   UNL     1       1.075  -1.291   1.280  0.00  0.00    -0.281 N 
ATOM     14  H   UNL     1       2.073  -1.694   1.506  0.00  0.00    +0.152 HD
BRANCH   7  15
ATOM     15  C   UNL     1       0.211  -3.084  -0.148  0.00  0.00    -0.015 A 
ATOM     16  C   UNL     1      -0.829  -3.447  -0.983  0.00  0.00    +0.009 A 
ATOM     17  C   UNL     1      -0.585  -4.247  -2.083  0.00  0.00    +0.039 A 
ATOM     18  C   UNL     1       0.700  -4.695  -2.342  0.00  0.00    +0.123 A 
ATOM     19  C   UNL     1       1.739  -4.336  -1.501  0.00  0.00    +0.039 A 
ATOM     20  C   UNL     1       1.494  -3.531  -0.405  0.00  0.00    +0.009 A 
ATOM     21  F   UNL     1       0.938  -5.482  -3.414  0.00  0.00    -0.205 F 
ENDBRANCH   7  15
ENDBRANCH   5  10
ENDBRANCH   1   5
BRANCH   3  22
ATOM     22  C   UNL     1      -3.410   3.177   3.329  0.00  0.00    +0.093 C 
BRANCH  22  23
ATOM     23  C   UNL     1      -4.361   4.352   3.097  0.00  0.00    -0.019 C 
BRANCH  23  24
ATOM     24  C   UNL     1      -4.876   4.851   4.423  0.00  0.00    -0.041 A 
ATOM     25  C   UNL     1      -6.050   4.341   4.945  0.00  0.00    +0.003 A 
ATOM     26  C   UNL     1      -6.522   4.799   6.161  0.00  0.00    +0.000 A 
ATOM     27  C   UNL     1      -5.819   5.766   6.856  0.00  0.00    +0.001 A 
ATOM     28  C   UNL     1      -4.645   6.276   6.335  0.00  0.00    +0.020 A 
ATOM     29  C   UNL     1      -4.170   5.815   5.121  0.00  0.00    +0.043 A 
ATOM     30 CL   UNL     1      -2.691   6.450   4.469  0.00  0.00    -0.083 Cl
ENDBRANCH  23  24
BRANCH  23  31
ATOM     31  N   UNL     1      -5.491   3.912   2.268  0.00  0.00    +0.385 N 
ATOM     32  C   UNL     1      -6.533   4.968   2.183  0.00  0.00    -0.078 C 
ATOM     33  C   UNL     1      -7.332   4.577   0.915  0.00  0.00    -0.020 C 
ATOM     34  C   UNL     1      -6.232   4.057  -0.040  0.00  0.00    -0.020 C 
ATOM     35  C   UNL     1      -5.060   3.659   0.876  0.00  0.00    -0.078 C 
ATOM     36  H   UNL     1      -5.874   2.998   2.745  0.00  0.00    -0.081 HD
ENDBRANCH  23  31
ENDBRANCH  22  23
ENDBRANCH   3  22
TORSDOF 7
