REMARK  Name = ZINC10768451
REMARK  5 active torsions:
REMARK  status: ('A' for Active; 'I' for Inactive)
REMARK    1  A    between atoms: C_5  and  S_6
REMARK    2  A    between atoms: S_6  and  N_9
REMARK    3  A    between atoms: C_13  and  C_16
REMARK    4  A    between atoms: N_18  and  C_19
REMARK    5  A    between atoms: C_20  and  C_28
REMARK                            x       y       z     vdW  Elec       q    Type
REMARK                         _______ _______ _______ _____ _____    ______ ____
ROOT
ATOM      1  N   UNL     1       1.366   2.019  -0.000  0.00  0.00    -0.175 NA
ATOM      2  C   UNL     1       2.277   1.541  -1.048  0.00  0.00    +0.109 C 
ATOM      3  C   UNL     1       2.272   0.009  -1.045  0.00  0.00    +0.018 C 
ATOM      4  C   UNL     1       0.834  -0.492  -1.186  0.00  0.00    +0.015 C 
ATOM      5  C   UNL     1       0.002  -0.004   0.002  0.00  0.00    +0.091 C 
ATOM      6  C   UNL     1      -0.019   1.528   0.010  0.00  0.00    +0.122 C 
ENDROOT
BRANCH   5   7
ATOM      7  C   UNL     1      -1.406  -0.525  -0.121  0.00  0.00    +0.222 C 
ATOM      8  O   UNL     1      -2.336   0.250  -0.195  0.00  0.00    -0.275 OA
ATOM      9  N   UNL     1      -1.633  -1.854  -0.149  0.00  0.00    -0.279 N 
ATOM     10  H   UNL     1      -0.890  -2.474  -0.090  0.00  0.00    +0.155 HD
BRANCH   9  11
ATOM     11  C   UNL     1      -2.930  -2.334  -0.263  0.00  0.00    +0.090 A 
ATOM     12  C   UNL     1      -3.360  -3.652  -0.314  0.00  0.00    +0.084 A 
ATOM     13  C   UNL     1      -4.788  -3.889  -0.432  0.00  0.00    -0.018 A 
ATOM     14  C   UNL     1      -5.553  -2.776  -0.490  0.00  0.00    -0.004 A 
ATOM     15  S   UNL     1      -4.405  -1.433  -0.383  0.00  0.00    -0.077 S 
ATOM     16  C   UNL     1      -7.044  -2.711  -0.618  0.00  0.00    +0.043 C 
ATOM     17  C   UNL     1      -7.553  -4.094  -1.051  0.00  0.00    +0.005 C 
ATOM     18  C   UNL     1      -6.904  -5.159  -0.162  0.00  0.00    +0.005 C 
ATOM     19  C   UNL     1      -5.415  -5.276  -0.494  0.00  0.00    +0.037 C 
BRANCH  12  20
ATOM     20  C   UNL     1      -2.430  -4.739  -0.249  0.00  0.00    +0.102 C 
ATOM     21  N   UNL     1      -1.692  -5.601  -0.197  0.00  0.00    -0.191 NA
ENDBRANCH  12  20
ENDBRANCH   9  11
ENDBRANCH   5   7
BRANCH   1  22
ATOM     22  S   UNL     1       1.889   3.092   1.148  0.00  0.00    +0.067 S 
ATOM     23  O   UNL     1       2.997   3.781   0.585  0.00  0.00    -0.152 OA
ATOM     24  O   UNL     1       0.735   3.768   1.628  0.00  0.00    -0.152 OA
BRANCH  22  29
ATOM     25  C   UNL     1       3.775   1.690   2.705  0.00  0.00    +0.038 A 
ATOM     26  C   UNL     1       4.044   0.964   3.850  0.00  0.00    +0.030 A 
ATOM     27  C   UNL     1       3.036   0.720   4.725  0.00  0.00    +0.080 A 
ATOM     28  S   UNL     1       1.658   1.536   3.937  0.00  0.00    -0.057 S 
ATOM     29  C   UNL     1       2.517   2.147   2.496  0.00  0.00    +0.144 A 
ATOM     30 CL   UNL     1       3.076  -0.158   6.222  0.00  0.00    -0.076 Cl
ENDBRANCH  22  29
ENDBRANCH   1  22
TORSDOF 5
