REMARK  Name = ZINC48546777
REMARK  9 active torsions:
REMARK  status: ('A' for Active; 'I' for Inactive)
REMARK    1  A    between atoms: C_1  and  C_2
REMARK    2  A    between atoms: C_2  and  O_4
REMARK    3  A    between atoms: O_4  and  C_5
REMARK    4  A    between atoms: C_11  and  C_37
REMARK    5  A    between atoms: C_20  and  O_36
REMARK    6  A    between atoms: C_21  and  C_35
REMARK    7  A    between atoms: C_25  and  O_27
REMARK    8  A    between atoms: O_27  and  C_28
REMARK    9  A    between atoms: C_28  and  C_30
REMARK                            x       y       z     vdW  Elec       q    Type
REMARK                         _______ _______ _______ _____ _____    ______ ____
ROOT
ATOM      1  C   UNL     1      -1.055  -1.941   0.152  0.00  0.00    +0.183 C 
ATOM      2  C   UNL     1      -1.054  -2.563  -1.262  0.00  0.00    +0.045 C 
ATOM      3  C   UNL     1      -1.881  -3.865  -1.105  0.00  0.00    +0.008 C 
ATOM      4  C   UNL     1      -3.001  -3.429  -0.113  0.00  0.00    +0.002 C 
ATOM      5  C   UNL     1      -2.270  -2.535   0.877  0.00  0.00    +0.008 C 
ATOM      6  C   UNL     1      -3.094  -1.484   1.568  0.00  0.00    +0.011 C 
ATOM      7  C   UNL     1      -4.049  -0.772   0.617  0.00  0.00    +0.005 C 
ATOM      8  C   UNL     1      -4.947  -1.820  -0.048  0.00  0.00    +0.001 C 
ATOM      9  C   UNL     1      -4.093  -2.749  -0.917  0.00  0.00    -0.003 C 
ATOM     10  C   UNL     1      -4.966  -3.799  -1.608  0.00  0.00    +0.007 C 
ATOM     11  C   UNL     1      -6.001  -3.103  -2.493  0.00  0.00    +0.039 C 
ATOM     12  C   UNL     1      -5.827  -1.586  -2.391  0.00  0.00    +0.113 C 
ATOM     13  C   UNL     1      -5.993  -1.112  -0.913  0.00  0.00    +0.004 C 
ATOM     14  C   UNL     1      -5.814   0.402  -0.789  0.00  0.00    +0.015 C 
ATOM     15  C   UNL     1      -6.861   1.111  -1.650  0.00  0.00    +0.069 C 
ATOM     16  C   UNL     1      -6.688   0.692  -3.111  0.00  0.00    +0.210 C 
ATOM     17  C   UNL     1      -6.875  -0.896  -3.268  0.00  0.00    +0.267 C 
ATOM     18  O   UNL     1      -5.376   1.067  -3.563  0.00  0.00    -0.343 OA
ATOM     19  C   UNL     1      -5.560   1.463  -4.944  0.00  0.00    +0.191 C 
ATOM     20  C   UNL     1      -6.950   2.144  -4.895  0.00  0.00    +0.191 C 
ATOM     21  O   UNL     1      -7.665   1.357  -3.921  0.00  0.00    -0.343 OA
ATOM     22  C   UNL     1      -7.395  -1.501  -0.439  0.00  0.00    +0.014 C 
ATOM     23  C   UNL     1      -1.721  -3.446   1.977  0.00  0.00    +0.015 C 
ENDROOT
BRANCH  12  24
ATOM     24  O   UNL     1      -4.519  -1.225  -2.838  0.00  0.00    -0.384 OA
ATOM     25  H   UNL     1      -4.334  -1.472  -3.755  0.00  0.00    +0.210 HD
ENDBRANCH  12  24
BRANCH   1  26
ATOM     26  O   UNL     1      -1.180  -0.520   0.064  0.00  0.00    -0.461 OA
BRANCH  26  28
ATOM     27  C   UNL     1      -0.095   1.694  -0.060  0.00  0.00    +0.136 C 
ATOM     28  C   UNL     1      -0.042   0.191   0.032  0.00  0.00    +0.304 C 
ATOM     29  O   UNL     1       1.025  -0.374   0.076  0.00  0.00    -0.251 OA
ENDBRANCH  26  28
ENDBRANCH   1  26
BRANCH  17  30
ATOM     30  O   UNL     1      -8.183  -1.269  -2.829  0.00  0.00    -0.453 OA
BRANCH  30  31
ATOM     31  C   UNL     1      -9.151  -1.303  -3.759  0.00  0.00    +0.304 C 
ATOM     32  O   UNL     1      -8.896  -1.025  -4.907  0.00  0.00    -0.251 OA
ATOM     33  C   UNL     1     -10.555  -1.688  -3.371  0.00  0.00    +0.136 C 
ENDBRANCH  30  31
ENDBRANCH  17  30
TORSDOF 5
