REMARK  Name = ZINC27520404
REMARK  6 active torsions:
REMARK  status: ('A' for Active; 'I' for Inactive)
REMARK    1  A    between atoms: C_4  and  C_7
REMARK    2  A    between atoms: C_10  and  N_33
REMARK    3  A    between atoms: C_16  and  C_17
REMARK    4  A    between atoms: N_19  and  N_20
REMARK    5  A    between atoms: C_21  and  C_22
REMARK    6  A    between atoms: C_31  and  O_32
REMARK                            x       y       z     vdW  Elec       q    Type
REMARK                         _______ _______ _______ _____ _____    ______ ____
ROOT
ATOM      1  C   UNL     1      -3.742  11.505   0.101  0.00  0.00    +0.020 A 
ATOM      2  C   UNL     1      -5.179  11.794   0.116  0.00  0.00    +0.010 A 
ATOM      3  C   UNL     1      -5.925  12.977   0.130  0.00  0.00    +0.043 A 
ATOM      4  C   UNL     1      -7.289  12.919   0.142  0.00  0.00    +0.127 A 
ATOM      5  C   UNL     1      -7.943  11.694   0.142  0.00  0.00    +0.035 A 
ATOM      6  C   UNL     1      -7.229  10.516   0.129  0.00  0.00    +0.028 A 
ATOM      7  C   UNL     1      -5.837  10.549   0.116  0.00  0.00    +0.048 A 
ATOM      8  N   UNL     1      -4.879   9.560   0.096  0.00  0.00    -0.350 N 
ATOM      9  H   UNL     1      -5.181   8.502   0.085  0.00  0.00    +0.166 HD
ATOM     10  C   UNL     1      -3.621  10.117   0.092  0.00  0.00    +0.112 A 
ENDROOT
BRANCH   1  14
ATOM     11  C   UNL     1      -0.577  14.337   0.087  0.00  0.00    +0.000 A 
ATOM     12  C   UNL     1      -0.762  13.506  -1.004  0.00  0.00    +0.001 A 
ATOM     13  C   UNL     1      -1.788  12.584  -1.007  0.00  0.00    +0.008 A 
ATOM     14  C   UNL     1      -2.642  12.490   0.096  0.00  0.00    -0.015 A 
ATOM     15  C   UNL     1      -2.452  13.336   1.192  0.00  0.00    +0.008 A 
ATOM     16  C   UNL     1      -1.419  14.249   1.183  0.00  0.00    +0.001 A 
ENDBRANCH   1  14
BRANCH  10  17
ATOM     17  C   UNL     1      -2.361   9.373   0.076  0.00  0.00    +0.280 C 
ATOM     18  O   UNL     1      -1.301   9.972   0.069  0.00  0.00    -0.267 OA
ATOM     19  N   UNL     1      -2.374   8.026   0.069  0.00  0.00    -0.202 N 
ATOM     20  H   UNL     1      -3.332   7.485   0.075  0.00  0.00    +0.178 HD
BRANCH  19  21
ATOM     21  N   UNL     1      -1.263   7.370   0.054  0.00  0.00    -0.187 NA
ATOM     22  C   UNL     1      -1.276   6.035   0.047  0.00  0.00    +0.142 C 
BRANCH  22  23
ATOM     23  C   UNL     1      -0.080   5.329   0.032  0.00  0.00    +0.044 A 
ATOM     24  C   UNL     1      -0.074   3.856   0.024  0.00  0.00    -0.006 A 
ATOM     25  C   UNL     1      -1.262   3.132   0.031  0.00  0.00    +0.009 A 
ATOM     26  C   UNL     1      -1.223   1.744   0.017  0.00  0.00    +0.001 A 
ATOM     27  C   UNL     1      -0.013   1.076   0.008  0.00  0.00    +0.001 A 
ATOM     28  C   UNL     1       1.182   1.778   0.000  0.00  0.00    +0.008 A 
ATOM     29  C   UNL     1       1.165   3.178   0.008  0.00  0.00    -0.017 A 
ATOM     30  C   UNL     1       2.409   3.940   0.001  0.00  0.00    +0.012 A 
ATOM     31  C   UNL     1       2.401   5.317   0.008  0.00  0.00    +0.046 A 
ATOM     32  C   UNL     1       1.218   6.038   0.023  0.00  0.00    +0.126 A 
BRANCH  32  33
ATOM     33  O   UNL     1       1.250   7.386   0.030  0.00  0.00    -0.506 OA
ATOM     34  H   UNL     1       2.215   7.913   0.024  0.00  0.00    +0.292 HD
ENDBRANCH  32  33
ENDBRANCH  22  23
ENDBRANCH  19  21
ENDBRANCH  10  17
BRANCH   4  35
ATOM     35  N   UNL     1      -8.077  14.172   0.155  0.00  0.00    +0.056 N 
ATOM     36  O   UNL     1      -9.393  14.123   0.167  0.00  0.00    -0.126 OA
ATOM     37  O   UNL     1      -7.462  15.337   0.155  0.00  0.00    -0.126 OA
ENDBRANCH   4  35
TORSDOF 6
