REMARK  Name = ZINC11998460
REMARK  9 active torsions:
REMARK  status: ('A' for Active; 'I' for Inactive)
REMARK    1  A    between atoms: C_1  and  C_2
REMARK    2  A    between atoms: C_5  and  N_26
REMARK    3  A    between atoms: C_7  and  S_8
REMARK    4  A    between atoms: S_8  and  N_11
REMARK    5  A    between atoms: N_11  and  C_12
REMARK    6  A    between atoms: C_12  and  C_13
REMARK    7  A    between atoms: C_13  and  C_15
REMARK    8  A    between atoms: C_13  and  N_62
REMARK    9  A    between atoms: C_22  and  C_25
REMARK                            x       y       z     vdW  Elec       q    Type
REMARK                         _______ _______ _______ _____ _____    ______ ____
ROOT
ATOM      1  S   UNL     1       0.610   5.850   0.608  0.00  0.00    +0.059 S 
ATOM      2  O   UNL     1      -0.063   6.502   1.676  0.00  0.00    -0.153 OA
ATOM      3  O   UNL     1       1.982   6.079   0.320  0.00  0.00    -0.153 OA
ENDROOT
BRANCH   1  10
ATOM      4  C   UNL     1       1.665   3.720  -1.259  0.00  0.00    +0.046 C 
ATOM      5  C   UNL     1       0.952   3.218  -0.030  0.00  0.00    -0.024 A 
ATOM      6  C   UNL     1       0.821   1.858   0.185  0.00  0.00    +0.007 A 
ATOM      7  C   UNL     1       0.163   1.396   1.308  0.00  0.00    +0.025 A 
ATOM      8  C   UNL     1      -0.358   2.297   2.227  0.00  0.00    +0.061 A 
ATOM      9  C   UNL     1      -0.220   3.662   2.011  0.00  0.00    +0.054 A 
ATOM     10  C   UNL     1       0.434   4.119   0.883  0.00  0.00    +0.110 A 
BRANCH   8  11
ATOM     11  N   UNL     1      -1.020   1.832   3.368  0.00  0.00    -0.144 N 
ATOM     12  C   UNL     1      -1.943   2.502   4.074  0.00  0.00    +0.240 C 
ATOM     13  O   UNL     1      -2.304   3.608   3.729  0.00  0.00    -0.274 OA
ATOM     14  C   UNL     1      -2.522   1.853   5.294  0.00  0.00    +0.122 C 
ATOM     15  C   UNL     1      -2.255   0.326   5.219  0.00  0.00    +0.198 C 
ATOM     16  S   UNL     1      -0.796   0.342   4.098  0.00  0.00    +0.052 S 
ATOM     17  O   UNL     1      -0.941  -0.620   3.063  0.00  0.00    -0.155 OA
ATOM     18  O   UNL     1       0.412   0.455   4.839  0.00  0.00    -0.155 OA
ENDBRANCH   8  11
ENDBRANCH   1  10
BRANCH   1  19
ATOM     19  N   UNL     1      -0.230   6.214  -0.772  0.00  0.00    -0.191 NA
ATOM     20  H   UNL     1       0.238   6.561  -1.548  0.00  0.00    +0.148 HD
BRANCH  19  21
ATOM     21  C   UNL     1      -1.680   6.011  -0.822  0.00  0.00    +0.098 C 
BRANCH  21  22
ATOM     22  C   UNL     1      -2.256   6.744  -2.036  0.00  0.00    +0.015 C 
BRANCH  22  29
ATOM     23  C   UNL     1      -2.324   8.789  -0.743  0.00  0.00    -0.078 C 
ATOM     24  C   UNL     1      -1.775  10.215  -0.658  0.00  0.00    -0.015 C 
ATOM     25  C   UNL     1      -2.261  11.016  -1.869  0.00  0.00    -0.018 C 
ATOM     26  C   UNL     1      -1.810  10.312  -3.152  0.00  0.00    -0.015 C 
ATOM     27  C   UNL     1      -2.358   8.883  -3.164  0.00  0.00    -0.078 C 
ATOM     28  C   UNL     1      -1.666  12.425  -1.822  0.00  0.00    +0.007 C 
ATOM     29  N   UNL     1      -1.833   8.159  -1.987  0.00  0.00    +0.387 N 
ATOM     30  H   UNL     1      -0.808   8.201  -2.000  0.00  0.00    -0.081 HD
ENDBRANCH  22  29
BRANCH  22  31
ATOM     31  C   UNL     1      -3.759   6.638  -2.020  0.00  0.00    +0.093 A 
ATOM     32  C   UNL     1      -4.505   5.894  -2.856  0.00  0.00    +0.043 A 
ATOM     33  C   UNL     1      -5.855   6.091  -2.486  0.00  0.00    +0.041 A 
ATOM     34  C   UNL     1      -5.854   6.944  -1.445  0.00  0.00    +0.195 A 
ATOM     35  O   UNL     1      -4.581   7.267  -1.163  0.00  0.00    -0.469 OA
ENDBRANCH  22  31
ENDBRANCH  21  22
ENDBRANCH  19  21
ENDBRANCH   1  19
TORSDOF 7
