REMARK  Name = ZINC14544250
REMARK  8 active torsions:
REMARK  status: ('A' for Active; 'I' for Inactive)
REMARK    1  A    between atoms: C_1  and  C_2
REMARK    2  A    between atoms: C_6  and  C_40
REMARK    3  A    between atoms: C_7  and  N_8
REMARK    4  A    between atoms: N_8  and  S_9
REMARK    5  A    between atoms: S_9  and  C_12
REMARK    6  A    between atoms: C_25  and  C_28
REMARK    7  A    between atoms: C_37  and  O_38
REMARK    8  A    between atoms: O_38  and  C_39
REMARK                            x       y       z     vdW  Elec       q    Type
REMARK                         _______ _______ _______ _____ _____    ______ ____
ROOT
ATOM      1  C   UNL     1       2.782   1.474   0.666  0.00  0.00    +0.109 A 
ATOM      2  C   UNL     1       2.611   1.551  -0.704  0.00  0.00    +0.030 A 
ATOM      3  C   UNL     1       3.717   1.623  -1.528  0.00  0.00    +0.025 A 
ATOM      4  C   UNL     1       4.994   1.617  -0.980  0.00  0.00    +0.031 A 
ATOM      5  C   UNL     1       5.170   1.536   0.393  0.00  0.00    -0.018 A 
ATOM      6  C   UNL     1       4.050   1.472   1.211  0.00  0.00    +0.034 A 
ATOM      7  C   UNL     1       6.524   1.522   1.027  0.00  0.00    +0.049 C 
ATOM      8  C   UNL     1       6.843   2.846   1.679  0.00  0.00    -0.023 C 
ATOM      9  C   UNL     1       8.114   3.129   1.535  0.00  0.00    -0.030 C 
ATOM     10  C   UNL     1       8.820   2.026   0.771  0.00  0.00    +0.033 C 
ATOM     11  C   UNL     1       7.663   1.316   0.009  0.00  0.00    +0.029 C 
ATOM     12  C   UNL     1       7.384   2.130  -1.258  0.00  0.00    +0.109 C 
ATOM     13  N   UNL     1       6.104   1.696  -1.828  0.00  0.00    -0.336 N 
ATOM     14  H   UNL     1       6.029   1.469  -2.768  0.00  0.00    +0.147 HD
ENDROOT
BRANCH  12  15
ATOM     15  C   UNL     1       7.312   3.595  -0.912  0.00  0.00    +0.022 A 
ATOM     16  C   UNL     1       8.484   4.367  -0.866  0.00  0.00    -0.009 A 
ATOM     17  C   UNL     1       9.741   3.805  -1.151  0.00  0.00    +0.009 A 
ATOM     18  C   UNL     1      10.854   4.585  -1.103  0.00  0.00    +0.001 A 
ATOM     19  C   UNL     1      10.769   5.938  -0.780  0.00  0.00    +0.001 A 
ATOM     20  C   UNL     1       9.570   6.518  -0.504  0.00  0.00    +0.008 A 
ATOM     21  C   UNL     1       8.397   5.745  -0.544  0.00  0.00    -0.017 A 
ATOM     22  C   UNL     1       7.141   6.311  -0.265  0.00  0.00    +0.012 A 
ATOM     23  C   UNL     1       6.026   5.535  -0.313  0.00  0.00    +0.046 A 
ATOM     24  C   UNL     1       6.108   4.177  -0.636  0.00  0.00    +0.126 A 
BRANCH  24  25
ATOM     25  O   UNL     1       4.976   3.427  -0.676  0.00  0.00    -0.495 OA
ATOM     26  C   UNL     1       3.738   4.110  -0.470  0.00  0.00    +0.277 C 
ENDBRANCH  24  25
ENDBRANCH  12  15
BRANCH   1  27
ATOM     27  S   UNL     1       1.374   1.385   1.722  0.00  0.00    +0.072 S 
ATOM     28  O   UNL     1       0.293   1.966   1.007  0.00  0.00    -0.150 OA
ATOM     29  O   UNL     1       1.790   1.861   2.994  0.00  0.00    -0.150 OA
BRANCH  27  30
ATOM     30  N   UNL     1       1.007  -0.219   1.914  0.00  0.00    -0.216 N 
ATOM     31  H   UNL     1       0.138  -0.553   1.643  0.00  0.00    +0.174 HD
BRANCH  30  38
ATOM     32  C   UNL     1       3.079  -1.201   0.230  0.00  0.00    +0.046 C 
ATOM     33  C   UNL     1       2.978  -1.593   1.682  0.00  0.00    -0.028 A 
ATOM     34  C   UNL     1       3.910  -2.450   2.234  0.00  0.00    +0.005 A 
ATOM     35  C   UNL     1       3.814  -2.815   3.564  0.00  0.00    +0.001 A 
ATOM     36  C   UNL     1       2.788  -2.319   4.348  0.00  0.00    +0.005 A 
ATOM     37  C   UNL     1       1.856  -1.458   3.804  0.00  0.00    -0.028 A 
ATOM     38  C   UNL     1       1.949  -1.089   2.468  0.00  0.00    +0.054 A 
ATOM     39  C   UNL     1       0.738  -0.918   4.659  0.00  0.00    +0.046 C 
ENDBRANCH  30  38
ENDBRANCH  27  30
ENDBRANCH   1  27
TORSDOF 5
