REMARK  Name = ZINC36956929
REMARK  4 active torsions:
REMARK  status: ('A' for Active; 'I' for Inactive)
REMARK    1  A    between atoms: C_1  and  C_2
REMARK    2  A    between atoms: C_2  and  C_4
REMARK    3  A    between atoms: C_2  and  N_14
REMARK    4  A    between atoms: N_14  and  C_15
REMARK                            x       y       z     vdW  Elec       q    Type
REMARK                         _______ _______ _______ _____ _____    ______ ____
ROOT
ATOM      1  C   UNL     1      -0.019   1.526   0.010  0.00  0.00    +0.033 C 
ATOM      2  C   UNL     1       0.002  -0.004   0.002  0.00  0.00    +0.098 C 
ENDROOT
BRANCH   2   3
ATOM      3  C   UNL     1      -1.412  -0.526   0.013  0.00  0.00    -0.024 A 
ATOM      4  C   UNL     1      -2.122  -0.570   1.198  0.00  0.00    +0.009 A 
ATOM      5  C   UNL     1      -3.418  -1.049   1.212  0.00  0.00    +0.050 A 
ATOM      6  C   UNL     1      -4.010  -1.486   0.036  0.00  0.00    +0.162 A 
ATOM      7  C   UNL     1      -3.297  -1.439  -1.155  0.00  0.00    +0.162 A 
ATOM      8  C   UNL     1      -1.998  -0.953  -1.163  0.00  0.00    +0.055 A 
ATOM      9  O   UNL     1      -3.862  -1.855  -2.322  0.00  0.00    -0.485 OA
ATOM     10  C   UNL     1      -5.031  -2.675  -2.214  0.00  0.00    +0.270 C 
ATOM     11  C   UNL     1      -5.974  -2.035  -1.187  0.00  0.00    +0.270 C 
ATOM     12  O   UNL     1      -5.286  -1.959   0.067  0.00  0.00    -0.485 OA
ENDBRANCH   2   3
BRANCH   2  13
ATOM     13  N   UNL     1       0.711  -0.489   1.189  0.00  0.00    -0.336 N 
ATOM     14  H   UNL     1       0.213  -0.731   1.986  0.00  0.00    +0.147 HD
BRANCH  13  15
ATOM     15  C   UNL     1       2.104  -0.604   1.173  0.00  0.00    +0.042 A 
ATOM     16  C   UNL     1       2.818  -0.253   0.035  0.00  0.00    +0.025 A 
ATOM     17  C   UNL     1       4.194  -0.366   0.022  0.00  0.00    +0.017 A 
ATOM     18  C   UNL     1       4.862  -0.830   1.142  0.00  0.00    +0.019 A 
ATOM     19  C   UNL     1       4.154  -1.181   2.277  0.00  0.00    +0.032 A 
ATOM     20  C   UNL     1       2.777  -1.064   2.298  0.00  0.00    +0.040 A 
ATOM     21 BR   UNL     1       1.810  -1.536   3.853  0.00  0.00    -0.048 Br
ATOM     22 BR   UNL     1       6.747  -0.985   1.120  0.00  0.00    -0.050 Br
ENDBRANCH  13  15
ENDBRANCH   2  13
TORSDOF 3
