REMARK  Name = ZINC39530322
REMARK  5 active torsions:
REMARK  status: ('A' for Active; 'I' for Inactive)
REMARK    1  A    between atoms: C_4  and  S_7
REMARK    2  A    between atoms: S_7  and  C_10
REMARK    3  A    between atoms: C_12  and  C_24
REMARK    4  A    between atoms: C_15  and  N_16
REMARK    5  A    between atoms: C_29  and  O_30
REMARK                            x       y       z     vdW  Elec       q    Type
REMARK                         _______ _______ _______ _____ _____    ______ ____
ROOT
ATOM      1  C   UNL     1       4.324  -1.231   1.631  0.00  0.00    +0.115 A 
ATOM      2  C   UNL     1       4.431  -2.550   2.017  0.00  0.00    +0.038 A 
ATOM      3  C   UNL     1       4.794  -2.866   3.325  0.00  0.00    -0.012 A 
ATOM      4  C   UNL     1       5.048  -1.846   4.241  0.00  0.00    +0.010 A 
ATOM      5  C   UNL     1       4.940  -0.528   3.852  0.00  0.00    +0.025 A 
ATOM      6  C   UNL     1       4.582  -0.216   2.545  0.00  0.00    +0.055 A 
ENDROOT
BRANCH   6   7
ATOM      7  N   UNL     1       4.479   1.120   2.151  0.00  0.00    -0.330 N 
ATOM      8  C   UNL     1       3.231   1.873   2.352  0.00  0.00    +0.086 C 
ATOM      9  C   UNL     1       3.569   3.195   3.047  0.00  0.00    -0.060 C 
ATOM     10  N   UNL     1       4.589   3.910   2.270  0.00  0.00    +0.400 N 
ATOM     11  C   UNL     1       5.839   3.139   2.257  0.00  0.00    +0.119 C 
ATOM     12  C   UNL     1       5.615   1.815   1.528  0.00  0.00    +0.120 C 
ATOM     13  O   UNL     1       6.854   3.889   1.587  0.00  0.00    -0.250 OA
ATOM     14  H   UNL     1       4.263   4.034   1.323  0.00  0.00    -0.082 HD
ATOM     15  H   UNL     1       4.756   4.813   2.686  0.00  0.00    -0.082 HD
ENDBRANCH   6   7
BRANCH   3  16
ATOM     16  C   UNL     1       4.910  -4.284   3.743  0.00  0.00    +0.024 A 
ATOM     17  C   UNL     1       3.879  -5.181   3.468  0.00  0.00    +0.012 A 
ATOM     18  C   UNL     1       3.992  -6.500   3.858  0.00  0.00    +0.001 A 
ATOM     19  C   UNL     1       5.125  -6.936   4.522  0.00  0.00    +0.004 A 
ATOM     20  C   UNL     1       6.152  -6.055   4.800  0.00  0.00    +0.046 A 
ATOM     21  C   UNL     1       6.056  -4.729   4.408  0.00  0.00    +0.125 A 
BRANCH  21  22
ATOM     22  O   UNL     1       7.068  -3.864   4.676  0.00  0.00    -0.506 OA
ATOM     23  H   UNL     1       6.987  -3.415   5.529  0.00  0.00    +0.292 HD
ENDBRANCH  21  22
ENDBRANCH   3  16
BRANCH   1  24
ATOM     24  S   UNL     1       3.865  -0.832  -0.022  0.00  0.00    +0.027 S 
ATOM     25  O   UNL     1       3.642   0.572  -0.054  0.00  0.00    -0.164 OA
ATOM     26  O   UNL     1       2.869  -1.770  -0.406  0.00  0.00    -0.164 OA
BRANCH  24  30
ATOM     27  C   UNL     1       7.469  -1.629  -2.643  0.00  0.00    +0.000 A 
ATOM     28  C   UNL     1       6.614  -2.663  -2.310  0.00  0.00    +0.002 A 
ATOM     29  C   UNL     1       5.513  -2.419  -1.510  0.00  0.00    +0.027 A 
ATOM     30  C   UNL     1       5.269  -1.142  -1.042  0.00  0.00    +0.094 A 
ATOM     31  C   UNL     1       6.124  -0.108  -1.373  0.00  0.00    +0.027 A 
ATOM     32  C   UNL     1       7.224  -0.351  -2.174  0.00  0.00    +0.002 A 
ENDBRANCH  24  30
ENDBRANCH   1  24
TORSDOF 5
