REMARK  Name = ZINC67411620
REMARK  11 active torsions:
REMARK  status: ('A' for Active; 'I' for Inactive)
REMARK    1  A    between atoms: C_1  and  C_2
REMARK    2  A    between atoms: N_5  and  C_8
REMARK    3  A    between atoms: C_8  and  C_10
REMARK    4  A    between atoms: C_8  and  C_11
REMARK    5  A    between atoms: C_11  and  N_12
REMARK    6  A    between atoms: N_15  and  C_16
REMARK    7  A    between atoms: N_15  and  C_26
REMARK    8  A    between atoms: C_16  and  C_17
REMARK    9  A    between atoms: C_20  and  O_25
REMARK   10  A    between atoms: C_21  and  O_23
REMARK   11  A    between atoms: O_23  and  C_24
REMARK                            x       y       z     vdW  Elec       q    Type
REMARK                         _______ _______ _______ _____ _____    ______ ____
ROOT
ATOM      1  N   UNL     1       1.244  -3.616   2.800  0.00  0.00    -0.301 N 
ATOM      2  C   UNL     1       2.077  -3.828   3.838  0.00  0.00    +0.303 C 
ATOM      3  O   UNL     1       1.692  -4.450   4.809  0.00  0.00    -0.253 OA
ATOM      4  N   UNL     1       3.337  -3.350   3.800  0.00  0.00    -0.278 N 
ATOM      5  H   UNL     1       1.526  -3.058   2.058  0.00  0.00    +0.150 HD
ENDROOT
BRANCH   4   6
ATOM      6  C   UNL     1       4.283  -3.693   4.865  0.00  0.00    +0.078 C 
ATOM      7  C   UNL     1       3.926  -4.870   5.774  0.00  0.00    +0.024 C 
ATOM      8  C   UNL     1       3.844  -3.439   6.308  0.00  0.00    +0.024 C 
ENDBRANCH   4   6
BRANCH   1   9
ATOM      9  C   UNL     1      -0.087  -4.228   2.791  0.00  0.00    +0.090 C 
BRANCH   9  10
ATOM     10  C   UNL     1      -0.774  -3.935   1.456  0.00  0.00    -0.054 C 
ATOM     11  C   UNL     1       0.002  -4.610   0.324  0.00  0.00    -0.012 C 
BRANCH  10  16
ATOM     12  C   UNL     1      -6.406  -4.834   1.470  0.00  0.00    +0.007 C 
ATOM     13  C   UNL     1      -5.029  -4.169   1.425  0.00  0.00    -0.018 C 
ATOM     14  C   UNL     1      -4.236  -4.712   0.233  0.00  0.00    -0.016 C 
ATOM     15  C   UNL     1      -2.833  -4.102   0.240  0.00  0.00    -0.078 C 
ATOM     16  N   UNL     1      -2.147  -4.457   1.488  0.00  0.00    +0.382 N 
ATOM     17  C   UNL     1      -2.863  -3.878   2.631  0.00  0.00    -0.078 C 
ATOM     18  C   UNL     1      -4.267  -4.480   2.716  0.00  0.00    -0.016 C 
ATOM     19  H   UNL     1      -2.121  -5.461   1.582  0.00  0.00    -0.081 HD
ENDBRANCH  10  16
ENDBRANCH   9  10
ENDBRANCH   1   9
BRANCH   4  20
ATOM     20  C   UNL     1       3.760  -2.488   2.693  0.00  0.00    +0.144 C 
BRANCH  20  21
ATOM     21  C   UNL     1       3.494  -1.048   3.048  0.00  0.00    -0.026 A 
ATOM     22  C   UNL     1       2.276  -0.474   2.732  0.00  0.00    +0.009 A 
ATOM     23  C   UNL     1       2.027   0.847   3.055  0.00  0.00    +0.049 A 
ATOM     24  C   UNL     1       2.998   1.598   3.698  0.00  0.00    +0.158 A 
ATOM     25  C   UNL     1       4.223   1.020   4.016  0.00  0.00    +0.162 A 
ATOM     26  C   UNL     1       4.465  -0.306   3.693  0.00  0.00    +0.054 A 
BRANCH  25  27
ATOM     27  O   UNL     1       5.179   1.753   4.646  0.00  0.00    -0.491 OA
ATOM     28  C   UNL     1       6.412   1.094   4.942  0.00  0.00    +0.277 C 
ENDBRANCH  25  27
BRANCH  24  29
ATOM     29  O   UNL     1       2.754   2.897   4.016  0.00  0.00    -0.503 OA
ATOM     30  H   UNL     1       2.361   3.021   4.891  0.00  0.00    +0.292 HD
ENDBRANCH  24  29
ENDBRANCH  20  21
ENDBRANCH   4  20
TORSDOF 8
