REMARK  Name = ZINC19321229
REMARK  10 active torsions:
REMARK  status: ('A' for Active; 'I' for Inactive)
REMARK    1  A    between atoms: C_1  and  C_2
REMARK    2  A    between atoms: C_2  and  C_3
REMARK    3  A    between atoms: C_2  and  C_4
REMARK    4  A    between atoms: C_2  and  C_5
REMARK    5  A    between atoms: C_9  and  C_12
REMARK    6  A    between atoms: C_10  and  O_11
REMARK    7  A    between atoms: N_13  and  C_24
REMARK    8  A    between atoms: N_16  and  C_17
REMARK    9  A    between atoms: C_17  and  C_18
REMARK   10  A    between atoms: C_24  and  C_25
REMARK                            x       y       z     vdW  Elec       q    Type
REMARK                         _______ _______ _______ _____ _____    ______ ____
ROOT
ATOM      1  C   UNL     1       1.459  -3.926  -3.166  0.00  0.00    -0.096 C 
ATOM      2  N   UNL     1       1.704  -4.570  -1.857  0.00  0.00    +0.376 N 
ATOM      3  C   UNL     1       2.757  -5.585  -2.130  0.00  0.00    -0.099 C 
ATOM      4  C   UNL     1       3.645  -4.862  -3.172  0.00  0.00    -0.099 C 
ATOM      5  N   UNL     1       2.671  -4.101  -3.990  0.00  0.00    +0.376 N 
ATOM      6  H   UNL     1       2.035  -3.891  -1.188  0.00  0.00    -0.083 HD
ATOM      7  H   UNL     1       2.446  -4.618  -4.827  0.00  0.00    -0.083 HD
ENDROOT
BRANCH   1  12
ATOM      8  C   UNL     1       0.191  -0.406  -3.727  0.00  0.00    +0.001 A 
ATOM      9  C   UNL     1       0.679   0.240  -2.607  0.00  0.00    +0.023 A 
ATOM     10  C   UNL     1       1.418  -0.459  -1.670  0.00  0.00    +0.019 A 
ATOM     11  C   UNL     1       1.670  -1.807  -1.852  0.00  0.00    +0.019 A 
ATOM     12  C   UNL     1       1.184  -2.458  -2.969  0.00  0.00    -0.034 A 
ATOM     13  C   UNL     1       0.438  -1.759  -3.907  0.00  0.00    +0.120 A 
ATOM     14 BR   UNL     1       2.085   0.429  -0.140  0.00  0.00    -0.050 Br
BRANCH   8  16
ATOM     15  C   UNL     1      -0.738   1.817  -4.311  0.00  0.00    +0.015 C 
ATOM     16  C   UNL     1      -0.614   0.356  -4.747  0.00  0.00    -0.009 C 
ATOM     17  C   UNL     1      -2.009  -0.262  -4.861  0.00  0.00    +0.015 C 
ATOM     18  C   UNL     1       0.087   0.287  -6.105  0.00  0.00    +0.015 C 
ENDBRANCH   8  16
BRANCH  13  19
ATOM     19  O   UNL     1      -0.045  -2.399  -5.005  0.00  0.00    -0.506 OA
ATOM     20  H   UNL     1       0.587  -2.463  -5.733  0.00  0.00    +0.292 HD
ENDBRANCH  13  19
ENDBRANCH   1  12
BRANCH   5  21
ATOM     21  C   UNL     1       3.230  -2.789  -4.342  0.00  0.00    -0.045 C 
BRANCH  21  22
ATOM     22  C   UNL     1       4.396  -2.975  -5.278  0.00  0.00    -0.064 A 
ATOM     23  C   UNL     1       5.672  -3.130  -4.770  0.00  0.00    +0.002 A 
ATOM     24  C   UNL     1       6.742  -3.301  -5.629  0.00  0.00    +0.000 A 
ATOM     25  C   UNL     1       6.536  -3.317  -6.995  0.00  0.00    +0.000 A 
ATOM     26  C   UNL     1       5.260  -3.163  -7.504  0.00  0.00    +0.000 A 
ATOM     27  C   UNL     1       4.189  -2.996  -6.645  0.00  0.00    +0.002 A 
ENDBRANCH  21  22
ENDBRANCH   5  21
BRANCH   2  28
ATOM     28  C   UNL     1       0.480  -5.219  -1.369  0.00  0.00    -0.045 C 
BRANCH  28  29
ATOM     29  C   UNL     1       0.713  -5.747   0.024  0.00  0.00    -0.064 A 
ATOM     30  C   UNL     1       1.195  -7.029   0.206  0.00  0.00    +0.002 A 
ATOM     31  C   UNL     1       1.409  -7.513   1.483  0.00  0.00    +0.000 A 
ATOM     32  C   UNL     1       1.139  -6.714   2.578  0.00  0.00    +0.000 A 
ATOM     33  C   UNL     1       0.657  -5.431   2.397  0.00  0.00    +0.000 A 
ATOM     34  C   UNL     1       0.448  -4.946   1.119  0.00  0.00    +0.002 A 
ENDBRANCH  28  29
ENDBRANCH   2  28
TORSDOF 7
