REMARK  Name = ZINC62129994
REMARK  6 active torsions:
REMARK  status: ('A' for Active; 'I' for Inactive)
REMARK    1  A    between atoms: C_1  and  C_2
REMARK    2  A    between atoms: C_2  and  C_3
REMARK    3  A    between atoms: C_2  and  C_4
REMARK    4  A    between atoms: N_8  and  C_9
REMARK    5  A    between atoms: C_9  and  C_10
REMARK    6  A    between atoms: C_16  and  C_18
REMARK                            x       y       z     vdW  Elec       q    Type
REMARK                         _______ _______ _______ _____ _____    ______ ____
ROOT
ATOM      1  C   UNL     1      -0.773  -4.018  -0.346  0.00  0.00    +0.012 C 
ATOM      2  C   UNL     1       0.327  -3.405   0.523  0.00  0.00    +0.024 C 
ATOM      3  C   UNL     1       1.161  -4.526   1.151  0.00  0.00    +0.108 C 
ATOM      4  N   UNL     1       1.656  -5.403   0.081  0.00  0.00    -0.301 N 
ATOM      5  C   UNL     1       0.690  -5.974  -0.868  0.00  0.00    +0.108 C 
ATOM      6  C   UNL     1      -0.139  -4.837  -1.472  0.00  0.00    +0.024 C 
ATOM      7  C   UNL     1       2.971  -5.677  -0.029  0.00  0.00    +0.222 C 
ATOM      8  O   UNL     1       3.378  -6.327  -0.969  0.00  0.00    -0.275 OA
ENDROOT
BRANCH   7   9
ATOM      9  C   UNL     1       3.935  -5.178   1.016  0.00  0.00    +0.048 C 
ATOM     10  C   UNL     1       3.996  -3.650   0.965  0.00  0.00    +0.019 C 
ATOM     11  C   UNL     1       4.975  -3.143   2.026  0.00  0.00    -0.009 C 
ATOM     12  C   UNL     1       6.366  -3.719   1.753  0.00  0.00    +0.007 C 
ATOM     13  C   UNL     1       6.304  -5.247   1.805  0.00  0.00    -0.009 C 
ATOM     14  C   UNL     1       5.326  -5.754   0.744  0.00  0.00    +0.019 C 
ATOM     15  C   UNL     1       5.831  -5.692   3.190  0.00  0.00    +0.007 C 
ATOM     16  C   UNL     1       4.440  -5.116   3.462  0.00  0.00    -0.009 C 
ATOM     17  C   UNL     1       4.501  -3.588   3.411  0.00  0.00    +0.007 C 
ATOM     18  C   UNL     1       3.461  -5.623   2.401  0.00  0.00    +0.019 C 
ENDBRANCH   7   9
BRANCH   1  19
ATOM     19  C   UNL     1      -1.630  -2.902  -0.947  0.00  0.00    +0.126 C 
BRANCH  19  24
ATOM     20  C   UNL     1      -3.447  -2.582   0.760  0.00  0.00    +0.090 A 
ATOM     21  N   UNL     1      -3.759  -1.689   1.659  0.00  0.00    -0.349 N 
ATOM     22  C   UNL     1      -2.856  -0.697   1.629  0.00  0.00    +0.101 A 
ATOM     23  C   UNL     1      -1.950  -0.987   0.676  0.00  0.00    +0.104 A 
ATOM     24  N   UNL     1      -2.322  -2.185   0.128  0.00  0.00    -0.335 N 
ATOM     25  H   UNL     1      -4.523  -1.734   2.255  0.00  0.00    +0.166 HD
BRANCH  20  27
ATOM     26  C   UNL     1      -4.763  -4.414   1.791  0.00  0.00    +0.015 C 
ATOM     27  C   UNL     1      -4.213  -3.849   0.479  0.00  0.00    +0.047 C 
ATOM     28  C   UNL     1      -5.373  -3.544  -0.471  0.00  0.00    +0.015 C 
ENDBRANCH  20  27
ENDBRANCH  19  24
ENDBRANCH   1  19
TORSDOF 4
