REMARK  Name = ZINC15071654
REMARK  9 active torsions:
REMARK  status: ('A' for Active; 'I' for Inactive)
REMARK    1  A    between atoms: C_3  and  C_6
REMARK    2  A    between atoms: C_7  and  C_8
REMARK    3  A    between atoms: C_8  and  N_71
REMARK    4  A    between atoms: C_11  and  C_14
REMARK    5  A    between atoms: C_17  and  S_26
REMARK    6  A    between atoms: N_18  and  C_19
REMARK    7  A    between atoms: C_19  and  C_20
REMARK    8  A    between atoms: S_26  and  C_27
REMARK    9  A    between atoms: C_27  and  C_28
REMARK                            x       y       z     vdW  Elec       q    Type
REMARK                         _______ _______ _______ _____ _____    ______ ____
ROOT
ATOM      1  C   UNL     1      -0.503   2.743  -1.849  0.00  0.00    +0.137 A 
ATOM      2  N   UNL     1      -1.346   2.785  -2.842  0.00  0.00    -0.133 NA
ATOM      3  N   UNL     1      -2.076   1.727  -2.846  0.00  0.00    -0.122 NA
ATOM      4  C   UNL     1      -1.732   0.944  -1.849  0.00  0.00    +0.192 A 
ATOM      5  N   UNL     1      -0.721   1.571  -1.179  0.00  0.00    -0.303 N 
ENDROOT
BRANCH   1   8
ATOM      6  C   UNL     1       2.485   5.084  -2.347  0.00  0.00    -0.078 C 
ATOM      7  C   UNL     1       1.484   3.975  -2.680  0.00  0.00    -0.008 C 
ATOM      8  C   UNL     1       0.522   3.792  -1.503  0.00  0.00    +0.054 C 
ATOM      9  C   UNL     1      -0.183   5.121  -1.217  0.00  0.00    -0.008 C 
ATOM     10  C   UNL     1       0.866   6.197  -0.928  0.00  0.00    -0.078 C 
ATOM     11  N   UNL     1       1.745   6.342  -2.108  0.00  0.00    +0.382 N 
ATOM     12  H   UNL     1       1.167   6.550  -2.930  0.00  0.00    -0.081 HD
BRANCH  11  13
ATOM     13  C   UNL     1       2.696   7.453  -1.896  0.00  0.00    -0.051 C 
BRANCH  13  15
ATOM     14  C   UNL     1       2.055   9.580  -0.843  0.00  0.00    +0.040 C 
ATOM     15  C   UNL     1       1.928   8.750  -1.874  0.00  0.00    -0.042 C 
BRANCH  14  18
ATOM     16  C   UNL     1       0.479  12.821  -0.223  0.00  0.00    +0.042 A 
ATOM     17  C   UNL     1       1.341  11.779   0.171  0.00  0.00    +0.049 A 
ATOM     18  C   UNL     1       1.306  10.846  -0.821  0.00  0.00    +0.127 A 
ATOM     19  O   UNL     1       0.462  11.282  -1.777  0.00  0.00    -0.464 OA
ATOM     20  C   UNL     1      -0.039  12.475  -1.418  0.00  0.00    +0.195 A 
ENDBRANCH  14  18
ENDBRANCH  13  15
ENDBRANCH  11  13
ENDBRANCH   1   8
BRANCH   5  21
ATOM     21  C   UNL     1      -0.013   1.086   0.008  0.00  0.00    +0.157 C 
BRANCH  21  22
ATOM     22  C   UNL     1      -0.729   1.579   1.267  0.00  0.00    +0.138 C 
ATOM     23  C   UNL     1       0.074   1.170   2.520  0.00  0.00    +0.035 C 
ATOM     24  C   UNL     1      -1.050   0.776   3.518  0.00  0.00    +0.031 C 
ATOM     25  C   UNL     1      -2.099   0.169   2.553  0.00  0.00    +0.160 C 
ATOM     26  O   UNL     1      -2.021   0.968   1.362  0.00  0.00    -0.375 OA
ENDBRANCH  21  22
ENDBRANCH   5  21
BRANCH   4  27
ATOM     27  S   UNL     1      -2.443  -0.618  -1.450  0.00  0.00    -0.086 S 
BRANCH  27  28
ATOM     28  C   UNL     1      -3.680  -0.745  -2.766  0.00  0.00    +0.081 C 
BRANCH  28  29
ATOM     29  C   UNL     1      -4.445  -2.062  -2.620  0.00  0.00    -0.001 C 
ATOM     30  C   UNL     1      -3.490  -3.235  -2.848  0.00  0.00    +0.004 C 
ATOM     31  C   UNL     1      -4.256  -4.552  -2.702  0.00  0.00    +0.000 C 
ATOM     32  C   UNL     1      -5.382  -4.604  -3.736  0.00  0.00    +0.000 C 
ATOM     33  C   UNL     1      -6.337  -3.431  -3.509  0.00  0.00    +0.000 C 
ATOM     34  C   UNL     1      -5.572  -2.114  -3.655  0.00  0.00    +0.004 C 
ENDBRANCH  28  29
ENDBRANCH  27  28
ENDBRANCH   4  27
TORSDOF 9
