REMARK  Name = ZINC21934666
REMARK  10 active torsions:
REMARK  status: ('A' for Active; 'I' for Inactive)
REMARK    1  A    between atoms: C_7  and  C_17
REMARK    2  A    between atoms: C_9  and  C_11
REMARK    3  A    between atoms: N_19  and  C_20
REMARK    4  A    between atoms: C_20  and  C_21
REMARK    5  A    between atoms: C_21  and  C_22
REMARK    6  A    between atoms: C_22  and  N_23
REMARK    7  A    between atoms: N_23  and  C_24
REMARK    8  A    between atoms: N_23  and  C_30
REMARK    9  A    between atoms: C_24  and  C_25
REMARK   10  A    between atoms: C_30  and  C_31
REMARK                            x       y       z     vdW  Elec       q    Type
REMARK                         _______ _______ _______ _____ _____    ______ ____
ROOT
ATOM      1  C   UNL     1      -7.889   0.925  -6.790  0.00  0.00    +0.245 C 
ATOM      2  O   UNL     1      -8.789   0.183  -6.451  0.00  0.00    -0.270 OA
ATOM      3  N   UNL     1      -6.976   1.334  -5.886  0.00  0.00    -0.311 N 
ATOM      4  H   UNL     1      -6.161   2.006  -6.192  0.00  0.00    +0.149 HD
ENDROOT
BRANCH   1  11
ATOM      5  C   UNL     1     -10.880   0.019  -9.702  0.00  0.00    +0.001 A 
ATOM      6  C   UNL     1     -10.754   0.467 -11.016  0.00  0.00    +0.002 A 
ATOM      7  C   UNL     1      -9.677   1.202 -11.405  0.00  0.00    +0.028 A 
ATOM      8  C   UNL     1      -8.673   1.520 -10.472  0.00  0.00    +0.072 A 
ATOM      9  C   UNL     1      -8.803   1.058  -9.138  0.00  0.00    +0.013 A 
ATOM     10  C   UNL     1      -9.927   0.306  -8.771  0.00  0.00    +0.011 A 
ATOM     11  C   UNL     1      -7.794   1.381  -8.194  0.00  0.00    +0.048 A 
ATOM     12  C   UNL     1      -6.714   2.133  -8.630  0.00  0.00    +0.042 A 
ATOM     13  C   UNL     1      -6.657   2.547  -9.970  0.00  0.00    +0.074 A 
ATOM     14  N   UNL     1      -7.608   2.240 -10.830  0.00  0.00    -0.247 NA
BRANCH  13  15
ATOM     15  C   UNL     1      -5.499   3.351 -10.430  0.00  0.00    +0.018 A 
ATOM     16  C   UNL     1      -5.414   3.779 -11.758  0.00  0.00    +0.013 A 
ATOM     17  C   UNL     1      -4.313   4.527 -12.137  0.00  0.00    +0.020 A 
ATOM     18  C   UNL     1      -3.341   4.824 -11.198  0.00  0.00    +0.111 A 
ATOM     19  N   UNL     1      -3.449   4.407  -9.952  0.00  0.00    -0.263 NA
ATOM     20  C   UNL     1      -4.481   3.697  -9.543  0.00  0.00    +0.120 A 
ENDBRANCH  13  15
ENDBRANCH   1  11
BRANCH   3  21
ATOM     21  C   UNL     1      -7.070   0.883  -4.495  0.00  0.00    +0.102 C 
BRANCH  21  22
ATOM     22  C   UNL     1      -5.922   1.487  -3.685  0.00  0.00    +0.000 C 
BRANCH  22  23
ATOM     23  C   UNL     1      -6.020   1.016  -2.232  0.00  0.00    -0.077 C 
BRANCH  23  24
ATOM     24  N   UNL     1      -4.917   1.596  -1.454  0.00  0.00    +0.384 N 
ATOM     25  H   UNL     1      -4.947   2.687  -1.587  0.00  0.00    -0.081 HD
BRANCH  24  26
ATOM     26  C   UNL     1      -5.078   1.312  -0.022  0.00  0.00    -0.036 C 
BRANCH  26  27
ATOM     27  C   UNL     1      -4.110   2.154   0.769  0.00  0.00    -0.027 A 
ATOM     28  C   UNL     1      -4.288   3.388   1.300  0.00  0.00    +0.009 A 
ATOM     29  C   UNL     1      -3.249   3.974   1.998  0.00  0.00    +0.008 A 
ATOM     30  C   UNL     1      -2.079   3.302   2.122  0.00  0.00    +0.045 A 
ATOM     31  S   UNL     1      -2.428   1.788   1.242  0.00  0.00    -0.103 S 
ENDBRANCH  26  27
ENDBRANCH  24  26
BRANCH  24  32
ATOM     32  C   UNL     1      -3.618   1.116  -1.943  0.00  0.00    -0.046 C 
BRANCH  32  33
ATOM     33  C   UNL     1      -3.493  -0.385  -1.673  0.00  0.00    +0.102 C 
ATOM     34  C   UNL     1      -2.074  -0.866  -2.033  0.00  0.00    +0.032 C 
ATOM     35  C   UNL     1      -2.305  -1.960  -3.103  0.00  0.00    +0.030 C 
ATOM     36  C   UNL     1      -3.780  -2.362  -2.846  0.00  0.00    +0.160 C 
ATOM     37  O   UNL     1      -4.414  -1.109  -2.505  0.00  0.00    -0.378 OA
ENDBRANCH  32  33
ENDBRANCH  24  32
ENDBRANCH  23  24
ENDBRANCH  22  23
ENDBRANCH  21  22
ENDBRANCH   3  21
TORSDOF 10
