REMARK  Name = ZINC09365491
REMARK  13 active torsions:
REMARK  status: ('A' for Active; 'I' for Inactive)
REMARK    1  A    between atoms: C_1  and  C_2
REMARK    2  A    between atoms: C_4  and  C_33
REMARK    3  A    between atoms: C_6  and  N_8
REMARK    4  A    between atoms: C_9  and  C_11
REMARK    5  A    between atoms: C_11  and  S_12
REMARK    6  A    between atoms: S_12  and  C_13
REMARK    7  A    between atoms: C_19  and  C_21
REMARK    8  A    between atoms: C_23  and  O_31
REMARK    9  A    between atoms: C_24  and  O_29
REMARK   10  A    between atoms: C_25  and  O_27
REMARK   11  A    between atoms: O_27  and  C_28
REMARK   12  A    between atoms: O_29  and  C_30
REMARK   13  A    between atoms: O_31  and  C_32
REMARK                            x       y       z     vdW  Elec       q    Type
REMARK                         _______ _______ _______ _____ _____    ______ ____
ROOT
ATOM      1  C   UNL     1       2.890  -6.864   0.319  0.00  0.00    +0.160 A 
ATOM      2  N   UNL     1       1.687  -6.330   0.171  0.00  0.00    -0.133 NA
ATOM      3  N   UNL     1       1.506  -5.082   0.183  0.00  0.00    -0.125 NA
ATOM      4  C   UNL     1       2.506  -4.229   0.344  0.00  0.00    +0.189 A 
ATOM      5  S   UNL     1       3.873  -5.377   0.489  0.00  0.00    -0.024 S 
ATOM      6  N   UNL     1       2.497  -2.838   0.384  0.00  0.00    -0.259 N 
ATOM      7  C   UNL     1       1.337  -2.167   0.246  0.00  0.00    +0.250 C 
ATOM      8  O   UNL     1       0.297  -2.777   0.087  0.00  0.00    -0.270 OA
ATOM      9  H   UNL     1       3.327  -2.352   0.511  0.00  0.00    +0.157 HD
ENDROOT
BRANCH   7  10
ATOM     10  C   UNL     1       1.328  -0.692   0.288  0.00  0.00    +0.044 A 
ATOM     11  C   UNL     1       0.126   0.005   0.145  0.00  0.00    +0.062 A 
ATOM     12  C   UNL     1       0.120   1.387   0.185  0.00  0.00    +0.166 A 
ATOM     13  C   UNL     1       1.312   2.084   0.368  0.00  0.00    +0.204 A 
ATOM     14  C   UNL     1       2.511   1.392   0.510  0.00  0.00    +0.166 A 
ATOM     15  C   UNL     1       2.522   0.010   0.471  0.00  0.00    +0.062 A 
BRANCH  14  16
ATOM     16  O   UNL     1       3.674   2.075   0.688  0.00  0.00    -0.491 OA
ATOM     17  C   UNL     1       4.867   1.302   0.827  0.00  0.00    +0.277 C 
ENDBRANCH  14  16
BRANCH  13  18
ATOM     18  O   UNL     1       1.304   3.442   0.406  0.00  0.00    -0.488 OA
ATOM     19  C   UNL     1       1.128   4.054   1.686  0.00  0.00    +0.277 C 
ENDBRANCH  13  18
BRANCH  12  20
ATOM     20  O   UNL     1      -1.049   2.066   0.041  0.00  0.00    -0.491 OA
ATOM     21  C   UNL     1      -2.232   1.288  -0.149  0.00  0.00    +0.277 C 
ENDBRANCH  12  20
ENDBRANCH   7  10
BRANCH   1  22
ATOM     22  S   UNL     1       3.384  -8.556   0.337  0.00  0.00    -0.088 S 
BRANCH  22  23
ATOM     23  C   UNL     1       1.834  -9.468   0.100  0.00  0.00    +0.172 C 
BRANCH  23  25
ATOM     24  N   UNL     1       1.109 -11.827  -0.068  0.00  0.00    -0.285 N 
ATOM     25  C   UNL     1       2.117 -10.948   0.095  0.00  0.00    +0.227 C 
ATOM     26  O   UNL     1       3.253 -11.348   0.238  0.00  0.00    -0.275 OA
ATOM     27  H   UNL     1       0.192 -11.512  -0.105  0.00  0.00    +0.155 HD
BRANCH  24  33
ATOM     28  C   UNL     1      -0.207 -16.492   0.754  0.00  0.00    +0.044 C 
ATOM     29  C   UNL     1       0.763 -15.477   0.206  0.00  0.00    -0.048 A 
ATOM     30  C   UNL     1       1.927 -15.897  -0.410  0.00  0.00    +0.006 A 
ATOM     31  C   UNL     1       2.820 -14.969  -0.914  0.00  0.00    -0.048 A 
ATOM     32  C   UNL     1       2.552 -13.619  -0.802  0.00  0.00    +0.026 A 
ATOM     33  C   UNL     1       1.384 -13.194  -0.183  0.00  0.00    +0.034 A 
ATOM     34  C   UNL     1       0.492 -14.128   0.327  0.00  0.00    +0.026 A 
ATOM     35  C   UNL     1       4.087 -15.431  -1.586  0.00  0.00    +0.044 C 
ENDBRANCH  24  33
ENDBRANCH  23  25
ENDBRANCH  22  23
ENDBRANCH   1  22
TORSDOF 8
