REMARK  Name = ZINC12300163
REMARK  6 active torsions:
REMARK  status: ('A' for Active; 'I' for Inactive)
REMARK    1  A    between atoms: C_1  and  N_2
REMARK    2  A    between atoms: C_10  and  C_11
REMARK    3  A    between atoms: C_25  and  C_26
REMARK    4  A    between atoms: C_25  and  N_55
REMARK    5  A    between atoms: C_29  and  C_31
REMARK    6  A    between atoms: C_31  and  O_32
REMARK                            x       y       z     vdW  Elec       q    Type
REMARK                         _______ _______ _______ _____ _____    ______ ____
ROOT
ATOM      1  C   UNL     1      -4.809   2.526   0.061  0.00  0.00    +0.048 C 
ATOM      2  C   UNL     1      -5.296   2.897   1.442  0.00  0.00    +0.014 A 
ATOM      3  C   UNL     1      -6.297   3.781   1.658  0.00  0.00    -0.022 A 
ATOM      4  C   UNL     1      -6.477   3.881   3.089  0.00  0.00    +0.003 A 
ATOM      5  C   UNL     1      -7.349   4.627   3.888  0.00  0.00    +0.010 A 
ATOM      6  C   UNL     1      -7.237   4.467   5.247  0.00  0.00    +0.001 A 
ATOM      7  C   UNL     1      -6.308   3.610   5.814  0.00  0.00    +0.002 A 
ATOM      8  C   UNL     1      -5.432   2.861   5.048  0.00  0.00    +0.026 A 
ATOM      9  C   UNL     1      -5.523   3.002   3.664  0.00  0.00    +0.047 A 
ATOM     10  N   UNL     1      -4.829   2.426   2.639  0.00  0.00    -0.359 N 
ATOM     11  H   UNL     1      -4.112   1.781   2.743  0.00  0.00    +0.166 HD
ATOM     12  C   UNL     1      -7.037   4.486   0.549  0.00  0.00    +0.019 C 
ATOM     13  C   UNL     1      -6.742   3.747  -0.763  0.00  0.00    -0.072 C 
ATOM     14  N   UNL     1      -5.278   3.566  -0.886  0.00  0.00    +0.395 N 
ATOM     15  H   UNL     1      -4.813   4.453  -0.663  0.00  0.00    -0.080 HD
ENDROOT
BRANCH   1  25
ATOM     16  C   UNL     1      -3.044  -0.013   0.030  0.00  0.00    +0.150 C 
ATOM     17  N   UNL     1      -2.546   1.365   0.033  0.00  0.00    -0.332 N 
ATOM     18  C   UNL     1      -1.222   1.757   0.017  0.00  0.00    +0.069 A 
ATOM     19  C   UNL     1      -0.013   1.076   0.008  0.00  0.00    +0.028 A 
ATOM     20  C   UNL     1       1.170   1.784   0.001  0.00  0.00    +0.002 A 
ATOM     21  C   UNL     1       1.158   3.172   0.008  0.00  0.00    +0.002 A 
ATOM     22  C   UNL     1      -0.022   3.859   0.023  0.00  0.00    +0.030 A 
ATOM     23  C   UNL     1      -1.234   3.162   0.030  0.00  0.00    +0.089 A 
ATOM     24  N   UNL     1      -2.536   3.547   0.045  0.00  0.00    -0.234 NA
ATOM     25  C   UNL     1      -3.303   2.496   0.046  0.00  0.00    +0.103 A 
ENDBRANCH   1  25
BRANCH  14  26
ATOM     26  C   UNL     1      -4.933   3.179  -2.270  0.00  0.00    -0.002 C 
BRANCH  26  27
ATOM     27  C   UNL     1      -5.646   4.095  -3.231  0.00  0.00    +0.089 A 
ATOM     28  C   UNL     1      -5.180   5.270  -3.690  0.00  0.00    +0.043 A 
ATOM     29  C   UNL     1      -6.164   5.788  -4.562  0.00  0.00    +0.047 A 
ATOM     30  C   UNL     1      -7.177   4.902  -4.577  0.00  0.00    +0.130 A 
ATOM     31  O   UNL     1      -6.857   3.879  -3.769  0.00  0.00    -0.464 OA
BRANCH  30  32
ATOM     32  C   UNL     1      -8.453   5.037  -5.367  0.00  0.00    +0.230 C 
BRANCH  32  33
ATOM     33  O   UNL     1      -8.282   4.440  -6.654  0.00  0.00    -0.387 OA
ATOM     34  H   UNL     1      -9.066   4.489  -7.218  0.00  0.00    +0.210 HD
ENDBRANCH  32  33
ENDBRANCH  30  32
ENDBRANCH  26  27
ENDBRANCH  14  26
TORSDOF 5
