REMARK  Name = ZINC06809985
REMARK  10 active torsions:
REMARK  status: ('A' for Active; 'I' for Inactive)
REMARK    1  A    between atoms: C_1  and  C_2
REMARK    2  A    between atoms: C_2  and  O_3
REMARK    3  A    between atoms: O_3  and  C_4
REMARK    4  A    between atoms: C_4  and  C_6
REMARK    5  A    between atoms: N_8  and  C_20
REMARK    6  A    between atoms: N_11  and  C_19
REMARK    7  A    between atoms: C_12  and  C_18
REMARK    8  A    between atoms: C_13  and  C_15
REMARK    9  A    between atoms: C_15  and  C_17
REMARK   10  A    between atoms: C_23  and  C_26
REMARK                            x       y       z     vdW  Elec       q    Type
REMARK                         _______ _______ _______ _____ _____    ______ ____
ROOT
ATOM      1  C   UNL     1       2.504   1.099   3.333  0.00  0.00    +0.203 C 
ATOM      2  N   UNL     1       2.344   2.319   2.888  0.00  0.00    -0.162 NA
ATOM      3  N   UNL     1       1.128   2.795   2.422  0.00  0.00    -0.180 N 
ATOM      4  C   UNL     1       0.044   1.828   2.467  0.00  0.00    +0.229 C 
ATOM      5  S   UNL     1       0.880   0.365   3.164  0.00  0.00    -0.039 S 
ATOM      6  N   UNL     1      -0.627   1.554   1.210  0.00  0.00    -0.296 N 
ATOM      7  C   UNL     1      -1.964   1.762   1.204  0.00  0.00    +0.023 C 
ATOM      8  C   UNL     1      -2.633   2.190   2.310  0.00  0.00    +0.071 C 
ATOM      9  S   UNL     1      -1.337   2.358   3.534  0.00  0.00    -0.062 S 
ATOM     10  C   UNL     1      -2.737   1.508  -0.065  0.00  0.00    +0.062 C 
ATOM     11  C   UNL     1       0.096   1.088   0.024  0.00  0.00    +0.133 C 
ENDROOT
BRANCH   3  12
ATOM     12  C   UNL     1       0.959   4.096   1.947  0.00  0.00    +0.056 A 
ATOM     13  C   UNL     1      -0.284   4.513   1.486  0.00  0.00    +0.025 A 
ATOM     14  C   UNL     1      -0.448   5.803   1.022  0.00  0.00    +0.005 A 
ATOM     15  C   UNL     1       0.625   6.676   1.005  0.00  0.00    -0.050 A 
ATOM     16  C   UNL     1       1.864   6.263   1.458  0.00  0.00    +0.005 A 
ATOM     17  C   UNL     1       2.035   4.976   1.929  0.00  0.00    +0.025 A 
ATOM     18  C   UNL     1       0.442   8.081   0.492  0.00  0.00    +0.044 C 
ENDBRANCH   3  12
BRANCH   8  19
ATOM     19  C   UNL     1      -4.008   2.443   2.455  0.00  0.00    +0.168 C 
ATOM     20  O   UNL     1      -4.745   2.369   1.490  0.00  0.00    -0.292 OA
ATOM     21  C   UNL     1      -4.570   2.808   3.805  0.00  0.00    +0.092 C 
ENDBRANCH   8  19
BRANCH   1  22
ATOM     22  C   UNL     1       3.729   0.477   3.850  0.00  0.00    +0.366 C 
ATOM     23  O   UNL     1       3.712  -0.678   4.229  0.00  0.00    -0.243 OA
BRANCH  22  24
ATOM     24  O   UNL     1       4.874   1.188   3.905  0.00  0.00    -0.460 OA
BRANCH  24  26
ATOM     25  C   UNL     1       7.240   1.468   4.412  0.00  0.00    +0.048 C 
ATOM     26  C   UNL     1       6.047   0.510   4.428  0.00  0.00    +0.229 C 
ENDBRANCH  24  26
ENDBRANCH  22  24
ENDBRANCH   1  22
TORSDOF 5
