REMARK  Name = ZINC34756566
REMARK  11 active torsions:
REMARK  status: ('A' for Active; 'I' for Inactive)
REMARK    1  A    between atoms: C_1  and  C_2
REMARK    2  A    between atoms: C_2  and  C_3
REMARK    3  A    between atoms: C_3  and  C_4
REMARK    4  A    between atoms: C_4  and  N_5
REMARK    5  A    between atoms: C_18  and  S_20
REMARK    6  A    between atoms: S_20  and  C_21
REMARK    7  A    between atoms: C_21  and  C_22
REMARK    8  A    between atoms: N_24  and  C_25
REMARK    9  A    between atoms: N_24  and  C_27
REMARK   10  A    between atoms: C_25  and  C_26
REMARK   11  A    between atoms: C_27  and  C_28
REMARK                            x       y       z     vdW  Elec       q    Type
REMARK                         _______ _______ _______ _____ _____    ______ ____
ROOT
ATOM      1  N   UNL     1       1.983  -1.634   3.278  0.00  0.00    +0.382 N 
ATOM      2  C   UNL     1       2.849  -1.796   4.453  0.00  0.00    -0.060 C 
ATOM      3  C   UNL     1       3.122  -3.285   4.684  0.00  0.00    +0.088 C 
ATOM      4  N   UNL     1       1.832  -3.986   4.780  0.00  0.00    -0.318 N 
ATOM      5  C   UNL     1       0.836  -3.753   3.723  0.00  0.00    +0.088 C 
ATOM      6  C   UNL     1       0.671  -2.241   3.537  0.00  0.00    -0.060 C 
ATOM      7  C   UNL     1       1.564  -4.841   5.833  0.00  0.00    +0.134 A 
ATOM      8  C   UNL     1       1.776  -6.242   5.695  0.00  0.00    +0.051 A 
ATOM      9  C   UNL     1       2.266  -6.983   4.531  0.00  0.00    -0.025 A 
ATOM     10  C   UNL     1       2.378  -8.320   4.659  0.00  0.00    -0.004 A 
ATOM     11  S   UNL     1       1.845  -8.672   6.313  0.00  0.00    -0.073 S 
ATOM     12  C   UNL     1       1.470  -7.017   6.831  0.00  0.00    +0.115 A 
ATOM     13  N   UNL     1       1.018  -6.468   7.942  0.00  0.00    -0.214 NA
ATOM     14  C   UNL     1       0.840  -5.156   8.014  0.00  0.00    +0.191 A 
ATOM     15  N   UNL     1       1.113  -4.366   6.982  0.00  0.00    -0.206 NA
ATOM     16  C   UNL     1       2.850  -9.295   3.624  0.00  0.00    +0.043 C 
ATOM     17  C   UNL     1       2.841  -8.595   2.258  0.00  0.00    +0.005 C 
ATOM     18  C   UNL     1       3.523  -7.231   2.401  0.00  0.00    +0.005 C 
ATOM     19  C   UNL     1       2.639  -6.292   3.222  0.00  0.00    +0.037 C 
ATOM     20  H   UNL     1       2.410  -2.086   2.484  0.00  0.00    -0.082 HD
ENDROOT
BRANCH   1  21
ATOM     21  C   UNL     1       1.811  -0.204   2.991  0.00  0.00    -0.079 C 
BRANCH  21  22
ATOM     22  C   UNL     1       3.160   0.403   2.600  0.00  0.00    -0.019 C 
BRANCH  22  24
ATOM     23  C   UNL     1       4.330   2.500   1.909  0.00  0.00    +0.004 C 
ATOM     24  C   UNL     1       2.981   1.893   2.301  0.00  0.00    -0.005 C 
ENDBRANCH  22  24
ENDBRANCH  21  22
ENDBRANCH   1  21
BRANCH  14  25
ATOM     25  S   UNL     1       0.235  -4.447   9.509  0.00  0.00    -0.077 S 
BRANCH  25  26
ATOM     26  C   UNL     1       0.016  -5.869  10.613  0.00  0.00    +0.173 C 
BRANCH  26  27
ATOM     27  C   UNL     1      -0.505  -5.396  11.945  0.00  0.00    +0.226 C 
ATOM     28  O   UNL     1      -0.708  -4.215  12.132  0.00  0.00    -0.275 OA
ATOM     29  N   UNL     1      -0.744  -6.285  12.930  0.00  0.00    -0.301 N 
BRANCH  29  30
ATOM     30  C   UNL     1      -1.251  -5.824  14.225  0.00  0.00    +0.104 C 
ATOM     31  C   UNL     1      -2.780  -5.823  14.203  0.00  0.00    +0.024 C 
ENDBRANCH  29  30
BRANCH  29  32
ATOM     32  C   UNL     1      -0.498  -7.711  12.704  0.00  0.00    +0.104 C 
ATOM     33  C   UNL     1       0.941  -8.049  13.098  0.00  0.00    +0.024 C 
ENDBRANCH  29  32
ENDBRANCH  26  27
ENDBRANCH  25  26
ENDBRANCH  14  25
TORSDOF 8
