REMARK  Name = ZINC64873890
REMARK  12 active torsions:
REMARK  status: ('A' for Active; 'I' for Inactive)
REMARK    1  A    between atoms: C_1  and  C_2
REMARK    2  A    between atoms: C_2  and  N_3
REMARK    3  A    between atoms: N_3  and  C_4
REMARK    4  A    between atoms: N_3  and  C_6
REMARK    5  A    between atoms: C_4  and  C_5
REMARK    6  A    between atoms: C_6  and  C_7
REMARK    7  A    between atoms: C_7  and  C_8
REMARK    8  A    between atoms: C_8  and  N_9
REMARK    9  A    between atoms: C_10  and  C_12
REMARK   10  A    between atoms: N_21  and  C_29
REMARK   11  A    between atoms: C_29  and  C_30
REMARK   12  A    between atoms: C_33  and  C_36
REMARK                            x       y       z     vdW  Elec       q    Type
REMARK                         _______ _______ _______ _____ _____    ______ ____
ROOT
ATOM      1  C   UNL     1      -4.767  -5.332  -2.276  0.00  0.00    +0.078 C 
ATOM      2  C   UNL     1      -5.448  -4.935  -0.964  0.00  0.00    +0.031 C 
ATOM      3  C   UNL     1      -6.962  -5.131  -1.099  0.00  0.00    +0.107 C 
ATOM      4  N   UNL     1      -7.224  -6.514  -1.521  0.00  0.00    -0.311 N 
ATOM      5  C   UNL     1      -6.548  -7.027  -2.721  0.00  0.00    +0.107 C 
ATOM      6  C   UNL     1      -5.039  -6.809  -2.568  0.00  0.00    +0.031 C 
ATOM      7  C   UNL     1      -8.090  -7.317  -0.802  0.00  0.00    +0.188 A 
ATOM      8  C   UNL     1      -8.892  -6.741   0.294  0.00  0.00    +0.292 A 
ATOM      9  O   UNL     1      -8.798  -5.560   0.572  0.00  0.00    -0.264 OA
ATOM     10  N   UNL     1      -9.732  -7.542   0.984  0.00  0.00    -0.300 N 
ATOM     11  C   UNL     1      -9.817  -8.880   0.644  0.00  0.00    +0.071 A 
ATOM     12  C   UNL     1     -10.675  -9.727   1.339  0.00  0.00    +0.028 A 
ATOM     13  C   UNL     1     -10.754 -11.059   0.993  0.00  0.00    +0.002 A 
ATOM     14  C   UNL     1      -9.983 -11.563  -0.045  0.00  0.00    +0.002 A 
ATOM     15  C   UNL     1      -9.134 -10.750  -0.739  0.00  0.00    +0.030 A 
ATOM     16  C   UNL     1      -9.036  -9.392  -0.407  0.00  0.00    +0.090 A 
ATOM     17  N   UNL     1      -8.201  -8.587  -1.098  0.00  0.00    -0.225 NA
ENDROOT
BRANCH   1  19
ATOM     18  N   UNL     1      -2.804  -3.874  -1.903  0.00  0.00    -0.315 N 
ATOM     19  C   UNL     1      -3.282  -5.108  -2.159  0.00  0.00    +0.216 C 
ATOM     20  O   UNL     1      -2.516  -6.039  -2.294  0.00  0.00    -0.276 OA
ATOM     21  H   UNL     1      -3.417  -3.130  -1.794  0.00  0.00    +0.149 HD
BRANCH  18  22
ATOM     22  C   UNL     1      -1.360  -3.657  -1.788  0.00  0.00    +0.102 C 
BRANCH  22  23
ATOM     23  C   UNL     1      -1.088  -2.180  -1.497  0.00  0.00    +0.000 C 
BRANCH  23  24
ATOM     24  C   UNL     1       0.421  -1.953  -1.378  0.00  0.00    -0.077 C 
BRANCH  24  25
ATOM     25  N   UNL     1       0.682  -0.535  -1.098  0.00  0.00    +0.379 N 
ATOM     26  H   UNL     1       0.244   0.034  -1.808  0.00  0.00    -0.082 HD
BRANCH  25  28
ATOM     27  C   UNL     1       0.273   1.321   0.447  0.00  0.00    -0.017 C 
ATOM     28  C   UNL     1       0.131  -0.185   0.218  0.00  0.00    -0.082 C 
ENDBRANCH  25  28
BRANCH  25  29
ATOM     29  C   UNL     1       2.131  -0.294  -1.102  0.00  0.00    -0.082 C 
ATOM     30  C   UNL     1       2.681  -0.515  -2.513  0.00  0.00    -0.017 C 
ENDBRANCH  25  29
ENDBRANCH  24  25
ENDBRANCH  23  24
ENDBRANCH  22  23
ENDBRANCH  18  22
ENDBRANCH   1  19
BRANCH  10  31
ATOM     31  C   UNL     1     -10.542  -7.002   2.079  0.00  0.00    +0.160 C 
BRANCH  31  32
ATOM     32  C   UNL     1     -11.861  -6.516   1.535  0.00  0.00    -0.028 A 
ATOM     33  C   UNL     1     -11.990  -5.212   1.097  0.00  0.00    +0.005 A 
ATOM     34  C   UNL     1     -13.200  -4.766   0.598  0.00  0.00    +0.004 A 
ATOM     35  C   UNL     1     -14.281  -5.625   0.537  0.00  0.00    -0.050 A 
ATOM     36  C   UNL     1     -14.152  -6.930   0.975  0.00  0.00    +0.004 A 
ATOM     37  C   UNL     1     -12.941  -7.377   1.470  0.00  0.00    +0.005 A 
ATOM     38  C   UNL     1     -15.600  -5.139  -0.005  0.00  0.00    +0.044 C 
ENDBRANCH  31  32
ENDBRANCH  10  31
TORSDOF 9
