REMARK  Name = ZINC16459365
REMARK  18 active torsions:
REMARK  status: ('A' for Active; 'I' for Inactive)
REMARK    1  A    between atoms: C_1  and  C_2
REMARK    2  A    between atoms: C_2  and  N_70
REMARK    3  A    between atoms: C_3  and  C_4
REMARK    4  A    between atoms: C_3  and  N_70
REMARK    5  A    between atoms: C_5  and  C_6
REMARK    6  A    between atoms: C_5  and  N_70
REMARK    7  A    between atoms: C_6  and  C_7
REMARK    8  A    between atoms: C_7  and  C_8
REMARK    9  A    between atoms: C_8  and  C_10
REMARK   10  A    between atoms: C_8  and  N_11
REMARK   11  A    between atoms: C_12  and  C_14
REMARK   12  A    between atoms: C_17  and  C_19
REMARK   13  A    between atoms: C_19  and  N_20
REMARK   14  A    between atoms: N_20  and  C_21
REMARK   15  A    between atoms: C_21  and  C_22
REMARK   16  A    between atoms: C_22  and  O_23
REMARK   17  A    between atoms: O_23  and  C_24
REMARK   18  A    between atoms: N_27  and  C_28
REMARK                            x       y       z     vdW  Elec       q    Type
REMARK                         _______ _______ _______ _____ _____    ______ ____
ROOT
ATOM      1  C   UNL     1       6.635   3.385   1.835  0.00  0.00    +0.133 A 
ATOM      2  C   UNL     1       7.932   3.004   2.066  0.00  0.00    +0.080 A 
ATOM      3  S   UNL     1       8.808   4.171   1.127  0.00  0.00    -0.078 S 
ATOM      4  C   UNL     1       7.453   5.065   0.516  0.00  0.00    +0.096 A 
ATOM      5  N   UNL     1       6.433   4.439   1.044  0.00  0.00    -0.238 NA
ENDROOT
BRANCH   1   7
ATOM      6  N   UNL     1       4.242   3.059   2.205  0.00  0.00    -0.307 N 
ATOM      7  C   UNL     1       5.506   2.660   2.444  0.00  0.00    +0.263 C 
ATOM      8  O   UNL     1       5.716   1.701   3.162  0.00  0.00    -0.269 OA
ATOM      9  H   UNL     1       4.074   3.824   1.632  0.00  0.00    +0.149 HD
BRANCH   6  10
ATOM     10  C   UNL     1       3.119   2.338   2.811  0.00  0.00    +0.070 C 
ATOM     11  C   UNL     1       2.868   2.877   4.220  0.00  0.00    +0.028 C 
BRANCH  10  12
ATOM     12  C   UNL     1       1.865   2.537   1.957  0.00  0.00    +0.020 C 
BRANCH  12  13
ATOM     13  C   UNL     1       2.072   1.887   0.587  0.00  0.00    -0.017 C 
BRANCH  13  14
ATOM     14  C   UNL     1       0.818   2.086  -0.266  0.00  0.00    -0.079 C 
BRANCH  14  15
ATOM     15  N   UNL     1       1.042   1.472  -1.592  0.00  0.00    +0.379 N 
ATOM     16  H   UNL     1       1.925   1.825  -1.979  0.00  0.00    -0.082 HD
BRANCH  15  18
ATOM     17  C   UNL     1      -0.168  -0.562  -0.878  0.00  0.00    -0.017 C 
ATOM     18  C   UNL     1       1.129   0.002  -1.460  0.00  0.00    -0.082 C 
ENDBRANCH  15  18
BRANCH  15  19
ATOM     19  C   UNL     1      -0.061   1.832  -2.508  0.00  0.00    -0.082 C 
ATOM     20  C   UNL     1       0.358   1.492  -3.940  0.00  0.00    -0.017 C 
ENDBRANCH  15  19
ENDBRANCH  14  15
ENDBRANCH  13  14
ENDBRANCH  12  13
ENDBRANCH  10  12
ENDBRANCH   6  10
ENDBRANCH   1   7
BRANCH   4  21
ATOM     21  C   UNL     1       7.452   6.265  -0.395  0.00  0.00    +0.172 C 
BRANCH  21  22
ATOM     22  N   UNL     1       7.508   7.489   0.409  0.00  0.00    -0.277 N 
ATOM     23  C   UNL     1       6.367   8.079   0.817  0.00  0.00    +0.307 C 
ATOM     24  O   UNL     1       5.292   7.597   0.519  0.00  0.00    -0.252 OA
ATOM     25  N   UNL     1       6.419   9.205   1.557  0.00  0.00    -0.267 N 
ATOM     26  H   UNL     1       7.273   9.627   1.739  0.00  0.00    +0.156 HD
BRANCH  25  27
ATOM     27  C   UNL     1       5.239   9.766   2.062  0.00  0.00    +0.070 A 
ATOM     28  C   UNL     1       4.034   9.560   1.405  0.00  0.00    +0.026 A 
ATOM     29  C   UNL     1       2.871  10.109   1.909  0.00  0.00    +0.002 A 
ATOM     30  C   UNL     1       2.907  10.874   3.061  0.00  0.00    +0.003 A 
ATOM     31  C   UNL     1       4.106  11.086   3.716  0.00  0.00    +0.040 A 
ATOM     32  C   UNL     1       5.273  10.535   3.220  0.00  0.00    +0.145 A 
ATOM     33  F   UNL     1       6.445  10.743   3.860  0.00  0.00    -0.204 F 
ENDBRANCH  25  27
BRANCH  22  34
ATOM     34  C   UNL     1       8.803   8.070   0.769  0.00  0.00    +0.138 C 
BRANCH  34  35
ATOM     35  C   UNL     1       9.233   9.065  -0.311  0.00  0.00    +0.178 C 
BRANCH  35  36
ATOM     36  O   UNL     1       8.320  10.164  -0.337  0.00  0.00    -0.381 OA
ATOM     37  C   UNL     1       8.633  11.156  -1.317  0.00  0.00    +0.194 C 
ENDBRANCH  35  36
ENDBRANCH  34  35
ENDBRANCH  22  34
ENDBRANCH  21  22
ENDBRANCH   4  21
TORSDOF 14
