REMARK  Name = ZINC36073685
REMARK  9 active torsions:
REMARK  status: ('A' for Active; 'I' for Inactive)
REMARK    1  A    between atoms: C_4  and  C_7
REMARK    2  A    between atoms: C_7  and  N_8
REMARK    3  A    between atoms: N_8  and  C_9
REMARK    4  A    between atoms: N_8  and  C_18
REMARK    5  A    between atoms: C_9  and  C_10
REMARK    6  A    between atoms: C_18  and  C_19
REMARK    7  A    between atoms: C_21  and  C_24
REMARK    8  A    between atoms: N_26  and  C_27
REMARK    9  A    between atoms: C_27  and  C_28
REMARK                            x       y       z     vdW  Elec       q    Type
REMARK                         _______ _______ _______ _____ _____    ______ ____
ROOT
ATOM      1  N   UNL     1       4.210  -0.844   1.337  0.00  0.00    +0.391 N 
ATOM      2  H   UNL     1       4.126   0.071   1.756  0.00  0.00    -0.080 HD
ENDROOT
BRANCH   1   3
ATOM      3  C   UNL     1       3.775  -0.783  -0.065  0.00  0.00    -0.042 C 
BRANCH   3   7
ATOM      4  C   UNL     1      -0.156   0.877  -0.266  0.00  0.00    +0.000 A 
ATOM      5  C   UNL     1       0.944   1.712  -0.209  0.00  0.00    +0.000 A 
ATOM      6  C   UNL     1       2.216   1.175  -0.143  0.00  0.00    +0.002 A 
ATOM      7  C   UNL     1       2.388  -0.197  -0.135  0.00  0.00    -0.064 A 
ATOM      8  C   UNL     1       1.287  -1.032  -0.191  0.00  0.00    +0.002 A 
ATOM      9  C   UNL     1       0.015  -0.494  -0.257  0.00  0.00    +0.000 A 
ENDBRANCH   3   7
ENDBRANCH   1   3
BRANCH   1  10
ATOM     10  C   UNL     1       5.611  -1.283   1.396  0.00  0.00    -0.040 C 
BRANCH  10  11
ATOM     11  C   UNL     1       6.490  -0.244   0.750  0.00  0.00    -0.046 A 
ATOM     12  C   UNL     1       6.931  -0.422  -0.548  0.00  0.00    +0.004 A 
ATOM     13  C   UNL     1       7.738   0.530  -1.141  0.00  0.00    +0.020 A 
ATOM     14  C   UNL     1       8.105   1.663  -0.436  0.00  0.00    +0.042 A 
ATOM     15  C   UNL     1       7.665   1.841   0.863  0.00  0.00    +0.040 A 
ATOM     16  C   UNL     1       6.853   0.890   1.455  0.00  0.00    +0.044 A 
ATOM     17 CL   UNL     1       6.294   1.116   3.083  0.00  0.00    -0.083 Cl
ATOM     18 CL   UNL     1       9.120   2.858  -1.181  0.00  0.00    -0.083 Cl
ENDBRANCH  10  11
ENDBRANCH   1  10
BRANCH   1  19
ATOM     19  C   UNL     1       3.366  -1.797   2.071  0.00  0.00    +0.020 C 
BRANCH  19  20
ATOM     20  C   UNL     1       3.722  -1.758   3.535  0.00  0.00    +0.179 A 
ATOM     21  N   UNL     1       3.242  -0.920   4.404  0.00  0.00    -0.210 NA
ATOM     22  C   UNL     1       3.794  -1.193   5.617  0.00  0.00    +0.163 A 
ATOM     23  C   UNL     1       4.638  -2.246   5.445  0.00  0.00    +0.230 A 
ATOM     24  O   UNL     1       4.578  -2.588   4.148  0.00  0.00    -0.449 OA
BRANCH  22  25
ATOM     25  C   UNL     1       3.527  -0.482   6.881  0.00  0.00    +0.266 C 
ATOM     26  O   UNL     1       4.156  -0.766   7.883  0.00  0.00    -0.268 OA
ATOM     27  N   UNL     1       2.588   0.483   6.926  0.00  0.00    -0.308 N 
ATOM     28  H   UNL     1       2.037   0.660   6.147  0.00  0.00    +0.149 HD
BRANCH  27  29
ATOM     29  C   UNL     1       2.398   1.264   8.150  0.00  0.00    +0.136 C 
BRANCH  29  30
ATOM     30  C   UNL     1       1.278   2.285   7.936  0.00  0.00    +0.135 C 
ATOM     31  C   UNL     1       1.153   3.193   9.178  0.00  0.00    +0.035 C 
ATOM     32  C   UNL     1      -0.386   3.361   9.309  0.00  0.00    +0.031 C 
ATOM     33  C   UNL     1      -0.875   1.974   8.822  0.00  0.00    +0.160 C 
ATOM     34  O   UNL     1       0.029   1.606   7.765  0.00  0.00    -0.375 OA
ENDBRANCH  29  30
ENDBRANCH  27  29
ENDBRANCH  22  25
ENDBRANCH  19  20
ENDBRANCH   1  19
TORSDOF 9
