REMARK  Name = ZINC07185452
REMARK  3 active torsions:
REMARK  status: ('A' for Active; 'I' for Inactive)
REMARK    1  A    between atoms: N_13  and  C_17
REMARK    2  A    between atoms: C_17  and  C_18
REMARK    3  A    between atoms: C_18  and  C_20
REMARK                            x       y       z     vdW  Elec       q    Type
REMARK                         _______ _______ _______ _____ _____    ______ ____
ROOT
ATOM      1  C   UNL     1       7.851  -7.363  -1.996  0.00  0.00    +0.000 A 
ATOM      2  C   UNL     1       6.982  -7.091  -0.956  0.00  0.00    +0.000 A 
ATOM      3  C   UNL     1       6.778  -5.786  -0.556  0.00  0.00    +0.006 A 
ATOM      4  C   UNL     1       7.440  -4.742  -1.190  0.00  0.00    -0.012 A 
ATOM      5  C   UNL     1       8.310  -5.014  -2.223  0.00  0.00    -0.042 A 
ATOM      6  C   UNL     1       8.511  -6.328  -2.625  0.00  0.00    +0.004 A 
ATOM      7  C   UNL     1       9.070  -3.933  -2.946  0.00  0.00    +0.035 C 
ATOM      8  C   UNL     1       8.431  -2.568  -2.704  0.00  0.00    +0.008 C 
ATOM      9  C   UNL     1       8.248  -2.376  -1.193  0.00  0.00    +0.040 C 
ATOM     10  C   UNL     1       7.172  -3.343  -0.714  0.00  0.00    +0.138 C 
ATOM     11  C   UNL     1       5.808  -2.889  -1.183  0.00  0.00    +0.251 C 
ATOM     12  O   UNL     1       5.429  -2.766  -2.328  0.00  0.00    -0.272 OA
ATOM     13  N   UNL     1       5.101  -2.648  -0.060  0.00  0.00    -0.216 N 
ATOM     14  C   UNL     1       5.824  -2.894   1.040  0.00  0.00    +0.310 C 
ATOM     15  O   UNL     1       5.403  -2.756   2.171  0.00  0.00    -0.252 OA
ATOM     16  N   UNL     1       7.071  -3.312   0.751  0.00  0.00    -0.281 N 
ATOM     17  H   UNL     1       7.766  -3.548   1.386  0.00  0.00    +0.152 HD
ENDROOT
BRANCH  13  18
ATOM     18  C   UNL     1       3.713  -2.180  -0.044  0.00  0.00    +0.197 C 
BRANCH  18  19
ATOM     19  C   UNL     1       3.690  -0.674  -0.036  0.00  0.00    +0.181 C 
ATOM     20  O   UNL     1       4.731  -0.051  -0.043  0.00  0.00    -0.290 OA
BRANCH  19  21
ATOM     21  C   UNL     1       2.408   0.041  -0.021  0.00  0.00    +0.023 A 
ATOM     22  C   UNL     1       1.205  -0.675  -0.013  0.00  0.00    +0.015 A 
ATOM     23  C   UNL     1       0.002  -0.004   0.002  0.00  0.00    +0.050 A 
ATOM     24  C   UNL     1      -0.017   1.384   0.010  0.00  0.00    +0.162 A 
ATOM     25  C   UNL     1       1.174   2.104   0.002  0.00  0.00    +0.163 A 
ATOM     26  C   UNL     1       2.385   1.442  -0.013  0.00  0.00    +0.060 A 
ATOM     27  O   UNL     1       1.137   3.468   0.007  0.00  0.00    -0.488 OA
ATOM     28  C   UNL     1       0.657   4.076   1.208  0.00  0.00    +0.232 C 
ATOM     29  C   UNL     1      -0.862   4.146   1.206  0.00  0.00    +0.082 C 
ATOM     30  C   UNL     1      -1.505   2.768   1.224  0.00  0.00    +0.232 C 
ATOM     31  O   UNL     1      -1.205   2.052   0.019  0.00  0.00    -0.488 OA
ENDBRANCH  19  21
ENDBRANCH  18  19
ENDBRANCH  13  18
TORSDOF 3
