REMARK  Name = ZINC09429396
REMARK  7 active torsions:
REMARK  status: ('A' for Active; 'I' for Inactive)
REMARK    1  A    between atoms: C_1  and  C_2
REMARK    2  A    between atoms: C_8  and  N_10
REMARK    3  A    between atoms: C_11  and  C_13
REMARK    4  A    between atoms: N_16  and  S_19
REMARK    5  A    between atoms: S_19  and  C_22
REMARK    6  A    between atoms: C_29  and  C_37
REMARK    7  A    between atoms: C_32  and  C_34
REMARK                            x       y       z     vdW  Elec       q    Type
REMARK                         _______ _______ _______ _____ _____    ______ ____
ROOT
ATOM      1  S   UNL     1      -5.154   0.932  -5.512  0.00  0.00    +0.061 S 
ATOM      2  O   UNL     1      -5.350   2.260  -5.979  0.00  0.00    -0.153 OA
ATOM      3  O   UNL     1      -5.474  -0.207  -6.299  0.00  0.00    -0.153 OA
ENDROOT
BRANCH   1   4
ATOM      4  C   UNL     1      -6.071   0.784  -4.015  0.00  0.00    +0.106 A 
ATOM      5  C   UNL     1      -6.373   1.911  -3.272  0.00  0.00    +0.030 A 
ATOM      6  C   UNL     1      -7.090   1.798  -2.100  0.00  0.00    +0.026 A 
ATOM      7  C   UNL     1      -7.519   0.545  -1.655  0.00  0.00    +0.040 A 
ATOM      8  C   UNL     1      -7.212  -0.577  -2.407  0.00  0.00    -0.022 A 
ATOM      9  C   UNL     1      -6.496  -0.459  -3.583  0.00  0.00    +0.034 A 
ATOM     10  C   UNL     1      -7.784  -1.792  -1.713  0.00  0.00    +0.059 C 
ATOM     11  C   UNL     1      -8.468  -1.234  -0.454  0.00  0.00    +0.083 C 
ATOM     12  N   UNL     1      -8.249   0.214  -0.509  0.00  0.00    -0.268 N 
ATOM     13  C   UNL     1      -8.687   1.097   0.410  0.00  0.00    +0.223 C 
ATOM     14  O   UNL     1      -8.382   2.268   0.319  0.00  0.00    -0.275 OA
ATOM     15  C   UNL     1      -9.965  -1.545  -0.481  0.00  0.00    +0.029 C 
BRANCH  13  16
ATOM     16  C   UNL     1      -9.554   0.630   1.551  0.00  0.00    +0.076 C 
ATOM     17  C   UNL     1     -10.951   1.242   1.672  0.00  0.00    +0.013 C 
ATOM     18  C   UNL     1      -9.855   1.634   2.666  0.00  0.00    +0.013 C 
ENDBRANCH  13  16
ENDBRANCH   1   4
BRANCH   1  22
ATOM     19  C   UNL     1      -1.278   0.473  -3.467  0.00  0.00    +0.077 C 
ATOM     20  C   UNL     1      -2.090   1.770  -3.421  0.00  0.00    +0.030 C 
ATOM     21  C   UNL     1      -2.763   1.994  -4.779  0.00  0.00    +0.110 C 
ATOM     22  N   UNL     1      -3.551   0.801  -5.119  0.00  0.00    -0.177 NA
ATOM     23  C   UNL     1      -2.889  -0.510  -5.104  0.00  0.00    +0.110 C 
ATOM     24  C   UNL     1      -2.214  -0.706  -3.742  0.00  0.00    +0.030 C 
BRANCH  19  26
ATOM     25  N   UNL     1       0.290   1.185  -1.691  0.00  0.00    -0.312 N 
ATOM     26  C   UNL     1      -0.587   0.267  -2.143  0.00  0.00    +0.216 C 
ATOM     27  O   UNL     1      -0.820  -0.725  -1.486  0.00  0.00    -0.276 OA
ATOM     28  H   UNL     1       0.476   1.978  -2.217  0.00  0.00    +0.149 HD
BRANCH  25  35
ATOM     29  C   UNL     1       3.181   1.239  -1.525  0.00  0.00    +0.009 C 
ATOM     30  C   UNL     1       2.285   1.752  -0.396  0.00  0.00    +0.006 C 
ATOM     31  C   UNL     1       2.011   3.244  -0.601  0.00  0.00    +0.005 C 
ATOM     32  C   UNL     1       1.115   3.757   0.528  0.00  0.00    +0.000 C 
ATOM     33  C   UNL     1      -0.208   2.989   0.519  0.00  0.00    +0.002 C 
ATOM     34  C   UNL     1       0.066   1.498   0.724  0.00  0.00    +0.022 C 
ATOM     35  C   UNL     1       0.962   0.984  -0.405  0.00  0.00    +0.076 C 
ENDBRANCH  25  35
ENDBRANCH  19  26
ENDBRANCH   1  22
TORSDOF 5
