REMARK  Name = ZINC15081080
REMARK  6 active torsions:
REMARK  status: ('A' for Active; 'I' for Inactive)
REMARK    1  A    between atoms: C_6  and  C_7
REMARK    2  A    between atoms: C_7  and  O_22
REMARK    3  A    between atoms: C_10  and  C_20
REMARK    4  A    between atoms: C_11  and  C_12
REMARK    5  A    between atoms: C_11  and  C_14
REMARK    6  A    between atoms: N_17  and  N_18
REMARK                            x       y       z     vdW  Elec       q    Type
REMARK                         _______ _______ _______ _____ _____    ______ ____
ROOT
ATOM      1  C   UNL     1      -1.293  -0.775   0.010  0.00  0.00    +0.180 C 
ATOM      2  C   UNL     1      -1.740  -1.087  -1.433  0.00  0.00    +0.111 C 
ATOM      3  C   UNL     1      -2.826  -0.028  -1.715  0.00  0.00    +0.153 C 
ATOM      4  C   UNL     1      -3.184  -1.543  -1.657  0.00  0.00    +0.177 C 
ATOM      5  C   UNL     1      -2.917   0.791  -0.445  0.00  0.00    +0.108 C 
ATOM      6  N   UNL     1      -2.375   0.048   0.577  0.00  0.00    -0.222 N 
ATOM      7  N   UNL     1      -3.416   1.979  -0.339  0.00  0.00    -0.388 N 
ATOM      8  H   UNL     1      -3.776   2.425  -1.122  0.00  0.00    +0.157 HD
ATOM      9  H   UNL     1      -3.429   2.425   0.522  0.00  0.00    +0.157 HD
ENDROOT
BRANCH   1  15
ATOM     10  C   UNL     1      -0.017   1.378   0.010  0.00  0.00    +0.009 A 
ATOM     11  C   UNL     1       1.171   2.086   0.002  0.00  0.00    +0.016 A 
ATOM     12  C   UNL     1       2.378   1.411  -0.013  0.00  0.00    +0.018 A 
ATOM     13  C   UNL     1       2.396   0.027  -0.021  0.00  0.00    +0.016 A 
ATOM     14  C   UNL     1       1.208  -0.679  -0.013  0.00  0.00    +0.009 A 
ATOM     15  C   UNL     1       0.002  -0.004   0.002  0.00  0.00    +0.004 A 
ATOM     16 BR   UNL     1       4.003   2.378  -0.024  0.00  0.00    -0.050 Br
ENDBRANCH   1  15
BRANCH   6  17
ATOM     17  N   UNL     1      -2.769   0.070   1.884  0.00  0.00    -0.250 NA
ATOM     18  H   UNL     1      -3.532   0.716   2.022  0.00  0.00    +0.141 HD
ATOM     19  H   UNL     1      -3.018  -0.855   2.202  0.00  0.00    +0.141 HD
ENDBRANCH   6  17
BRANCH   4  20
ATOM     20  C   UNL     1      -3.928  -2.036  -0.486  0.00  0.00    +0.087 C 
ATOM     21  N   UNL     1      -4.503  -2.417   0.417  0.00  0.00    -0.195 NA
ENDBRANCH   4  20
BRANCH   4  22
ATOM     22  C   UNL     1      -3.496  -2.208  -2.932  0.00  0.00    +0.087 C 
ATOM     23  N   UNL     1      -3.736  -2.721  -3.917  0.00  0.00    -0.195 NA
ENDBRANCH   4  22
BRANCH   3  24
ATOM     24  C   UNL     1      -2.891   0.686  -3.001  0.00  0.00    +0.080 C 
ATOM     25  N   UNL     1      -2.941   1.236  -3.993  0.00  0.00    -0.195 NA
ENDBRANCH   3  24
BRANCH   1  26
ATOM     26  O   UNL     1      -1.145  -1.984   0.758  0.00  0.00    -0.366 OA
ATOM     27  H   UNL     1      -0.887  -1.846   1.680  0.00  0.00    +0.212 HD
ENDBRANCH   1  26
TORSDOF 6
