REMARK  Name = ZINC43284895
REMARK  5 active torsions:
REMARK  status: ('A' for Active; 'I' for Inactive)
REMARK    1  A    between atoms: C_1  and  C_2
REMARK    2  A    between atoms: C_2  and  C_4
REMARK    3  A    between atoms: C_2  and  N_23
REMARK    4  A    between atoms: C_4  and  C_6
REMARK    5  A    between atoms: C_4  and  N_12
REMARK                            x       y       z     vdW  Elec       q    Type
REMARK                         _______ _______ _______ _____ _____    ______ ____
ROOT
ATOM      1  C   UNL     1       0.742  -0.511   1.242  0.00  0.00    +0.079 C 
ENDROOT
BRANCH   1   2
ATOM      2  N   UNL     1       2.132  -0.046   1.335  0.00  0.00    -0.294 NA
ATOM      3  C   UNL     1       2.905  -0.456   0.155  0.00  0.00    +0.104 C 
ATOM      4  C   UNL     1       4.290   0.197   0.203  0.00  0.00    +0.122 C 
ATOM      5  N   UNL     1       4.913  -0.123   1.497  0.00  0.00    -0.307 N 
ATOM      6  C   UNL     1       4.142   0.133   2.723  0.00  0.00    +0.122 C 
ATOM      7  C   UNL     1       2.763  -0.518   2.575  0.00  0.00    +0.104 C 
ATOM      8  C   UNL     1       6.193  -0.653   1.559  0.00  0.00    +0.161 A 
ATOM      9  N   UNL     1       7.010  -0.934   0.566  0.00  0.00    -0.233 NA
ATOM     10  C   UNL     1       8.210  -1.440   0.794  0.00  0.00    +0.120 A 
ATOM     11  C   UNL     1       8.554  -1.653   2.087  0.00  0.00    +0.068 A 
ATOM     12  S   UNL     1       7.081  -1.086   2.921  0.00  0.00    -0.061 S 
ENDBRANCH   1   2
BRANCH   1  13
ATOM     13  C   UNL     1       0.711  -2.016   1.301  0.00  0.00    +0.006 A 
ATOM     14  C   UNL     1      -0.045  -2.824   2.084  0.00  0.00    +0.028 A 
ATOM     15  C   UNL     1       0.095  -4.195   1.967  0.00  0.00    +0.025 A 
ATOM     16  C   UNL     1       0.984  -4.690   1.071  0.00  0.00    +0.060 A 
ATOM     17  S   UNL     1       1.654  -3.199   0.352  0.00  0.00    -0.099 S 
ATOM     18 BR   UNL     1      -0.938  -5.361   3.039  0.00  0.00    -0.050 Br
ENDBRANCH   1  13
BRANCH   1  20
ATOM     19  C   UNL     1       0.167   1.489  -0.142  0.00  0.00    -0.012 C 
ATOM     20  C   UNL     1       0.135  -0.040  -0.081  0.00  0.00    -0.056 C 
BRANCH  20  21
ATOM     21  N   UNL     1      -1.256  -0.505  -0.175  0.00  0.00    +0.381 N 
ATOM     22  H   UNL     1      -1.656  -0.194  -1.048  0.00  0.00    -0.090 HD
ATOM     23  H   UNL     1      -1.277  -1.513  -0.135  0.00  0.00    -0.090 HD
ATOM     24  H   UNL     1      -1.789  -0.127   0.593  0.00  0.00    -0.090 HD
ENDBRANCH  20  21
ENDBRANCH   1  20
TORSDOF 4
