REMARK  Name = ZINC00882207
REMARK  6 active torsions:
REMARK  status: ('A' for Active; 'I' for Inactive)
REMARK    1  A    between atoms: C_1  and  C_2
REMARK    2  A    between atoms: C_3  and  C_14
REMARK    3  A    between atoms: N_5  and  C_7
REMARK    4  A    between atoms: N_16  and  C_17
REMARK    5  A    between atoms: C_18  and  C_28
REMARK    6  A    between atoms: C_23  and  C_27
REMARK                            x       y       z     vdW  Elec       q    Type
REMARK                         _______ _______ _______ _____ _____    ______ ____
ROOT
ATOM      1  C   UNL     1      -2.167  -1.335   3.539  0.00  0.00    +0.253 C 
ATOM      2  O   UNL     1      -3.200  -1.946   3.342  0.00  0.00    -0.270 OA
ATOM      3  N   UNL     1      -1.438  -0.890   2.497  0.00  0.00    -0.275 N 
ATOM      4  H   UNL     1      -0.615  -0.402   2.655  0.00  0.00    +0.156 HD
ENDROOT
BRANCH   3   5
ATOM      5  C   UNL     1      -1.865  -1.129   1.201  0.00  0.00    +0.085 A 
ATOM      6  C   UNL     1      -1.257  -0.754   0.010  0.00  0.00    +0.068 A 
ATOM      7  C   UNL     1      -1.919  -1.128  -1.228  0.00  0.00    -0.023 A 
ATOM      8  C   UNL     1      -3.070  -1.821  -1.079  0.00  0.00    -0.004 A 
ATOM      9  S   UNL     1      -3.285  -1.968   0.672  0.00  0.00    -0.077 S 
ATOM     10  C   UNL     1      -3.961  -2.337  -2.166  0.00  0.00    +0.046 C 
ATOM     11  C   UNL     1      -3.567  -1.649  -3.482  0.00  0.00    -0.009 C 
ATOM     12  C   UNL     1      -2.045  -1.717  -3.638  0.00  0.00    +0.008 C 
ATOM     13  C   UNL     1      -1.376  -0.798  -2.613  0.00  0.00    +0.037 C 
ATOM     14  C   UNL     1      -4.238  -2.366  -4.655  0.00  0.00    +0.008 C 
BRANCH   6  15
ATOM     15  C   UNL     1       0.002  -0.004   0.002  0.00  0.00    +0.244 C 
ATOM     16  O   UNL     1       1.064  -0.598  -0.011  0.00  0.00    -0.270 OA
ATOM     17  N   UNL     1      -0.016   1.344   0.009  0.00  0.00    -0.325 N 
ATOM     18  H   UNL     1       0.817   1.840   0.004  0.00  0.00    +0.145 HD
ATOM     19  H   UNL     1      -0.863   1.817   0.016  0.00  0.00    +0.145 HD
ENDBRANCH   6  15
ENDBRANCH   3   5
BRANCH   1  22
ATOM     20  C   UNL     1      -0.281  -3.227   5.251  0.00  0.00    +0.068 C 
ATOM     21  C   UNL     1      -0.875  -1.914   5.692  0.00  0.00    +0.074 A 
ATOM     22  C   UNL     1      -1.714  -1.081   4.917  0.00  0.00    +0.096 A 
ATOM     23  C   UNL     1      -2.025   0.020   5.694  0.00  0.00    +0.145 A 
ATOM     24  N   UNL     1      -1.412  -0.142   6.882  0.00  0.00    -0.220 N 
ATOM     25  N   UNL     1      -0.702  -1.347   6.854  0.00  0.00    -0.170 NA
ATOM     26 CL   UNL     1      -3.023   1.361   5.226  0.00  0.00    -0.061 Cl
BRANCH  24  27
ATOM     27  C   UNL     1      -1.470   0.750   7.962  0.00  0.00    +0.067 A 
ATOM     28  C   UNL     1      -1.525   2.118   7.732  0.00  0.00    +0.028 A 
ATOM     29  C   UNL     1      -1.586   2.994   8.799  0.00  0.00    +0.002 A 
ATOM     30  C   UNL     1      -1.583   2.510  10.094  0.00  0.00    +0.000 A 
ATOM     31  C   UNL     1      -1.523   1.148  10.326  0.00  0.00    +0.002 A 
ATOM     32  C   UNL     1      -1.466   0.267   9.264  0.00  0.00    +0.028 A 
ENDBRANCH  24  27
ENDBRANCH   1  22
TORSDOF 4
