REMARK  Name = ZINC50680437
REMARK  10 active torsions:
REMARK  status: ('A' for Active; 'I' for Inactive)
REMARK    1  A    between atoms: C_1  and  C_2
REMARK    2  A    between atoms: C_4  and  C_21
REMARK    3  A    between atoms: C_7  and  N_8
REMARK    4  A    between atoms: C_9  and  C_11
REMARK    5  A    between atoms: C_14  and  N_20
REMARK    6  A    between atoms: C_15  and  N_17
REMARK    7  A    between atoms: N_23  and  C_24
REMARK    8  A    between atoms: C_24  and  C_25
REMARK    9  A    between atoms: C_25  and  C_26
REMARK   10  A    between atoms: C_25  and  C_27
REMARK                            x       y       z     vdW  Elec       q    Type
REMARK                         _______ _______ _______ _____ _____    ______ ____
ROOT
ATOM      1  N   UNL     1      -0.171   0.419   2.275  0.00  0.00    -0.281 N 
ATOM      2  C   UNL     1      -0.932  -0.100   3.259  0.00  0.00    +0.248 C 
ATOM      3  O   UNL     1      -1.671  -1.037   3.027  0.00  0.00    -0.270 OA
ATOM      4  H   UNL     1       0.453   1.135   2.470  0.00  0.00    +0.155 HD
ENDROOT
BRANCH   1  11
ATOM      5  C   UNL     1       0.360   2.200   0.126  0.00  0.00    +0.045 C 
ATOM      6  C   UNL     1      -0.032   0.763  -0.107  0.00  0.00    -0.029 A 
ATOM      7  C   UNL     1      -0.135   0.279  -1.392  0.00  0.00    +0.018 A 
ATOM      8  C   UNL     1      -0.497  -1.054  -1.607  0.00  0.00    +0.037 A 
ATOM      9  C   UNL     1      -0.753  -1.890  -0.517  0.00  0.00    +0.015 A 
ATOM     10  C   UNL     1      -0.648  -1.399   0.765  0.00  0.00    +0.024 A 
ATOM     11  C   UNL     1      -0.282  -0.073   0.976  0.00  0.00    +0.037 A 
BRANCH   8  12
ATOM     12  C   UNL     1      -0.609  -1.577  -2.983  0.00  0.00    +0.244 C 
ATOM     13  O   UNL     1      -0.386  -0.848  -3.930  0.00  0.00    -0.270 OA
ATOM     14  N   UNL     1      -0.959  -2.862  -3.189  0.00  0.00    -0.311 N 
ATOM     15  H   UNL     1      -1.136  -3.443  -2.433  0.00  0.00    +0.149 HD
BRANCH  14  16
ATOM     16  C   UNL     1      -1.070  -3.381  -4.554  0.00  0.00    +0.107 C 
BRANCH  16  17
ATOM     17  C   UNL     1      -1.477  -4.855  -4.508  0.00  0.00    -0.000 C 
ATOM     18  C   UNL     1      -2.881  -4.977  -3.913  0.00  0.00    +0.009 C 
ATOM     19  C   UNL     1      -1.472  -5.430  -5.926  0.00  0.00    +0.009 C 
ENDBRANCH  16  17
ENDBRANCH  14  16
ENDBRANCH   8  12
ENDBRANCH   1  11
BRANCH   2  20
ATOM     20  C   UNL     1      -0.868   0.469   4.618  0.00  0.00    +0.039 A 
ATOM     21  C   UNL     1      -0.023   1.551   4.886  0.00  0.00    +0.015 A 
ATOM     22  C   UNL     1       0.035   2.079   6.155  0.00  0.00    +0.026 A 
ATOM     23  C   UNL     1      -0.747   1.538   7.172  0.00  0.00    +0.055 A 
ATOM     24  C   UNL     1      -1.589   0.462   6.909  0.00  0.00    +0.147 A 
ATOM     25  C   UNL     1      -1.656  -0.068   5.640  0.00  0.00    +0.047 A 
BRANCH  24  26
ATOM     26  N   UNL     1      -2.418  -0.111   7.994  0.00  0.00    +0.058 N 
ATOM     27  O   UNL     1      -2.594  -1.306   8.053  0.00  0.00    -0.126 OA
ATOM     28  O   UNL     1      -2.918   0.616   8.820  0.00  0.00    -0.126 OA
ENDBRANCH  24  26
BRANCH  23  29
ATOM     29  N   UNL     1      -0.686   2.075   8.454  0.00  0.00    -0.356 N 
ATOM     30  H   UNL     1      -0.199   2.898   8.612  0.00  0.00    +0.142 HD
ATOM     31  H   UNL     1      -1.131   1.625   9.189  0.00  0.00    +0.142 HD
ENDBRANCH  23  29
ENDBRANCH   2  20
TORSDOF 7
