REMARK  Name = ZINC67582100
REMARK  8 active torsions:
REMARK  status: ('A' for Active; 'I' for Inactive)
REMARK    1  A    between atoms: C_1  and  N_2
REMARK    2  A    between atoms: N_2  and  C_3
REMARK    3  A    between atoms: N_2  and  C_4
REMARK    4  A    between atoms: C_4  and  C_9
REMARK    5  A    between atoms: C_9  and  N_10
REMARK    6  A    between atoms: C_16  and  C_19
REMARK    7  A    between atoms: C_19  and  C_21
REMARK    8  A    between atoms: C_19  and  O_28
REMARK                            x       y       z     vdW  Elec       q    Type
REMARK                         _______ _______ _______ _____ _____    ______ ____
ROOT
ATOM      1  N   UNL     1      -1.388  -0.626  -2.446  0.00  0.00    -0.301 N 
ATOM      2  C   UNL     1      -1.838  -0.362  -3.689  0.00  0.00    +0.302 C 
ATOM      3  O   UNL     1      -2.775   0.397  -3.849  0.00  0.00    -0.253 OA
ATOM      4  N   UNL     1      -1.250  -0.939  -4.756  0.00  0.00    -0.286 N 
ATOM      5  C   UNL     1      -0.047  -1.767  -4.590  0.00  0.00    +0.109 C 
ATOM      6  C   UNL     1       1.046  -1.240  -5.525  0.00  0.00    +0.025 C 
ATOM      7  C   UNL     1       0.508  -1.193  -6.957  0.00  0.00    +0.025 C 
ATOM      8  C   UNL     1      -0.686  -0.238  -7.024  0.00  0.00    +0.025 C 
ATOM      9  C   UNL     1      -1.802  -0.757  -6.105  0.00  0.00    +0.109 C 
ATOM     10  H   UNL     1      -0.597  -1.173  -2.323  0.00  0.00    +0.150 HD
ENDROOT
BRANCH   1  11
ATOM     11  C   UNL     1      -2.095  -0.086  -1.282  0.00  0.00    +0.094 C 
BRANCH  11  12
ATOM     12  C   UNL     1      -1.383  -0.531  -0.003  0.00  0.00    -0.050 C 
ATOM     13  C   UNL     1      -2.136   0.001   1.234  0.00  0.00    -0.010 C 
ATOM     14  C   UNL     1      -3.050  -1.176   1.657  0.00  0.00    -0.001 C 
ATOM     15  C   UNL     1      -2.157  -2.414   1.397  0.00  0.00    -0.001 C 
ATOM     16  C   UNL     1      -1.396  -2.066   0.101  0.00  0.00    -0.010 C 
BRANCH  12  18
ATOM     17  C   UNL     1      -0.003   1.431   0.001  0.00  0.00    -0.096 C 
ATOM     18  N   UNL     1       0.001  -0.038   0.000  0.00  0.00    +0.381 N 
ATOM     19  C   UNL     1       0.692  -0.527   1.201  0.00  0.00    -0.096 C 
ATOM     20  H   UNL     1       0.479  -0.373  -0.823  0.00  0.00    -0.082 HD
ENDBRANCH  12  18
ENDBRANCH  11  12
ENDBRANCH   1  11
BRANCH   7  21
ATOM     21  C   UNL     1       1.608  -0.701  -7.899  0.00  0.00    +0.148 C 
BRANCH  21  22
ATOM     22  C   UNL     1       1.078  -0.654  -9.309  0.00  0.00    -0.019 A 
ATOM     23  C   UNL     1       0.999  -1.815 -10.056  0.00  0.00    +0.007 A 
ATOM     24  C   UNL     1       0.513  -1.773 -11.349  0.00  0.00    +0.020 A 
ATOM     25  C   UNL     1       0.106  -0.569 -11.897  0.00  0.00    +0.041 A 
ATOM     26  C   UNL     1       0.186   0.592 -11.149  0.00  0.00    +0.020 A 
ATOM     27  C   UNL     1       0.667   0.548  -9.854  0.00  0.00    +0.007 A 
ATOM     28 CL   UNL     1      -0.504  -0.515 -13.521  0.00  0.00    -0.084 Cl
ENDBRANCH  21  22
BRANCH  21  29
ATOM     29  O   UNL     1       2.722  -1.593  -7.838  0.00  0.00    -0.387 OA
ATOM     30  H   UNL     1       2.513  -2.502  -8.095  0.00  0.00    +0.210 HD
ENDBRANCH  21  29
ENDBRANCH   7  21
TORSDOF 6
