REMARK  Name = ZINC20754642
REMARK  10 active torsions:
REMARK  status: ('A' for Active; 'I' for Inactive)
REMARK    1  A    between atoms: C_1  and  O_2
REMARK    2  A    between atoms: O_2  and  C_3
REMARK    3  A    between atoms: C_6  and  O_34
REMARK    4  A    between atoms: C_7  and  C_9
REMARK    5  A    between atoms: C_22  and  C_24
REMARK    6  A    between atoms: C_26  and  O_32
REMARK    7  A    between atoms: C_29  and  O_30
REMARK    8  A    between atoms: O_30  and  C_31
REMARK    9  A    between atoms: O_32  and  C_33
REMARK   10  A    between atoms: O_34  and  C_35
REMARK                            x       y       z     vdW  Elec       q    Type
REMARK                         _______ _______ _______ _____ _____    ______ ____
ROOT
ATOM      1  C   UNL     1       2.419   3.944  -0.001  0.00  0.00    +0.017 C 
ATOM      2  C   UNL     1       2.396   5.284  -0.095  0.00  0.00    -0.023 C 
ATOM      3  C   UNL     1       1.087   6.044  -0.088  0.00  0.00    +0.037 C 
ATOM      4  C   UNL     1       1.183   7.138  -1.154  0.00  0.00    +0.009 C 
ATOM      5  C   UNL     1       2.311   8.099  -0.785  0.00  0.00    +0.035 C 
ATOM      6  C   UNL     1       3.597   7.368  -0.543  0.00  0.00    -0.019 C 
ATOM      7  C   UNL     1       3.650   6.062  -0.216  0.00  0.00    +0.046 C 
ATOM      8  N   UNL     1       4.838   5.433   0.009  0.00  0.00    -0.325 N 
ATOM      9  C   UNL     1       6.007   6.006  -0.072  0.00  0.00    +0.236 C 
ATOM     10  N   UNL     1       7.281   5.563   0.110  0.00  0.00    -0.096 NA
ATOM     11  N   UNL     1       8.109   6.526  -0.089  0.00  0.00    -0.060 NA
ATOM     12  N   UNL     1       7.496   7.617  -0.399  0.00  0.00    -0.163 N 
ATOM     13  N   UNL     1       6.128   7.343  -0.404  0.00  0.00    -0.193 N 
ATOM     14  C   UNL     1       4.913   8.118  -0.666  0.00  0.00    +0.160 C 
ATOM     15  H   UNL     1       7.911   8.472  -0.594  0.00  0.00    +0.195 HD
ATOM     16  H   UNL     1       4.766   4.368   0.276  0.00  0.00    +0.169 HD
ENDROOT
BRANCH   1  21
ATOM     17  C   UNL     1      -0.947   3.049   1.403  0.00  0.00    +0.121 A 
ATOM     18  C   UNL     1      -1.164   1.809   0.816  0.00  0.00    +0.049 A 
ATOM     19  C   UNL     1      -0.215   1.261  -0.027  0.00  0.00    +0.050 A 
ATOM     20  C   UNL     1       0.954   1.950  -0.300  0.00  0.00    +0.127 A 
ATOM     21  C   UNL     1       1.177   3.204   0.285  0.00  0.00    +0.020 A 
ATOM     22  C   UNL     1       0.216   3.750   1.140  0.00  0.00    +0.057 A 
BRANCH  17  24
ATOM     23  C   UNL     1      -3.062   2.802   2.463  0.00  0.00    +0.277 C 
ATOM     24  O   UNL     1      -1.884   3.579   2.235  0.00  0.00    -0.495 OA
ENDBRANCH  17  24
BRANCH  20  25
ATOM     25  O   UNL     1       1.883   1.412  -1.133  0.00  0.00    -0.495 OA
ATOM     26  C   UNL     1       1.588   0.131  -1.693  0.00  0.00    +0.277 C 
ENDBRANCH  20  25
ENDBRANCH   1  21
BRANCH  14  27
ATOM     27  C   UNL     1       4.884   9.276   0.298  0.00  0.00    +0.024 A 
ATOM     28  C   UNL     1       5.530   9.178   1.515  0.00  0.00    +0.055 A 
ATOM     29  C   UNL     1       5.504  10.244   2.402  0.00  0.00    +0.121 A 
ATOM     30  C   UNL     1       4.829  11.409   2.066  0.00  0.00    +0.049 A 
ATOM     31  C   UNL     1       4.183  11.507   0.849  0.00  0.00    +0.049 A 
ATOM     32  C   UNL     1       4.214  10.443  -0.040  0.00  0.00    +0.126 A 
BRANCH  32  33
ATOM     33  O   UNL     1       3.583  10.541  -1.241  0.00  0.00    -0.495 OA
ATOM     34  C   UNL     1       2.913  11.771  -1.522  0.00  0.00    +0.277 C 
ENDBRANCH  32  33
BRANCH  29  35
ATOM     35  O   UNL     1       6.140  10.148   3.600  0.00  0.00    -0.495 OA
ATOM     36  C   UNL     1       6.072  11.284   4.463  0.00  0.00    +0.277 C 
ENDBRANCH  29  35
ENDBRANCH  14  27
TORSDOF 6
