REMARK  Name = ZINC61594250
REMARK  8 active torsions:
REMARK  status: ('A' for Active; 'I' for Inactive)
REMARK    1  A    between atoms: C_1  and  C_2
REMARK    2  A    between atoms: C_2  and  N_3
REMARK    3  A    between atoms: C_9  and  S_10
REMARK    4  A    between atoms: S_10  and  C_11
REMARK    5  A    between atoms: C_11  and  C_13
REMARK    6  A    between atoms: C_11  and  C_19
REMARK    7  A    between atoms: C_19  and  C_21
REMARK    8  A    between atoms: C_19  and  N_22
REMARK                            x       y       z     vdW  Elec       q    Type
REMARK                         _______ _______ _______ _____ _____    ______ ____
ROOT
ATOM      1  C   UNL     1      -1.446  -1.221   4.576  0.00  0.00    +0.076 C 
ENDROOT
BRANCH   1   2
ATOM      2  C   UNL     1      -2.834  -0.932   5.085  0.00  0.00    +0.003 A 
ATOM      3  C   UNL     1      -3.212  -0.249   6.193  0.00  0.00    +0.027 A 
ATOM      4  C   UNL     1      -4.561  -0.107   6.466  0.00  0.00    +0.025 A 
ATOM      5  C   UNL     1      -5.464  -0.656   5.617  0.00  0.00    +0.060 A 
ATOM      6  S   UNL     1      -4.409  -1.396   4.382  0.00  0.00    -0.099 S 
ATOM      7 BR   UNL     1      -5.135   0.838   8.000  0.00  0.00    -0.050 Br
ENDBRANCH   1   2
BRANCH   1   8
ATOM      8  C   UNL     1      -1.236  -2.735   4.497  0.00  0.00    -0.060 C 
ATOM      9  C   UNL     1      -2.150  -3.321   3.419  0.00  0.00    -0.013 C 
BRANCH   8  10
ATOM     10  N   UNL     1      -1.558  -3.342   5.795  0.00  0.00    +0.381 N 
ATOM     11  H   UNL     1      -2.543  -3.228   5.984  0.00  0.00    -0.090 HD
ATOM     12  H   UNL     1      -1.332  -4.325   5.772  0.00  0.00    -0.090 HD
ATOM     13  H   UNL     1      -1.022  -2.890   6.520  0.00  0.00    -0.090 HD
ENDBRANCH   8  10
ENDBRANCH   1   8
BRANCH   1  14
ATOM     14  S   UNL     1      -1.244  -0.496   2.925  0.00  0.00    -0.079 S 
BRANCH  14  21
ATOM     15  N   UNL     1       1.078  -0.431   1.366  0.00  0.00    -0.271 N 
ATOM     16  C   UNL     1       2.380  -0.766   1.463  0.00  0.00    +0.345 A 
ATOM     17  O   UNL     1       3.227  -0.620   0.599  0.00  0.00    -0.245 OA
ATOM     18  N   UNL     1       2.575  -1.292   2.690  0.00  0.00    -0.226 N 
ATOM     19  H   UNL     1       3.415  -1.623   3.046  0.00  0.00    +0.194 HD
ATOM     20  N   UNL     1       1.342  -1.272   3.356  0.00  0.00    -0.145 NA
ATOM     21  C   UNL     1       0.460  -0.749   2.554  0.00  0.00    +0.193 A 
BRANCH  15  23
ATOM     22  C   UNL     1       0.515   1.698   0.303  0.00  0.00    +0.027 C 
ATOM     23  C   UNL     1       0.433   0.174   0.198  0.00  0.00    +0.125 C 
ENDBRANCH  15  23
ENDBRANCH  14  21
ENDBRANCH   1  14
TORSDOF 6
