REMARK  Name = ZINC40342019
REMARK  10 active torsions:
REMARK  status: ('A' for Active; 'I' for Inactive)
REMARK    1  A    between atoms: C_1  and  O_2
REMARK    2  A    between atoms: O_2  and  C_3
REMARK    3  A    between atoms: C_6  and  C_11
REMARK    4  A    between atoms: C_8  and  O_9
REMARK    5  A    between atoms: O_9  and  C_10
REMARK    6  A    between atoms: C_11  and  C_12
REMARK    7  A    between atoms: C_12  and  N_13
REMARK    8  A    between atoms: C_14  and  C_31
REMARK    9  A    between atoms: C_17  and  C_24
REMARK   10  A    between atoms: C_34  and  N_37
REMARK                            x       y       z     vdW  Elec       q    Type
REMARK                         _______ _______ _______ _____ _____    ______ ____
ROOT
ATOM      1  N   UNL     1       4.640  -3.366  -5.213  0.00  0.00    -0.285 N 
ATOM      2  C   UNL     1       4.763  -4.814  -5.427  0.00  0.00    +0.141 C 
ATOM      3  C   UNL     1       5.503  -4.982  -6.726  0.00  0.00    +0.035 A 
ATOM      4  C   UNL     1       6.043  -5.861  -7.671  0.00  0.00    +0.099 A 
ATOM      5  N   UNL     1       6.586  -5.131  -8.624  0.00  0.00    -0.173 NA
ATOM      6  N   UNL     1       6.444  -3.878  -8.376  0.00  0.00    -0.272 N 
ATOM      7  H   UNL     1       6.765  -3.157  -8.940  0.00  0.00    +0.189 HD
ATOM      8  C   UNL     1       5.772  -3.711  -7.198  0.00  0.00    +0.126 A 
ATOM      9  C   UNL     1       5.224  -2.736  -6.249  0.00  0.00    +0.265 C 
ATOM     10  O   UNL     1       5.291  -1.528  -6.378  0.00  0.00    -0.268 OA
ENDROOT
BRANCH   4  11
ATOM     11  C   UNL     1       6.009  -7.344  -7.611  0.00  0.00    +0.003 A 
ATOM     12  C   UNL     1       6.100  -7.996  -6.383  0.00  0.00    +0.011 A 
ATOM     13  C   UNL     1       6.068  -9.374  -6.332  0.00  0.00    +0.020 A 
ATOM     14  C   UNL     1       5.947 -10.110  -7.498  0.00  0.00    +0.041 A 
ATOM     15  C   UNL     1       5.857  -9.466  -8.721  0.00  0.00    +0.020 A 
ATOM     16  C   UNL     1       5.882  -8.088  -8.781  0.00  0.00    +0.011 A 
ATOM     17 CL   UNL     1       5.909 -11.844  -7.428  0.00  0.00    -0.084 Cl
ENDBRANCH   4  11
BRANCH   2  18
ATOM     18  C   UNL     1       5.542  -5.440  -4.300  0.00  0.00    -0.022 A 
ATOM     19  C   UNL     1       6.642  -4.789  -3.774  0.00  0.00    +0.008 A 
ATOM     20  C   UNL     1       7.357  -5.364  -2.740  0.00  0.00    +0.033 A 
ATOM     21  C   UNL     1       6.971  -6.590  -2.231  0.00  0.00    +0.126 A 
ATOM     22  C   UNL     1       5.870  -7.241  -2.756  0.00  0.00    +0.033 A 
ATOM     23  C   UNL     1       5.153  -6.664  -3.787  0.00  0.00    +0.008 A 
BRANCH  21  24
ATOM     24  N   UNL     1       7.737  -7.206  -1.124  0.00  0.00    +0.056 N 
ATOM     25  O   UNL     1       8.700  -6.637  -0.665  0.00  0.00    -0.126 OA
ATOM     26  O   UNL     1       7.399  -8.278  -0.679  0.00  0.00    -0.126 OA
ENDBRANCH  21  24
ENDBRANCH   2  18
BRANCH   1  27
ATOM     27  C   UNL     1       3.989  -2.719  -4.072  0.00  0.00    +0.114 C 
BRANCH  27  28
ATOM     28  C   UNL     1       2.507  -2.501  -4.386  0.00  0.00    +0.054 C 
BRANCH  28  32
ATOM     29  C   UNL     1       0.606  -0.608  -1.056  0.00  0.00    +0.161 A 
ATOM     30  C   UNL     1       1.173   0.159  -2.062  0.00  0.00    +0.049 A 
ATOM     31  C   UNL     1       1.787  -0.456  -3.137  0.00  0.00    +0.007 A 
ATOM     32  C   UNL     1       1.837  -1.836  -3.212  0.00  0.00    -0.042 A 
ATOM     33  C   UNL     1       1.273  -2.606  -2.212  0.00  0.00    +0.053 A 
ATOM     34  C   UNL     1       0.662  -1.996  -1.129  0.00  0.00    +0.162 A 
BRANCH  29  36
ATOM     35  C   UNL     1      -0.017   1.425   0.010  0.00  0.00    +0.277 C 
ATOM     36  O   UNL     1       0.002  -0.004   0.002  0.00  0.00    -0.491 OA
ENDBRANCH  29  36
BRANCH  34  37
ATOM     37  O   UNL     1       0.112  -2.753  -0.142  0.00  0.00    -0.491 OA
ATOM     38  C   UNL     1       0.206  -4.171  -0.283  0.00  0.00    +0.277 C 
ENDBRANCH  34  37
ENDBRANCH  28  32
ENDBRANCH  27  28
ENDBRANCH   1  27
TORSDOF 8
