REMARK  Name = ZINC07913605
REMARK  6 active torsions:
REMARK  status: ('A' for Active; 'I' for Inactive)
REMARK    1  A    between atoms: C_1  and  C_2
REMARK    2  A    between atoms: C_5  and  C_7
REMARK    3  A    between atoms: C_8  and  C_9
REMARK    4  A    between atoms: C_12  and  C_14
REMARK    5  A    between atoms: C_17  and  S_20
REMARK    6  A    between atoms: S_20  and  N_23
REMARK                            x       y       z     vdW  Elec       q    Type
REMARK                         _______ _______ _______ _____ _____    ______ ____
ROOT
ATOM      1  C   UNL     1      -0.018   1.472   0.010  0.00  0.00    +0.017 A 
ATOM      2  C   UNL     1      -1.235   2.157   0.020  0.00  0.00    +0.013 A 
ATOM      3  C   UNL     1      -1.246   3.536   0.033  0.00  0.00    +0.029 A 
ATOM      4  C   UNL     1      -0.056   4.241   0.025  0.00  0.00    +0.106 A 
ATOM      5  C   UNL     1       1.154   3.569   0.010  0.00  0.00    +0.029 A 
ATOM      6  C   UNL     1       1.180   2.190   0.003  0.00  0.00    +0.013 A 
ENDROOT
BRANCH   1  10
ATOM      7  C   UNL     1       0.746  -2.074  -0.017  0.00  0.00    +0.129 A 
ATOM      8  C   UNL     1      -0.632  -2.135  -0.004  0.00  0.00    +0.050 A 
ATOM      9  C   UNL     1      -1.095  -0.814   0.008  0.00  0.00    +0.050 A 
ATOM     10  C   UNL     1       0.002  -0.004   0.002  0.00  0.00    +0.136 A 
ATOM     11  O   UNL     1       1.107  -0.774  -0.018  0.00  0.00    -0.455 OA
BRANCH   7  13
ATOM     12  C   UNL     1       2.967  -2.983  -0.044  0.00  0.00    +0.038 C 
ATOM     13  C   UNL     1       1.629  -3.183  -0.032  0.00  0.00    +0.049 C 
BRANCH  12  18
ATOM     14  C   UNL     1       7.377  -5.273  -0.100  0.00  0.00    +0.066 C 
ATOM     15  C   UNL     1       5.870  -5.280  -0.085  0.00  0.00    +0.046 A 
ATOM     16  C   UNL     1       5.194  -6.461  -0.085  0.00  0.00    +0.070 A 
ATOM     17  S   UNL     1       3.505  -5.876  -0.058  0.00  0.00    -0.076 S 
ATOM     18  C   UNL     1       3.879  -4.128  -0.059  0.00  0.00    +0.101 A 
ATOM     19  N   UNL     1       5.209  -4.148  -0.072  0.00  0.00    -0.245 NA
ENDBRANCH  12  18
ENDBRANCH   7  13
ENDBRANCH   1  10
BRANCH   4  20
ATOM     20  S   UNL     1      -0.079   6.003   0.035  0.00  0.00    +0.061 S 
ATOM     21  O   UNL     1      -1.325   6.389   0.600  0.00  0.00    -0.153 OA
ATOM     22  O   UNL     1       1.166   6.423   0.576  0.00  0.00    -0.153 OA
BRANCH  20  23
ATOM     23  N   UNL     1      -0.102   6.500  -1.545  0.00  0.00    -0.172 NA
ATOM     24  C   UNL     1       1.150   6.751  -2.277  0.00  0.00    +0.137 C 
ATOM     25  C   UNL     1       1.086   5.987  -3.610  0.00  0.00    +0.177 C 
ATOM     26  O   UNL     1      -0.126   6.328  -4.288  0.00  0.00    -0.377 OA
ATOM     27  C   UNL     1      -1.314   5.954  -3.587  0.00  0.00    +0.177 C 
ATOM     28  C   UNL     1      -1.373   6.711  -2.255  0.00  0.00    +0.137 C 
ENDBRANCH  20  23
ENDBRANCH   4  20
TORSDOF 5
