REMARK  Name = ZINC36743005
REMARK  5 active torsions:
REMARK  status: ('A' for Active; 'I' for Inactive)
REMARK    1  A    between atoms: C_1  and  C_2
REMARK    2  A    between atoms: C_2  and  S_3
REMARK    3  A    between atoms: S_3  and  N_6
REMARK    4  A    between atoms: N_6  and  C_7
REMARK    5  A    between atoms: C_10  and  N_14
REMARK                            x       y       z     vdW  Elec       q    Type
REMARK                         _______ _______ _______ _____ _____    ______ ____
ROOT
ATOM      1  C   UNL     1       1.537  -2.932   0.498  0.00  0.00    +0.076 A 
ATOM      2  C   UNL     1       2.426  -2.212  -0.289  0.00  0.00    +0.043 A 
ATOM      3  C   UNL     1       3.179  -2.860  -1.250  0.00  0.00    +0.040 A 
ATOM      4  C   UNL     1       3.045  -4.231  -1.429  0.00  0.00    +0.027 A 
ATOM      5  C   UNL     1       2.157  -4.950  -0.642  0.00  0.00    +0.040 A 
ATOM      6  C   UNL     1       1.409  -4.304   0.324  0.00  0.00    +0.043 A 
ATOM      7 BR   UNL     1       0.205  -5.286   1.402  0.00  0.00    -0.048 Br
ATOM      8 BR   UNL     1       2.607  -0.345  -0.047  0.00  0.00    -0.048 Br
ENDROOT
BRANCH   4   9
ATOM      9  N   UNL     1       3.807  -4.886  -2.404  0.00  0.00    -0.358 N 
ATOM     10  H   UNL     1       4.427  -4.383  -2.954  0.00  0.00    +0.142 HD
ATOM     11  H   UNL     1       3.714  -5.844  -2.529  0.00  0.00    +0.142 HD
ENDBRANCH   4   9
BRANCH   1  12
ATOM     12  N   UNL     1       0.774  -2.275   1.473  0.00  0.00    -0.218 N 
ATOM     13  H   UNL     1       0.979  -2.398   2.413  0.00  0.00    +0.173 HD
BRANCH  12  14
ATOM     14  S   UNL     1      -0.476  -1.290   1.020  0.00  0.00    +0.043 S 
ATOM     15  O   UNL     1       0.073  -0.442   0.021  0.00  0.00    -0.155 OA
ATOM     16  O   UNL     1      -0.971  -0.748   2.237  0.00  0.00    -0.155 OA
BRANCH  14  18
ATOM     17  C   UNL     1      -2.911  -1.590  -0.189  0.00  0.00    +0.030 C 
ATOM     18  C   UNL     1      -1.706  -2.404   0.287  0.00  0.00    +0.185 C 
ENDBRANCH  14  18
ENDBRANCH  12  14
ENDBRANCH   1  12
TORSDOF 4
