REMARK  Name = ZINC12777977
REMARK  12 active torsions:
REMARK  status: ('A' for Active; 'I' for Inactive)
REMARK    1  A    between atoms: C_1  and  C_2
REMARK    2  A    between atoms: C_2  and  C_3
REMARK    3  A    between atoms: C_3  and  C_4
REMARK    4  A    between atoms: C_3  and  C_5
REMARK    5  A    between atoms: C_3  and  C_6
REMARK    6  A    between atoms: N_14  and  C_18
REMARK    7  A    between atoms: C_18  and  C_19
REMARK    8  A    between atoms: N_21  and  C_22
REMARK    9  A    between atoms: C_27  and  C_28
REMARK   10  A    between atoms: C_28  and  C_29
REMARK   11  A    between atoms: C_28  and  C_30
REMARK   12  A    between atoms: C_28  and  C_31
REMARK                            x       y       z     vdW  Elec       q    Type
REMARK                         _______ _______ _______ _____ _____    ______ ____
ROOT
ATOM      1  C   UNL     1       4.045   4.908   0.040  0.00  0.00    -0.005 C 
ATOM      2  C   UNL     1       3.441   4.221   1.266  0.00  0.00    +0.006 C 
ATOM      3  C   UNL     1       1.914   4.259   1.170  0.00  0.00    +0.035 C 
ATOM      4  C   UNL     1       1.466   3.550  -0.104  0.00  0.00    +0.113 C 
ATOM      5  C   UNL     1       2.078   4.212  -1.333  0.00  0.00    +0.035 C 
ATOM      6  C   UNL     1       3.604   4.174  -1.228  0.00  0.00    +0.006 C 
ATOM      7  C   UNL     1       1.841   2.087  -0.052  0.00  0.00    +0.247 C 
ATOM      8  O   UNL     1       2.955   1.617   0.030  0.00  0.00    -0.273 OA
ATOM      9  N   UNL     1       0.673   1.414  -0.116  0.00  0.00    -0.215 N 
ATOM     10  C   UNL     1      -0.372   2.246  -0.205  0.00  0.00    +0.310 C 
ATOM     11  O   UNL     1      -1.526   1.875  -0.281  0.00  0.00    -0.252 OA
ATOM     12  N   UNL     1       0.001   3.540  -0.200  0.00  0.00    -0.285 N 
ATOM     13  H   UNL     1      -0.584   4.313  -0.252  0.00  0.00    +0.151 HD
ENDROOT
BRANCH   1  14
ATOM     14  C   UNL     1       5.572   4.880   0.140  0.00  0.00    -0.032 C 
ATOM     15  C   UNL     1       6.013   5.615   1.407  0.00  0.00    +0.011 C 
ATOM     16  C   UNL     1       6.052   3.428   0.200  0.00  0.00    +0.011 C 
BRANCH  14  18
ATOM     17  C   UNL     1       7.703   5.538  -0.985  0.00  0.00    +0.004 C 
ATOM     18  C   UNL     1       6.177   5.567  -1.085  0.00  0.00    +0.003 C 
ENDBRANCH  14  18
ENDBRANCH   1  14
BRANCH   9  19
ATOM     19  C   UNL     1       0.563  -0.047  -0.096  0.00  0.00    +0.214 C 
BRANCH  19  20
ATOM     20  C   UNL     1       0.433  -0.521   1.329  0.00  0.00    +0.235 C 
ATOM     21  O   UNL     1       0.432   0.282   2.238  0.00  0.00    -0.274 OA
ATOM     22  N   UNL     1       0.317  -1.838   1.593  0.00  0.00    -0.284 N 
ATOM     23  H   UNL     1       0.230  -2.473   0.865  0.00  0.00    +0.155 HD
BRANCH  22  24
ATOM     24  C   UNL     1       0.322  -2.289   2.917  0.00  0.00    +0.037 A 
ATOM     25  C   UNL     1       0.338  -1.376   3.964  0.00  0.00    +0.023 A 
ATOM     26  C   UNL     1       0.338  -1.824   5.270  0.00  0.00    +0.002 A 
ATOM     27  C   UNL     1       0.333  -3.181   5.537  0.00  0.00    +0.000 A 
ATOM     28  C   UNL     1       0.323  -4.093   4.497  0.00  0.00    +0.006 A 
ATOM     29  C   UNL     1       0.318  -3.651   3.189  0.00  0.00    -0.021 A 
BRANCH  29  30
ATOM     30  C   UNL     1       0.308  -4.645   2.057  0.00  0.00    -0.011 C 
ATOM     31  C   UNL     1       0.342  -6.065   2.625  0.00  0.00    +0.015 C 
ATOM     32  C   UNL     1      -0.963  -4.459   1.225  0.00  0.00    +0.015 C 
ATOM     33  C   UNL     1       1.534  -4.421   1.170  0.00  0.00    +0.015 C 
ENDBRANCH  29  30
ENDBRANCH  22  24
ENDBRANCH  19  20
ENDBRANCH   9  19
TORSDOF 6
