REMARK  Name = ZINC37041971
REMARK  6 active torsions:
REMARK  status: ('A' for Active; 'I' for Inactive)
REMARK    1  A    between atoms: C_1  and  N_2
REMARK    2  A    between atoms: N_2  and  C_3
REMARK    3  A    between atoms: N_2  and  C_4
REMARK    4  A    between atoms: C_9  and  N_10
REMARK    5  A    between atoms: C_11  and  C_13
REMARK    6  A    between atoms: C_16  and  O_20
REMARK                            x       y       z     vdW  Elec       q    Type
REMARK                         _______ _______ _______ _____ _____    ______ ____
ROOT
ATOM      1  N   UNL     1      -1.179  -0.734   2.432  0.00  0.00    -0.285 N 
ATOM      2  C   UNL     1      -1.799  -0.998   3.599  0.00  0.00    +0.203 C 
ATOM      3  O   UNL     1      -2.841  -1.619   3.606  0.00  0.00    -0.277 OA
ATOM      4  H   UNL     1      -0.307  -0.309   2.431  0.00  0.00    +0.155 HD
ENDROOT
BRANCH   1  10
ATOM      5  C   UNL     1      -1.021  -1.292   0.080  0.00  0.00    +0.051 A 
ATOM      6  C   UNL     1      -1.635  -1.634  -1.116  0.00  0.00    +0.026 A 
ATOM      7  C   UNL     1      -3.011  -1.752  -1.177  0.00  0.00    +0.017 A 
ATOM      8  C   UNL     1      -3.779  -1.530  -0.048  0.00  0.00    +0.020 A 
ATOM      9  C   UNL     1      -3.174  -1.189   1.149  0.00  0.00    +0.040 A 
ATOM     10  C   UNL     1      -1.794  -1.074   1.220  0.00  0.00    +0.056 A 
ATOM     11 BR   UNL     1      -5.661  -1.694  -0.140  0.00  0.00    -0.050 Br
BRANCH   5  13
ATOM     12  C   UNL     1       1.008   0.122  -0.121  0.00  0.00    +0.129 C 
ATOM     13  N   UNL     1       0.372  -1.171   0.144  0.00  0.00    -0.335 N 
ATOM     14  C   UNL     1       1.194  -2.338   0.475  0.00  0.00    +0.129 C 
ENDBRANCH   5  13
ENDBRANCH   1  10
BRANCH   2  15
ATOM     15  C   UNL     1      -1.197  -0.522   4.896  0.00  0.00    +0.019 C 
ATOM     16  C   UNL     1      -1.552   0.960   5.143  0.00  0.00    +0.023 C 
ATOM     17  C   UNL     1      -1.787   1.068   6.664  0.00  0.00    +0.097 C 
ATOM     18  C   UNL     1      -1.554  -0.357   7.208  0.00  0.00    -0.050 C 
ATOM     19  N   UNL     1      -1.797  -1.249   6.044  0.00  0.00    +0.388 N 
ATOM     20  H   UNL     1      -2.787  -1.379   5.901  0.00  0.00    -0.085 HD
ATOM     21  H   UNL     1      -1.339  -2.139   6.177  0.00  0.00    -0.085 HD
BRANCH  17  22
ATOM     22  O   UNL     1      -0.856   1.983   7.246  0.00  0.00    -0.394 OA
ATOM     23  H   UNL     1      -0.956   2.091   8.201  0.00  0.00    +0.210 HD
ENDBRANCH  17  22
ENDBRANCH   2  15
TORSDOF 4
