REMARK  Name = ZINC23513821
REMARK  15 active torsions:
REMARK  status: ('A' for Active; 'I' for Inactive)
REMARK    1  A    between atoms: C_1  and  C_2
REMARK    2  A    between atoms: C_2  and  C_3
REMARK    3  A    between atoms: C_3  and  C_4
REMARK    4  A    between atoms: C_4  and  N_5
REMARK    5  A    between atoms: N_5  and  C_6
REMARK    6  A    between atoms: C_7  and  N_18
REMARK    7  A    between atoms: N_8  and  C_15
REMARK    8  A    between atoms: C_15  and  C_16
REMARK    9  A    between atoms: C_16  and  C_17
REMARK   10  A    between atoms: C_19  and  C_21
REMARK   11  A    between atoms: C_21  and  O_22
REMARK   12  A    between atoms: O_22  and  C_23
REMARK   13  A    between atoms: C_23  and  C_25
REMARK   14  A    between atoms: C_25  and  C_26
REMARK   15  A    between atoms: C_25  and  C_32
REMARK                            x       y       z     vdW  Elec       q    Type
REMARK                         _______ _______ _______ _____ _____    ______ ____
ROOT
ATOM      1  N   UNL     1      -1.734  -0.527  -2.334  0.00  0.00    -0.261 N 
ATOM      2  C   UNL     1      -1.380  -0.436  -3.632  0.00  0.00    +0.258 C 
ATOM      3  O   UNL     1      -1.271   0.653  -4.157  0.00  0.00    -0.272 OA
ENDROOT
BRANCH   1   4
ATOM      4  C   UNL     1      -2.079   0.636  -1.613  0.00  0.00    +0.140 A 
ATOM      5  C   UNL     1      -1.281   1.083  -0.579  0.00  0.00    +0.127 A 
ATOM      6  N   UNL     1      -1.646   2.217   0.108  0.00  0.00    -0.280 N 
ATOM      7  C   UNL     1      -2.762   2.889  -0.230  0.00  0.00    +0.331 A 
ATOM      8  O   UNL     1      -3.065   3.892   0.388  0.00  0.00    -0.246 OA
ATOM      9  N   UNL     1      -3.548   2.471  -1.238  0.00  0.00    -0.273 N 
ATOM     10  H   UNL     1      -4.456   3.036  -1.497  0.00  0.00    +0.173 HD
ATOM     11  C   UNL     1      -3.239   1.363  -1.939  0.00  0.00    +0.277 A 
ATOM     12  O   UNL     1      -3.959   0.993  -2.851  0.00  0.00    -0.266 OA
BRANCH   5  13
ATOM     13  N   UNL     1      -0.138   0.400  -0.238  0.00  0.00    -0.343 N 
ATOM     14  H   UNL     1       0.493   0.762   0.587  0.00  0.00    +0.144 HD
ATOM     15  H   UNL     1       0.145  -0.508  -0.789  0.00  0.00    +0.144 HD
ENDBRANCH   5  13
BRANCH   6  16
ATOM     16  C   UNL     1      -0.812   2.699   1.212  0.00  0.00    +0.128 C 
BRANCH  16  17
ATOM     17  C   UNL     1      -1.284   2.067   2.522  0.00  0.00    +0.018 C 
ATOM     18  C   UNL     1      -0.413   2.571   3.675  0.00  0.00    +0.005 C 
ENDBRANCH  16  17
ENDBRANCH   6  16
ENDBRANCH   1   4
BRANCH   1  19
ATOM     19  C   UNL     1      -1.761  -1.834  -1.672  0.00  0.00    +0.114 C 
BRANCH  19  20
ATOM     20  C   UNL     1      -3.155  -2.449  -1.814  0.00  0.00    +0.019 C 
BRANCH  20  22
ATOM     21  C   UNL     1      -4.577  -4.429  -1.265  0.00  0.00    +0.004 C 
ATOM     22  C   UNL     1      -3.183  -3.814  -1.123  0.00  0.00    -0.002 C 
ENDBRANCH  20  22
ENDBRANCH  19  20
ENDBRANCH   1  19
BRANCH   2  23
ATOM     23  C   UNL     1      -1.120  -1.686  -4.432  0.00  0.00    +0.328 C 
BRANCH  23  24
ATOM     24  O   UNL     1      -0.758  -1.325  -5.791  0.00  0.00    -0.455 OA
BRANCH  24  25
ATOM     25  C   UNL     1      -0.492  -2.331  -6.639  0.00  0.00    +0.319 C 
ATOM     26  O   UNL     1      -0.560  -3.476  -6.258  0.00  0.00    -0.250 OA
BRANCH  25  27
ATOM     27  C   UNL     1      -0.110  -2.033  -8.066  0.00  0.00    +0.158 C 
BRANCH  27  28
ATOM     28  C   UNL     1       1.146  -1.199  -8.086  0.00  0.00    -0.029 A 
ATOM     29  C   UNL     1       2.258  -1.608  -7.374  0.00  0.00    +0.005 A 
ATOM     30  C   UNL     1       3.411  -0.845  -7.396  0.00  0.00    +0.000 A 
ATOM     31  C   UNL     1       3.448   0.330  -8.122  0.00  0.00    +0.000 A 
ATOM     32  C   UNL     1       2.334   0.742  -8.829  0.00  0.00    +0.000 A 
ATOM     33  C   UNL     1       1.183  -0.023  -8.811  0.00  0.00    +0.005 A 
ENDBRANCH  27  28
BRANCH  27  34
ATOM     34  C   UNL     1       0.134  -3.326  -8.801  0.00  0.00    -0.029 A 
ATOM     35  C   UNL     1       1.030  -4.250  -8.296  0.00  0.00    +0.005 A 
ATOM     36  C   UNL     1       1.250  -5.438  -8.968  0.00  0.00    +0.000 A 
ATOM     37  C   UNL     1       0.582  -5.697 -10.150  0.00  0.00    +0.000 A 
ATOM     38  C   UNL     1      -0.309  -4.771 -10.658  0.00  0.00    +0.000 A 
ATOM     39  C   UNL     1      -0.533  -3.585  -9.983  0.00  0.00    +0.005 A 
ENDBRANCH  27  34
ENDBRANCH  25  27
ENDBRANCH  24  25
ENDBRANCH  23  24
ENDBRANCH   2  23
TORSDOF 13
