REMARK  Name = ZINC09467019
REMARK  12 active torsions:
REMARK  status: ('A' for Active; 'I' for Inactive)
REMARK    1  A    between atoms: C_1  and  C_2
REMARK    2  A    between atoms: C_2  and  N_3
REMARK    3  A    between atoms: C_7  and  S_32
REMARK    4  A    between atoms: C_11  and  C_12
REMARK    5  A    between atoms: C_12  and  O_13
REMARK    6  A    between atoms: O_13  and  C_14
REMARK    7  A    between atoms: C_14  and  C_16
REMARK    8  A    between atoms: C_16  and  C_18
REMARK    9  A    between atoms: C_16  and  N_19
REMARK   10  A    between atoms: S_32  and  N_35
REMARK   11  A    between atoms: N_35  and  C_36
REMARK   12  A    between atoms: N_35  and  C_37
REMARK                            x       y       z     vdW  Elec       q    Type
REMARK                         _______ _______ _______ _____ _____    ______ ____
ROOT
ATOM      1  N   UNL     1      -1.372  -0.511   0.012  0.00  0.00    -0.325 N 
ATOM      2  C   UNL     1      -2.131  -0.795   1.130  0.00  0.00    +0.069 A 
ATOM      3  C   UNL     1      -1.905  -0.717   2.498  0.00  0.00    +0.030 A 
ATOM      4  C   UNL     1      -2.901  -1.087   3.377  0.00  0.00    +0.030 A 
ATOM      5  C   UNL     1      -4.125  -1.538   2.903  0.00  0.00    +0.108 A 
ATOM      6  C   UNL     1      -4.365  -1.622   1.561  0.00  0.00    +0.058 A 
ATOM      7  C   UNL     1      -3.371  -1.251   0.651  0.00  0.00    +0.091 A 
ATOM      8  N   UNL     1      -3.306  -1.222  -0.705  0.00  0.00    -0.229 NA
ATOM      9  C   UNL     1      -2.139  -0.784  -1.077  0.00  0.00    +0.149 A 
ENDROOT
BRANCH   5  10
ATOM     10  S   UNL     1      -5.383  -2.006   4.045  0.00  0.00    +0.060 S 
ATOM     11  O   UNL     1      -6.240  -2.908   3.358  0.00  0.00    -0.153 OA
ATOM     12  O   UNL     1      -4.723  -2.354   5.255  0.00  0.00    -0.153 OA
BRANCH  10  13
ATOM     13  N   UNL     1      -6.280  -0.652   4.368  0.00  0.00    -0.183 NA
ATOM     14  C   UNL     1      -7.449  -0.335   3.544  0.00  0.00    +0.131 C 
ATOM     15  C   UNL     1      -5.905   0.228   5.477  0.00  0.00    +0.131 C 
ENDBRANCH  10  13
ENDBRANCH   5  10
BRANCH   1  17
ATOM     16  C   UNL     1      -0.019   1.526   0.010  0.00  0.00    +0.027 C 
ATOM     17  C   UNL     1       0.002  -0.004   0.002  0.00  0.00    +0.120 C 
ENDBRANCH   1  17
BRANCH   9  18
ATOM     18  C   UNL     1      -1.700  -0.608  -2.508  0.00  0.00    +0.306 C 
BRANCH  18  19
ATOM     19  O   UNL     1      -1.095  -1.816  -2.973  0.00  0.00    -0.455 OA
BRANCH  19  20
ATOM     20  C   UNL     1      -0.646  -1.825  -4.238  0.00  0.00    +0.328 C 
ATOM     21  O   UNL     1      -0.763  -0.840  -4.928  0.00  0.00    -0.249 OA
BRANCH  20  22
ATOM     22  C   UNL     1       0.005  -3.064  -4.798  0.00  0.00    +0.189 C 
ATOM     23  C   UNL     1      -0.988  -4.227  -4.749  0.00  0.00    +0.040 C 
BRANCH  22  24
ATOM     24  N   UNL     1       0.405  -2.821  -6.186  0.00  0.00    -0.228 N 
ATOM     25  C   UNL     1      -0.469  -2.488  -7.152  0.00  0.00    +0.226 C 
ATOM     26  O   UNL     1      -1.636  -2.204  -6.992  0.00  0.00    -0.275 OA
ATOM     27  C   UNL     1       0.272  -2.530  -8.487  0.00  0.00    +0.087 C 
ATOM     28  C   UNL     1      -0.085  -3.831  -9.179  0.00  0.00    +0.013 C 
ATOM     29  C   UNL     1       0.993  -4.293 -10.149  0.00  0.00    +0.001 C 
ATOM     30  C   UNL     1       2.299  -4.483  -9.369  0.00  0.00    +0.001 C 
ATOM     31  C   UNL     1       2.756  -3.118  -8.868  0.00  0.00    +0.013 C 
ATOM     32  C   UNL     1       1.720  -2.403  -8.034  0.00  0.00    +0.087 C 
ATOM     33  C   UNL     1       1.681  -2.905  -6.607  0.00  0.00    +0.226 C 
ATOM     34  O   UNL     1       2.624  -3.311  -5.963  0.00  0.00    -0.275 OA
ENDBRANCH  22  24
ENDBRANCH  20  22
ENDBRANCH  19  20
ENDBRANCH  18  19
ENDBRANCH   9  18
TORSDOF 8
