REMARK  Name = ZINC11027880
REMARK  7 active torsions:
REMARK  status: ('A' for Active; 'I' for Inactive)
REMARK    1  A    between atoms: C_1  and  C_2
REMARK    2  A    between atoms: C_2  and  C_4
REMARK    3  A    between atoms: C_2  and  O_17
REMARK    4  A    between atoms: N_6  and  C_7
REMARK    5  A    between atoms: C_9  and  N_14
REMARK    6  A    between atoms: O_17  and  C_18
REMARK    7  A    between atoms: C_18  and  C_20
REMARK                            x       y       z     vdW  Elec       q    Type
REMARK                         _______ _______ _______ _____ _____    ______ ____
ROOT
ATOM      1  C   UNL     1      -2.373  -0.070   0.127  0.00  0.00    +0.258 C 
ATOM      2  O   UNL     1      -2.395   1.143   0.134  0.00  0.00    -0.271 OA
ATOM      3  N   UNL     1      -1.200  -0.722   0.010  0.00  0.00    -0.281 N 
ATOM      4  H   UNL     1      -1.188  -1.688  -0.076  0.00  0.00    +0.155 HD
ENDROOT
BRANCH   3   5
ATOM      5  C   UNL     1       0.003  -0.005   0.013  0.00  0.00    +0.054 A 
ATOM      6  C   UNL     1       0.070   1.238   0.627  0.00  0.00    +0.057 A 
ATOM      7  C   UNL     1       1.258   1.943   0.629  0.00  0.00    +0.128 A 
ATOM      8  C   UNL     1       2.380   1.413   0.020  0.00  0.00    +0.034 A 
ATOM      9  C   UNL     1       2.317   0.174  -0.593  0.00  0.00    +0.024 A 
ATOM     10  C   UNL     1       1.132  -0.536  -0.598  0.00  0.00    +0.062 A 
ATOM     11 CL   UNL     1       1.054  -2.091  -1.367  0.00  0.00    -0.082 Cl
BRANCH   7  12
ATOM     12  N   UNL     1       1.329   3.269   1.284  0.00  0.00    +0.056 N 
ATOM     13  O   UNL     1       0.341   3.737   1.820  0.00  0.00    -0.126 OA
ATOM     14  O   UNL     1       2.376   3.891   1.286  0.00  0.00    -0.126 OA
ENDBRANCH   7  12
ENDBRANCH   3   5
BRANCH   1  16
ATOM     15  C   UNL     1      -3.654  -1.638   1.559  0.00  0.00    +0.062 C 
ATOM     16  C   UNL     1      -3.658  -0.848   0.249  0.00  0.00    +0.259 C 
BRANCH  16  17
ATOM     17  O   UNL     1      -4.783   0.071   0.242  0.00  0.00    -0.449 OA
BRANCH  17  18
ATOM     18  C   UNL     1      -5.943  -0.386  -0.267  0.00  0.00    +0.341 C 
ATOM     19  O   UNL     1      -6.013  -1.521  -0.694  0.00  0.00    -0.245 OA
BRANCH  18  20
ATOM     20  C   UNL     1      -7.129   0.493  -0.307  0.00  0.00    +0.078 A 
ATOM     21  C   UNL     1      -8.340   0.032  -0.839  0.00  0.00    +0.033 A 
ATOM     22  C   UNL     1      -9.423   0.895  -0.849  0.00  0.00    +0.037 A 
ATOM     23  C   UNL     1      -9.273   2.176  -0.346  0.00  0.00    +0.126 A 
ATOM     24  N   UNL     1      -8.119   2.584   0.145  0.00  0.00    -0.261 NA
ATOM     25  C   UNL     1      -7.061   1.800   0.181  0.00  0.00    +0.125 A 
ATOM     26 BR   UNL     1     -11.087   0.332  -1.549  0.00  0.00    -0.049 Br
ENDBRANCH  18  20
ENDBRANCH  17  18
ENDBRANCH  16  17
ENDBRANCH   1  16
TORSDOF 6
