REMARK  Name = ZINC08971530
REMARK  9 active torsions:
REMARK  status: ('A' for Active; 'I' for Inactive)
REMARK    1  A    between atoms: C_1  and  C_2
REMARK    2  A    between atoms: C_2  and  C_4
REMARK    3  A    between atoms: C_2  and  C_5
REMARK    4  A    between atoms: C_5  and  C_7
REMARK    5  A    between atoms: C_5  and  N_16
REMARK    6  A    between atoms: C_10  and  S_12
REMARK    7  A    between atoms: S_12  and  C_15
REMARK    8  A    between atoms: N_16  and  S_17
REMARK    9  A    between atoms: S_17  and  C_20
REMARK                            x       y       z     vdW  Elec       q    Type
REMARK                         _______ _______ _______ _____ _____    ______ ____
ROOT
ATOM      1  C   UNL     1      -0.977   1.036  -1.395  0.00  0.00    +0.166 C 
ENDROOT
BRANCH   1   2
ATOM      2  C   UNL     1      -0.467   0.329  -2.624  0.00  0.00    +0.238 A 
ATOM      3  N   UNL     1      -0.846  -0.842  -3.053  0.00  0.00    -0.109 NA
ATOM      4  N   UNL     1      -0.205  -1.130  -4.130  0.00  0.00    -0.090 NA
ATOM      5  C   UNL     1       0.612  -0.158  -4.421  0.00  0.00    +0.360 A 
ATOM      6  O   UNL     1       0.466   0.786  -3.476  0.00  0.00    -0.406 OA
BRANCH   5   7
ATOM      7  S   UNL     1       1.708  -0.093  -5.799  0.00  0.00    +0.047 S 
ATOM      8  O   UNL     1       2.761   0.767  -5.385  0.00  0.00    -0.165 OA
ATOM      9  O   UNL     1       1.967  -1.453  -6.120  0.00  0.00    -0.165 OA
ATOM     10  C   UNL     1       0.746   0.689  -7.123  0.00  0.00    +0.206 C 
ENDBRANCH   5   7
ENDBRANCH   1   2
BRANCH   1  12
ATOM     11  C   UNL     1       1.135   0.578  -0.140  0.00  0.00    +0.009 C 
ATOM     12  C   UNL     1      -0.383   0.381  -0.146  0.00  0.00    +0.011 C 
ATOM     13  C   UNL     1      -0.986   1.025   1.103  0.00  0.00    +0.009 C 
ENDBRANCH   1  12
BRANCH   1  14
ATOM     14  N   UNL     1      -2.438   0.943  -1.348  0.00  0.00    -0.182 NA
ATOM     15  H   UNL     1      -2.867   0.073  -1.324  0.00  0.00    +0.148 HD
BRANCH  14  16
ATOM     16  S   UNL     1      -3.356   2.321  -1.335  0.00  0.00    +0.034 S 
ATOM     17  O   UNL     1      -4.696   1.863  -1.217  0.00  0.00    -0.158 OA
ATOM     18  O   UNL     1      -2.776   3.133  -0.323  0.00  0.00    -0.158 OA
BRANCH  16  19
ATOM     19  C   UNL     1      -3.093   3.072  -2.965  0.00  0.00    +0.170 C 
ATOM     20  C   UNL     1      -1.627   3.515  -3.102  0.00  0.00    +0.052 C 
ATOM     21  C   UNL     1      -1.466   4.432  -4.338  0.00  0.00    +0.168 C 
ATOM     22  S   UNL     1      -3.129   5.203  -4.487  0.00  0.00    -0.029 S 
ATOM     23  O   UNL     1      -3.711   4.813  -5.724  0.00  0.00    -0.174 OA
ATOM     24  O   UNL     1      -3.029   6.584  -4.167  0.00  0.00    -0.174 OA
ATOM     25  C   UNL     1      -3.995   4.330  -3.115  0.00  0.00    +0.193 C 
ENDBRANCH  16  19
ENDBRANCH  14  16
ENDBRANCH   1  14
TORSDOF 6
