REMARK  Name = ZINC36888059
REMARK  4 active torsions:
REMARK  status: ('A' for Active; 'I' for Inactive)
REMARK    1  A    between atoms: C_3  and  S_12
REMARK    2  A    between atoms: C_6  and  C_7
REMARK    3  A    between atoms: N_8  and  O_9
REMARK    4  A    between atoms: S_12  and  C_13
REMARK                            x       y       z     vdW  Elec       q    Type
REMARK                         _______ _______ _______ _____ _____    ______ ____
ROOT
ATOM      1  C   UNL     1       0.208   0.724  -0.162  0.00  0.00    +0.012 A 
ATOM      2  C   UNL     1       1.250   1.624  -0.119  0.00  0.00    +0.018 A 
ATOM      3  C   UNL     1       2.564   1.169  -0.078  0.00  0.00    +0.048 A 
ATOM      4  C   UNL     1       2.829  -0.199  -0.079  0.00  0.00    +0.138 A 
ATOM      5  C   UNL     1       1.790  -1.104  -0.123  0.00  0.00    +0.051 A 
ATOM      6  C   UNL     1       0.471  -0.647  -0.164  0.00  0.00    +0.020 A 
ATOM      7  F   UNL     1       4.106  -0.639  -0.039  0.00  0.00    -0.204 F 
ENDROOT
BRANCH   6   8
ATOM      8  C   UNL     1      -0.647  -1.615  -0.210  0.00  0.00    +0.162 C 
ATOM      9  N   UNL     1      -1.876  -1.188  -0.248  0.00  0.00    -0.072 NA
ATOM     10  N   UNL     1      -0.385  -2.975  -0.212  0.00  0.00    -0.340 N 
ATOM     11  H   UNL     1       0.531  -3.293  -0.183  0.00  0.00    +0.144 HD
ATOM     12  H   UNL     1      -1.118  -3.610  -0.242  0.00  0.00    +0.144 HD
BRANCH   9  13
ATOM     13  O   UNL     1      -2.946  -2.115  -0.292  0.00  0.00    -0.408 OA
ATOM     14  H   UNL     1      -3.821  -1.705  -0.319  0.00  0.00    +0.328 HD
ENDBRANCH   9  13
ENDBRANCH   6   8
BRANCH   3  15
ATOM     15  S   UNL     1       3.893   2.324  -0.023  0.00  0.00    -0.085 S 
BRANCH  15  16
ATOM     16  C   UNL     1       4.428   2.279   1.655  0.00  0.00    +0.032 A 
ATOM     17  C   UNL     1       3.724   1.532   2.591  0.00  0.00    +0.036 A 
ATOM     18  C   UNL     1       4.146   1.499   3.906  0.00  0.00    +0.042 A 
ATOM     19  C   UNL     1       5.269   2.210   4.292  0.00  0.00    +0.021 A 
ATOM     20  C   UNL     1       5.973   2.955   3.363  0.00  0.00    +0.022 A 
ATOM     21  C   UNL     1       5.559   2.987   2.045  0.00  0.00    +0.055 A 
ATOM     22 CL   UNL     1       6.448   3.917   0.879  0.00  0.00    -0.082 Cl
ATOM     23 CL   UNL     1       3.266   0.566   5.076  0.00  0.00    -0.084 Cl
ENDBRANCH  15  16
ENDBRANCH   3  15
TORSDOF 4
