REMARK  Name = ZINC33141556
REMARK  7 active torsions:
REMARK  status: ('A' for Active; 'I' for Inactive)
REMARK    1  A    between atoms: C_1  and  C_2
REMARK    2  A    between atoms: C_5  and  C_35
REMARK    3  A    between atoms: C_6  and  N_8
REMARK    4  A    between atoms: C_9  and  C_11
REMARK    5  A    between atoms: C_11  and  N_12
REMARK    6  A    between atoms: C_26  and  C_29
REMARK    7  A    between atoms: N_31  and  C_32
REMARK                            x       y       z     vdW  Elec       q    Type
REMARK                         _______ _______ _______ _____ _____    ______ ____
ROOT
ATOM      1  N   UNL     1      -8.979   0.497   0.114  0.00  0.00    -0.289 N 
ATOM      2  C   UNL     1      -8.813   1.838   0.245  0.00  0.00    +0.204 A 
ATOM      3  N   UNL     1      -7.651   2.411   0.270  0.00  0.00    -0.217 NA
ATOM      4  C   UNL     1      -6.492   1.697   0.165  0.00  0.00    +0.176 A 
ATOM      5  C   UNL     1      -6.637   0.304   0.027  0.00  0.00    +0.124 A 
ATOM      6  C   UNL     1      -7.887  -0.298   0.002  0.00  0.00    +0.270 A 
ATOM      7  O   UNL     1      -7.999  -1.508  -0.118  0.00  0.00    -0.266 OA
ATOM      8  S   UNL     1      -4.953  -0.241  -0.084  0.00  0.00    -0.045 S 
ATOM      9  C   UNL     1      -4.202   1.319   0.060  0.00  0.00    +0.164 A 
ATOM     10  N   UNL     1      -5.232   2.133   0.172  0.00  0.00    -0.205 NA
ATOM     11  N   UNL     1      -2.860   1.629   0.052  0.00  0.00    -0.309 N 
ATOM     12  C   UNL     1      -2.209   1.120  -1.162  0.00  0.00    +0.107 C 
ATOM     13  C   UNL     1      -0.759   1.606  -1.207  0.00  0.00    +0.020 C 
ATOM     14  C   UNL     1      -0.020   1.107   0.037  0.00  0.00    +0.016 C 
ATOM     15  C   UNL     1      -0.744   1.611   1.289  0.00  0.00    +0.092 C 
ATOM     16  C   UNL     1      -2.196   1.125   1.261  0.00  0.00    +0.119 C 
ENDROOT
BRANCH  15  17
ATOM     17  C   UNL     1      -0.056   1.076   2.518  0.00  0.00    +0.218 C 
ATOM     18  O   UNL     1       0.918   0.361   2.405  0.00  0.00    -0.275 OA
ATOM     19  N   UNL     1      -0.522   1.390   3.743  0.00  0.00    -0.312 N 
ATOM     20  H   UNL     1      -1.405   2.038   3.845  0.00  0.00    +0.149 HD
BRANCH  19  21
ATOM     21  C   UNL     1       0.147   0.870   4.938  0.00  0.00    +0.073 C 
ATOM     22  C   UNL     1      -0.737   0.331   6.064  0.00  0.00    +0.024 C 
ATOM     23  C   UNL     1      -0.006   1.665   6.236  0.00  0.00    +0.024 C 
ENDBRANCH  19  21
ENDBRANCH  15  17
BRANCH   1  24
ATOM     24  C   UNL     1     -10.324  -0.085   0.094  0.00  0.00    +0.222 C 
BRANCH  24  26
ATOM     25  N   UNL     1     -12.049  -0.641  -1.589  0.00  0.00    -0.284 N 
ATOM     26  C   UNL     1     -10.826  -0.140  -1.326  0.00  0.00    +0.237 C 
ATOM     27  O   UNL     1     -10.129   0.266  -2.232  0.00  0.00    -0.274 OA
ATOM     28  H   UNL     1     -12.644  -1.092  -0.782  0.00  0.00    +0.155 HD
BRANCH  25  34
ATOM     29  C   UNL     1     -12.123   1.477  -6.026  0.00  0.00    +0.044 C 
ATOM     30  C   UNL     1     -12.615   0.429  -5.061  0.00  0.00    -0.049 A 
ATOM     31  C   UNL     1     -13.577  -0.481  -5.462  0.00  0.00    +0.004 A 
ATOM     32  C   UNL     1     -14.032  -1.444  -4.580  0.00  0.00    +0.005 A 
ATOM     33  C   UNL     1     -13.527  -1.500  -3.295  0.00  0.00    -0.029 A 
ATOM     34  C   UNL     1     -12.562  -0.588  -2.890  0.00  0.00    +0.037 A 
ATOM     35  C   UNL     1     -12.111   0.382  -3.777  0.00  0.00    +0.027 A 
ATOM     36  C   UNL     1     -14.024  -2.549  -2.335  0.00  0.00    +0.045 C 
ENDBRANCH  25  34
ENDBRANCH  24  26
ENDBRANCH   1  24
TORSDOF 5
