REMARK  Name = ZINC09209668
REMARK  8 active torsions:
REMARK  status: ('A' for Active; 'I' for Inactive)
REMARK    1  A    between atoms: C_1  and  O_2
REMARK    2  A    between atoms: O_2  and  C_3
REMARK    3  A    between atoms: C_6  and  C_11
REMARK    4  A    between atoms: C_8  and  O_9
REMARK    5  A    between atoms: O_9  and  C_10
REMARK    6  A    between atoms: C_16  and  O_40
REMARK    7  A    between atoms: C_24  and  C_29
REMARK    8  A    between atoms: C_38  and  O_39
REMARK                            x       y       z     vdW  Elec       q    Type
REMARK                         _______ _______ _______ _____ _____    ______ ____
ROOT
ATOM      1  C   UNL     1      -4.987  -2.627   0.035  0.00  0.00    +0.091 C 
ATOM      2  C   UNL     1      -5.764  -2.234  -1.194  0.00  0.00    +0.007 A 
ATOM      3  C   UNL     1      -5.447  -2.805  -2.413  0.00  0.00    +0.012 A 
ATOM      4  C   UNL     1      -6.150  -2.455  -3.549  0.00  0.00    +0.046 A 
ATOM      5  C   UNL     1      -7.180  -1.527  -3.467  0.00  0.00    +0.120 A 
ATOM      6  C   UNL     1      -7.499  -0.954  -2.248  0.00  0.00    +0.092 A 
ATOM      7  C   UNL     1      -6.790  -1.307  -1.106  0.00  0.00    +0.138 A 
ATOM      8  O   UNL     1      -7.117  -0.738   0.079  0.00  0.00    -0.437 OA
ATOM      9  C   UNL     1      -6.760  -1.329   1.243  0.00  0.00    +0.230 A 
ATOM     10  C   UNL     1      -5.742  -2.239   1.269  0.00  0.00    +0.070 A 
ATOM     11  C   UNL     1      -5.433  -2.799   2.520  0.00  0.00    +0.167 A 
ATOM     12  N   UNL     1      -4.540  -3.677   2.907  0.00  0.00    -0.206 NA
ATOM     13  C   UNL     1      -4.655  -3.880   4.226  0.00  0.00    +0.186 A 
ATOM     14  N   UNL     1      -5.633  -3.127   4.705  0.00  0.00    -0.143 NA
ATOM     15  N   UNL     1      -6.158  -2.416   3.635  0.00  0.00    -0.201 N 
ATOM     16  C   UNL     1      -7.161  -1.508   3.535  0.00  0.00    +0.229 A 
ATOM     17  N   UNL     1      -7.423  -1.005   2.365  0.00  0.00    -0.201 NA
ENDROOT
BRANCH  13  18
ATOM     18  C   UNL     1      -3.817  -4.805   5.026  0.00  0.00    +0.063 A 
ATOM     19  C   UNL     1      -2.804  -5.547   4.398  0.00  0.00    +0.016 A 
ATOM     20  C   UNL     1      -2.023  -6.401   5.108  0.00  0.00    +0.009 A 
ATOM     21  C   UNL     1      -2.220  -6.554   6.492  0.00  0.00    -0.014 A 
ATOM     22  C   UNL     1      -1.423  -7.433   7.245  0.00  0.00    +0.008 A 
ATOM     23  C   UNL     1      -1.637  -7.559   8.584  0.00  0.00    +0.001 A 
ATOM     24  C   UNL     1      -2.639  -6.830   9.222  0.00  0.00    +0.001 A 
ATOM     25  C   UNL     1      -3.431  -5.970   8.524  0.00  0.00    +0.012 A 
ATOM     26  C   UNL     1      -3.238  -5.813   7.142  0.00  0.00    +0.024 A 
ATOM     27  C   UNL     1      -4.036  -4.927   6.391  0.00  0.00    +0.135 A 
BRANCH  27  28
ATOM     28  O   UNL     1      -5.012  -4.204   6.996  0.00  0.00    -0.505 OA
ATOM     29  H   UNL     1      -5.872  -4.647   7.020  0.00  0.00    +0.292 HD
ENDBRANCH  27  28
ENDBRANCH  13  18
BRANCH   1  33
ATOM     30  C   UNL     1      -1.201  -0.638   0.010  0.00  0.00    +0.162 A 
ATOM     31  C   UNL     1      -2.374   0.099   0.019  0.00  0.00    +0.050 A 
ATOM     32  C   UNL     1      -3.596  -0.546   0.027  0.00  0.00    +0.008 A 
ATOM     33  C   UNL     1      -3.652  -1.928   0.026  0.00  0.00    -0.032 A 
ATOM     34  C   UNL     1      -2.485  -2.669   0.017  0.00  0.00    +0.054 A 
ATOM     35  C   UNL     1      -1.257  -2.028   0.003  0.00  0.00    +0.162 A 
BRANCH  30  37
ATOM     36  C   UNL     1      -0.017   1.425   0.010  0.00  0.00    +0.277 C 
ATOM     37  O   UNL     1       0.002  -0.004   0.002  0.00  0.00    -0.491 OA
ENDBRANCH  30  37
BRANCH  35  38
ATOM     38  O   UNL     1      -0.108  -2.756  -0.012  0.00  0.00    -0.491 OA
ATOM     39  C   UNL     1      -0.242  -4.179  -0.018  0.00  0.00    +0.277 C 
ENDBRANCH  35  38
ENDBRANCH   1  33
BRANCH   5  40
ATOM     40  O   UNL     1      -7.874  -1.182  -4.584  0.00  0.00    -0.507 OA
ATOM     41  H   UNL     1      -8.650  -1.734  -4.751  0.00  0.00    +0.292 HD
ENDBRANCH   5  40
TORSDOF 6
