REMARK  Name = ZINC51172050
REMARK  2 active torsions:
REMARK  status: ('A' for Active; 'I' for Inactive)
REMARK    1  A    between atoms: C_6  and  N_7
REMARK    2  A    between atoms: C_9  and  C_11
REMARK                            x       y       z     vdW  Elec       q    Type
REMARK                         _______ _______ _______ _____ _____    ______ ____
ROOT
ATOM      1  C   UNL     1      -0.017   1.389   0.010  0.00  0.00    +0.025 A 
ATOM      2  C   UNL     1       1.161   2.100   0.002  0.00  0.00    +0.033 A 
ATOM      3  C   UNL     1       2.383   1.421  -0.013  0.00  0.00    +0.110 A 
ATOM      4  C   UNL     1       2.400   0.017  -0.021  0.00  0.00    +0.157 A 
ATOM      5  C   UNL     1       1.208  -0.688  -0.014  0.00  0.00    +0.071 A 
ATOM      6  C   UNL     1       0.002  -0.004   0.002  0.00  0.00    +0.028 A 
ATOM      7  O   UNL     1       3.702  -0.350  -0.035  0.00  0.00    -0.435 OA
ATOM      8  C   UNL     1       4.453   0.769  -0.036  0.00  0.00    +0.235 A 
ATOM      9  N   UNL     1       3.679   1.829  -0.023  0.00  0.00    -0.209 NA
ENDROOT
BRANCH   8  10
ATOM     10  C   UNL     1       5.921   0.798  -0.050  0.00  0.00    +0.075 A 
ATOM     11  C   UNL     1       6.772   1.889  -0.046  0.00  0.00    +0.022 A 
ATOM     12  C   UNL     1       8.127   1.663  -0.060  0.00  0.00    +0.028 A 
ATOM     13  C   UNL     1       8.587   0.382  -0.077  0.00  0.00    +0.079 A 
ATOM     14  S   UNL     1       7.074  -0.565  -0.066  0.00  0.00    -0.072 S 
ATOM     15 CL   UNL     1      10.227  -0.186  -0.097  0.00  0.00    -0.076 Cl
ENDBRANCH   8  10
BRANCH   6  16
ATOM     16  N   UNL     1      -1.201  -0.716   0.010  0.00  0.00    -0.358 N 
ATOM     17  H   UNL     1      -2.046  -0.240   0.020  0.00  0.00    +0.142 HD
ATOM     18  H   UNL     1      -1.191  -1.686   0.004  0.00  0.00    +0.142 HD
ENDBRANCH   6  16
TORSDOF 2
