REMARK  Name = ZINC41585827
REMARK  5 active torsions:
REMARK  status: ('A' for Active; 'I' for Inactive)
REMARK    1  A    between atoms: C_1  and  C_2
REMARK    2  A    between atoms: C_4  and  O_31
REMARK    3  A    between atoms: C_5  and  C_18
REMARK    4  A    between atoms: C_11  and  C_12
REMARK    5  A    between atoms: C_18  and  N_19
REMARK                            x       y       z     vdW  Elec       q    Type
REMARK                         _______ _______ _______ _____ _____    ______ ____
ROOT
ATOM      1  C   UNL     1      -0.082   1.475   0.049  0.00  0.00    +0.045 C 
ATOM      2  C   UNL     1      -0.047  -0.032   0.025  0.00  0.00    -0.033 A 
ATOM      3  C   UNL     1      -0.024  -0.697  -1.169  0.00  0.00    +0.050 A 
ATOM      4  C   UNL     1       0.008  -2.089  -1.195  0.00  0.00    +0.125 A 
ATOM      5  C   UNL     1       0.015  -2.815  -0.015  0.00  0.00    +0.051 A 
ATOM      6  C   UNL     1      -0.008  -2.155   1.205  0.00  0.00    +0.148 A 
ATOM      7  C   UNL     1      -0.034  -0.750   1.220  0.00  0.00    +0.071 A 
ATOM      8  C   UNL     1      -0.046  -0.357   2.640  0.00  0.00    +0.232 C 
ATOM      9  O   UNL     1      -0.074   0.774   3.096  0.00  0.00    -0.283 OA
ATOM     10  C   UNL     1      -0.020  -1.579   3.364  0.00  0.00    +0.177 C 
ATOM     11  C   UNL     1      -0.020  -1.700   4.723  0.00  0.00    +0.065 C 
ATOM     12  O   UNL     1      -0.007  -2.603   2.479  0.00  0.00    -0.451 OA
ENDROOT
BRANCH  11  13
ATOM     13  C   UNL     1       0.008  -2.981   5.318  0.00  0.00    +0.016 A 
ATOM     14  C   UNL     1       0.007  -3.322   6.668  0.00  0.00    +0.015 A 
ATOM     15  C   UNL     1       0.038  -4.668   6.941  0.00  0.00    +0.008 A 
ATOM     16  C   UNL     1       0.068  -5.550   5.910  0.00  0.00    +0.046 A 
ATOM     17  S   UNL     1       0.046  -4.583   4.537  0.00  0.00    -0.097 S 
ENDBRANCH  11  13
BRANCH   4  18
ATOM     18  O   UNL     1       0.031  -2.739  -2.386  0.00  0.00    -0.506 OA
ATOM     19  H   UNL     1       0.920  -2.908  -2.725  0.00  0.00    +0.292 HD
ENDBRANCH   4  18
BRANCH   5  20
ATOM     20  C   UNL     1       0.049  -4.322  -0.057  0.00  0.00    +0.127 C 
BRANCH  20  21
ATOM     21  N   UNL     1       1.444  -4.781  -0.061  0.00  0.00    -0.295 NA
ATOM     22  C   UNL     1       2.113  -4.444   1.203  0.00  0.00    +0.103 C 
ATOM     23  C   UNL     1       3.605  -4.774   1.092  0.00  0.00    +0.122 C 
ATOM     24  N   UNL     1       3.743  -6.176   0.669  0.00  0.00    -0.314 N 
ATOM     25  C   UNL     1       2.992  -6.624  -0.513  0.00  0.00    +0.122 C 
ATOM     26  C   UNL     1       1.524  -6.221  -0.339  0.00  0.00    +0.103 C 
ATOM     27  C   UNL     1       4.561  -7.055   1.369  0.00  0.00    +0.099 A 
ATOM     28  C   UNL     1       4.582  -8.402   1.023  0.00  0.00    +0.042 A 
ATOM     29  C   UNL     1       5.401  -9.266   1.728  0.00  0.00    +0.005 A 
ATOM     30  C   UNL     1       6.175  -8.751   2.759  0.00  0.00    +0.018 A 
ATOM     31  C   UNL     1       6.106  -7.403   3.049  0.00  0.00    +0.084 A 
ATOM     32  N   UNL     1       5.319  -6.601   2.356  0.00  0.00    -0.350 N 
ATOM     33  H   UNL     1       5.292  -5.657   2.578  0.00  0.00    +0.166 HD
ENDBRANCH  20  21
ENDBRANCH   5  20
TORSDOF 4
