REMARK  Name = ZINC12513189
REMARK  8 active torsions:
REMARK  status: ('A' for Active; 'I' for Inactive)
REMARK    1  A    between atoms: C_1  and  O_2
REMARK    2  A    between atoms: O_2  and  C_3
REMARK    3  A    between atoms: C_6  and  S_9
REMARK    4  A    between atoms: S_9  and  C_10
REMARK    5  A    between atoms: C_13  and  C_24
REMARK    6  A    between atoms: C_16  and  C_17
REMARK    7  A    between atoms: C_16  and  N_59
REMARK    8  A    between atoms: N_26  and  C_27
REMARK                            x       y       z     vdW  Elec       q    Type
REMARK                         _______ _______ _______ _____ _____    ______ ____
ROOT
ATOM      1  C   UNL     1      -1.732   3.433  -2.217  0.00  0.00    +0.034 C 
ATOM      2  C   UNL     1      -2.940   2.516  -1.916  0.00  0.00    +0.006 C 
ATOM      3  C   UNL     1      -2.355   1.323  -1.138  0.00  0.00    +0.021 C 
ATOM      4  C   UNL     1      -0.701   3.013  -1.140  0.00  0.00    -0.063 C 
ATOM      5  N   UNL     1      -0.910   1.563  -1.052  0.00  0.00    +0.391 N 
ATOM      6  H   UNL     1      -0.433   1.096  -1.833  0.00  0.00    -0.080 HD
ENDROOT
BRANCH   3   7
ATOM      7  C   UNL     1      -2.630   0.041  -1.881  0.00  0.00    +0.200 C 
ATOM      8  O   UNL     1      -1.708  -0.632  -2.291  0.00  0.00    -0.278 OA
ATOM      9  N   UNL     1      -3.900  -0.358  -2.089  0.00  0.00    -0.312 N 
ATOM     10  H   UNL     1      -4.638   0.180  -1.761  0.00  0.00    +0.149 HD
BRANCH   9  11
ATOM     11  C   UNL     1      -4.168  -1.604  -2.812  0.00  0.00    +0.095 C 
ATOM     12  C   UNL     1      -5.542  -2.158  -2.400  0.00  0.00    +0.046 C 
ATOM     13  C   UNL     1      -5.972  -3.280  -3.376  0.00  0.00    +0.168 C 
ATOM     14  S   UNL     1      -5.117  -2.809  -4.935  0.00  0.00    -0.029 S 
ATOM     15  O   UNL     1      -4.187  -3.827  -5.278  0.00  0.00    -0.174 OA
ATOM     16  O   UNL     1      -6.088  -2.400  -5.888  0.00  0.00    -0.174 OA
ATOM     17  C   UNL     1      -4.195  -1.329  -4.342  0.00  0.00    +0.188 C 
ENDBRANCH   9  11
ENDBRANCH   3   7
BRANCH   1  18
ATOM     18  S   UNL     1      -2.183   5.179  -2.028  0.00  0.00    -0.124 S 
BRANCH  18  22
ATOM     19  C   UNL     1       1.567   7.417  -3.239  0.00  0.00    +0.120 A 
ATOM     20  C   UNL     1       1.504   6.039  -3.386  0.00  0.00    +0.047 A 
ATOM     21  C   UNL     1       0.362   5.356  -3.018  0.00  0.00    +0.018 A 
ATOM     22  C   UNL     1      -0.725   6.049  -2.499  0.00  0.00    +0.008 A 
ATOM     23  C   UNL     1      -0.662   7.430  -2.357  0.00  0.00    +0.018 A 
ATOM     24  C   UNL     1       0.483   8.110  -2.721  0.00  0.00    +0.047 A 
BRANCH  19  26
ATOM     25  C   UNL     1       2.688   9.506  -3.423  0.00  0.00    +0.277 C 
ATOM     26  O   UNL     1       2.692   8.088  -3.602  0.00  0.00    -0.495 OA
ENDBRANCH  19  26
ENDBRANCH  18  22
ENDBRANCH   1  18
BRANCH   5  27
ATOM     27  C   UNL     1      -0.373   1.031   0.236  0.00  0.00    -0.042 C 
BRANCH  27  28
ATOM     28  C   UNL     1      -1.248   1.506   1.367  0.00  0.00    -0.064 A 
ATOM     29  C   UNL     1      -0.967   2.700   2.004  0.00  0.00    +0.003 A 
ATOM     30  C   UNL     1      -1.773   3.139   3.037  0.00  0.00    +0.020 A 
ATOM     31  C   UNL     1      -2.855   2.378   3.442  0.00  0.00    +0.041 A 
ATOM     32  C   UNL     1      -3.133   1.180   2.808  0.00  0.00    +0.020 A 
ATOM     33  C   UNL     1      -2.329   0.745   1.770  0.00  0.00    +0.003 A 
ATOM     34 CL   UNL     1      -3.864   2.926   4.744  0.00  0.00    -0.084 Cl
ENDBRANCH  27  28
ENDBRANCH   5  27
TORSDOF 7
