REMARK  Name = ZINC59577197
REMARK  8 active torsions:
REMARK  status: ('A' for Active; 'I' for Inactive)
REMARK    1  A    between atoms: C_1  and  C_2
REMARK    2  A    between atoms: C_2  and  C_3
REMARK    3  A    between atoms: C_2  and  C_4
REMARK    4  A    between atoms: C_7  and  C_10
REMARK    5  A    between atoms: C_10  and  C_12
REMARK    6  A    between atoms: C_10  and  N_17
REMARK    7  A    between atoms: C_18  and  C_20
REMARK    8  A    between atoms: N_30  and  C_31
REMARK                            x       y       z     vdW  Elec       q    Type
REMARK                         _______ _______ _______ _____ _____    ______ ____
ROOT
ATOM      1  N   UNL     1      -5.972  -1.947  -1.312  0.00  0.00    -0.300 N 
ATOM      2  C   UNL     1      -7.305  -1.869  -1.494  0.00  0.00    +0.245 C 
ATOM      3  O   UNL     1      -8.049  -1.846  -0.532  0.00  0.00    -0.270 OA
ATOM      4  H   UNL     1      -5.378  -1.965  -2.079  0.00  0.00    +0.150 HD
ENDROOT
BRANCH   2   5
ATOM      5  C   UNL     1      -7.862  -1.810  -2.859  0.00  0.00    +0.039 A 
ATOM      6  C   UNL     1      -7.006  -1.843  -3.963  0.00  0.00    +0.015 A 
ATOM      7  C   UNL     1      -7.525  -1.790  -5.239  0.00  0.00    +0.026 A 
ATOM      8  C   UNL     1      -8.897  -1.704  -5.426  0.00  0.00    +0.051 A 
ATOM      9  C   UNL     1      -9.760  -1.669  -4.326  0.00  0.00    +0.055 A 
ATOM     10  C   UNL     1      -9.245  -1.729  -3.046  0.00  0.00    +0.038 A 
ATOM     11  N   UNL     1     -11.142  -1.571  -4.535  0.00  0.00    -0.283 N 
ATOM     12  C   UNL     1     -11.668  -1.800  -5.754  0.00  0.00    +0.235 C 
ATOM     13  O   UNL     1     -12.862  -1.669  -5.926  0.00  0.00    -0.274 OA
ATOM     14  C   UNL     1     -10.790  -2.215  -6.906  0.00  0.00    +0.200 C 
ATOM     15  N   UNL     1      -9.444  -1.656  -6.709  0.00  0.00    -0.323 N 
ATOM     16  C   UNL     1      -8.701  -1.066  -7.825  0.00  0.00    +0.130 C 
ATOM     17  H   UNL     1     -11.725  -1.337  -3.796  0.00  0.00    +0.155 HD
ENDBRANCH   2   5
BRANCH   1  18
ATOM     18  C   UNL     1      -5.419  -2.005   0.043  0.00  0.00    +0.140 C 
BRANCH  18  22
ATOM     19  C   UNL     1      -1.412  -0.526   0.013  0.00  0.00    -0.045 A 
ATOM     20  C   UNL     1      -2.259  -0.204   1.056  0.00  0.00    +0.004 A 
ATOM     21  C   UNL     1      -3.556  -0.683   1.066  0.00  0.00    +0.006 A 
ATOM     22  C   UNL     1      -4.006  -1.482   0.032  0.00  0.00    -0.022 A 
ATOM     23  C   UNL     1      -3.159  -1.803  -1.012  0.00  0.00    +0.006 A 
ATOM     24  C   UNL     1      -1.863  -1.321  -1.024  0.00  0.00    +0.004 A 
BRANCH  19  26
ATOM     25  C   UNL     1      -0.019   1.526   0.010  0.00  0.00    +0.012 C 
ATOM     26  C   UNL     1       0.002  -0.004   0.002  0.00  0.00    +0.013 C 
ATOM     27  C   UNL     1       0.742  -0.511   1.242  0.00  0.00    +0.012 C 
ENDBRANCH  19  26
ENDBRANCH  18  22
BRANCH  18  28
ATOM     28  C   UNL     1      -5.423  -3.432   0.527  0.00  0.00    +0.014 A 
ATOM     29  C   UNL     1      -5.728  -3.916   1.756  0.00  0.00    +0.013 A 
ATOM     30  C   UNL     1      -5.663  -5.279   1.975  0.00  0.00    +0.008 A 
ATOM     31  C   UNL     1      -5.298  -6.092   0.954  0.00  0.00    +0.045 A 
ATOM     32  S   UNL     1      -5.037  -4.925  -0.372  0.00  0.00    -0.099 S 
ENDBRANCH  18  28
ENDBRANCH   1  18
TORSDOF 5
