REMARK  Name = ZINC38705792
REMARK  18 active torsions:
REMARK  status: ('A' for Active; 'I' for Inactive)
REMARK    1  A    between atoms: C_1  and  C_2
REMARK    2  A    between atoms: C_2  and  O_3
REMARK    3  A    between atoms: O_3  and  C_4
REMARK    4  A    between atoms: C_7  and  C_13
REMARK    5  A    between atoms: C_9  and  O_10
REMARK    6  A    between atoms: O_10  and  C_11
REMARK    7  A    between atoms: C_11  and  C_12
REMARK    8  A    between atoms: C_16  and  C_31
REMARK    9  A    between atoms: N_23  and  C_24
REMARK   10  A    between atoms: C_24  and  C_25
REMARK   11  A    between atoms: C_25  and  C_26
REMARK   12  A    between atoms: C_26  and  O_27
REMARK   13  A    between atoms: O_27  and  C_28
REMARK   14  A    between atoms: C_28  and  C_29
REMARK   15  A    between atoms: C_28  and  C_30
REMARK   16  A    between atoms: C_32  and  C_39
REMARK   17  A    between atoms: C_34  and  C_38
REMARK   18  A    between atoms: C_36  and  O_37
REMARK                            x       y       z     vdW  Elec       q    Type
REMARK                         _______ _______ _______ _____ _____    ______ ____
ROOT
ATOM      1  C   UNL     1       1.069  -5.715  -1.607  0.00  0.00    +0.141 C 
ATOM      2  C   UNL     1       2.237  -6.397  -0.948  0.00  0.00    +0.035 A 
ATOM      3  C   UNL     1       3.627  -6.507  -0.831  0.00  0.00    +0.102 A 
ATOM      4  N   UNL     1       3.874  -7.444   0.063  0.00  0.00    -0.173 NA
ATOM      5  N   UNL     1       2.779  -7.936   0.522  0.00  0.00    -0.272 N 
ATOM      6  H   UNL     1       2.721  -8.637   1.190  0.00  0.00    +0.189 HD
ATOM      7  C   UNL     1       1.710  -7.324  -0.069  0.00  0.00    +0.126 A 
ATOM      8  C   UNL     1       0.247  -7.260  -0.143  0.00  0.00    +0.265 C 
ATOM      9  O   UNL     1      -0.513  -7.951   0.508  0.00  0.00    -0.268 OA
ATOM     10  N   UNL     1      -0.137  -6.327  -1.036  0.00  0.00    -0.285 N 
ENDROOT
BRANCH   3  11
ATOM     11  C   UNL     1       4.636  -5.715  -1.577  0.00  0.00    +0.047 A 
ATOM     12  C   UNL     1       5.697  -5.119  -0.900  0.00  0.00    -0.037 A 
ATOM     13  C   UNL     1       6.633  -4.384  -1.598  0.00  0.00    +0.007 A 
ATOM     14  C   UNL     1       6.522  -4.236  -2.969  0.00  0.00    -0.047 A 
ATOM     15  C   UNL     1       5.473  -4.823  -3.651  0.00  0.00    +0.049 A 
ATOM     16  C   UNL     1       4.530  -5.569  -2.963  0.00  0.00    +0.127 A 
ATOM     17  C   UNL     1       7.550  -3.431  -3.723  0.00  0.00    +0.044 C 
ATOM     18  C   UNL     1       5.822  -5.276   0.594  0.00  0.00    +0.044 C 
BRANCH  16  19
ATOM     19  O   UNL     1       3.501  -6.153  -3.632  0.00  0.00    -0.506 OA
ATOM     20  H   UNL     1       2.738  -5.574  -3.763  0.00  0.00    +0.292 HD
ENDBRANCH  16  19
ENDBRANCH   3  11
BRANCH   1  24
ATOM     21  C   UNL     1       1.138  -1.526  -0.748  0.00  0.00    +0.162 A 
ATOM     22  C   UNL     1       0.824  -2.436   0.249  0.00  0.00    +0.050 A 
ATOM     23  C   UNL     1       0.803  -3.789  -0.032  0.00  0.00    +0.009 A 
ATOM     24  C   UNL     1       1.094  -4.238  -1.306  0.00  0.00    -0.019 A 
ATOM     25  C   UNL     1       1.409  -3.336  -2.306  0.00  0.00    +0.055 A 
ATOM     26  C   UNL     1       1.426  -1.978  -2.032  0.00  0.00    +0.162 A 
BRANCH  21  27
ATOM     27  O   UNL     1       1.160  -0.194  -0.474  0.00  0.00    -0.489 OA
BRANCH  27  29
ATOM     28  C   UNL     1       0.928   1.721   0.982  0.00  0.00    +0.048 C 
ATOM     29  C   UNL     1       0.854   0.197   0.866  0.00  0.00    +0.226 C 
ENDBRANCH  27  29
ENDBRANCH  21  27
BRANCH  26  30
ATOM     30  O   UNL     1       1.730  -1.089  -3.016  0.00  0.00    -0.489 OA
BRANCH  30  31
ATOM     31  C   UNL     1       2.014  -1.625  -4.310  0.00  0.00    +0.226 C 
ATOM     32  C   UNL     1       2.330  -0.482  -5.277  0.00  0.00    +0.048 C 
ENDBRANCH  30  31
ENDBRANCH  26  30
ENDBRANCH   1  24
BRANCH  10  33
ATOM     33  C   UNL     1      -1.519  -5.981  -1.377  0.00  0.00    +0.111 C 
BRANCH  33  34
ATOM     34  C   UNL     1      -1.990  -6.855  -2.541  0.00  0.00    +0.047 C 
BRANCH  34  35
ATOM     35  C   UNL     1      -3.434  -6.494  -2.898  0.00  0.00    +0.161 C 
BRANCH  35  36
ATOM     36  O   UNL     1      -3.874  -7.310  -3.985  0.00  0.00    -0.377 OA
BRANCH  36  37
ATOM     37  C   UNL     1      -5.217  -7.052  -4.399  0.00  0.00    +0.112 C 
ATOM     38  C   UNL     1      -5.356  -7.348  -5.894  0.00  0.00    +0.037 C 
ATOM     39  C   UNL     1      -6.175  -7.948  -3.611  0.00  0.00    +0.037 C 
ENDBRANCH  36  37
ENDBRANCH  35  36
ENDBRANCH  34  35
ENDBRANCH  33  34
ENDBRANCH  10  33
TORSDOF 12
