REMARK  Name = ZINC26354604
REMARK  9 active torsions:
REMARK  status: ('A' for Active; 'I' for Inactive)
REMARK    1  A    between atoms: C_1  and  C_2
REMARK    2  A    between atoms: C_3  and  C_11
REMARK    3  A    between atoms: C_4  and  C_10
REMARK    4  A    between atoms: C_6  and  S_8
REMARK    5  A    between atoms: S_8  and  C_9
REMARK    6  A    between atoms: C_11  and  C_12
REMARK    7  A    between atoms: C_12  and  C_13
REMARK    8  A    between atoms: N_15  and  C_16
REMARK    9  A    between atoms: C_19  and  N_22
REMARK                            x       y       z     vdW  Elec       q    Type
REMARK                         _______ _______ _______ _____ _____    ______ ____
ROOT
ATOM      1  C   UNL     1      -5.518   4.647  -1.112  0.00  0.00    +0.218 C 
ATOM      2  O   UNL     1      -4.577   5.399  -1.255  0.00  0.00    -0.275 OA
ATOM      3  N   UNL     1      -5.312   3.379  -0.704  0.00  0.00    -0.285 N 
ATOM      4  H   UNL     1      -6.169   2.720  -0.501  0.00  0.00    +0.155 HD
ENDROOT
BRANCH   3   5
ATOM      5  C   UNL     1      -4.006   2.901  -0.537  0.00  0.00    +0.033 A 
ATOM      6  C   UNL     1      -3.009   3.749  -0.074  0.00  0.00    +0.025 A 
ATOM      7  C   UNL     1      -1.722   3.277   0.091  0.00  0.00    +0.025 A 
ATOM      8  C   UNL     1      -1.424   1.954  -0.207  0.00  0.00    +0.035 A 
ATOM      9  C   UNL     1      -2.420   1.107  -0.677  0.00  0.00    +0.025 A 
ATOM     10  C   UNL     1      -3.708   1.578  -0.836  0.00  0.00    +0.025 A 
BRANCH   8  11
ATOM     11  N   UNL     1      -0.118   1.475  -0.040  0.00  0.00    -0.270 N 
ATOM     12  C   UNL     1       0.643   1.933   0.974  0.00  0.00    +0.301 C 
ATOM     13  O   UNL     1       0.225   2.817   1.696  0.00  0.00    -0.253 OA
ATOM     14  N   UNL     1       1.866   1.409   1.188  0.00  0.00    -0.313 N 
ATOM     15  H   UNL     1       0.286   0.726  -0.737  0.00  0.00    +0.156 HD
ATOM     16  H   UNL     1       2.487   1.782   2.015  0.00  0.00    +0.146 HD
ATOM     17  H   UNL     1       2.244   0.609   0.534  0.00  0.00    +0.146 HD
ENDBRANCH   8  11
ENDBRANCH   3   5
BRANCH   1  18
ATOM     18  C   UNL     1      -6.918   5.130  -1.391  0.00  0.00    +0.101 C 
BRANCH  18  19
ATOM     19  C   UNL     1      -6.873   6.593  -1.836  0.00  0.00    +0.048 C 
BRANCH  19  22
ATOM     20  C   UNL     1      -8.477   7.805   0.279  0.00  0.00    +0.066 C 
ATOM     21  C   UNL     1      -9.037   7.652  -1.112  0.00  0.00    +0.046 A 
ATOM     22  C   UNL     1      -8.273   7.077  -2.115  0.00  0.00    -0.005 A 
ATOM     23  C   UNL     1      -8.823   6.960  -3.383  0.00  0.00    +0.046 A 
ATOM     24  N   UNL     1     -10.056   7.389  -3.593  0.00  0.00    -0.227 NA
ATOM     25  C   UNL     1     -10.760   7.935  -2.611  0.00  0.00    +0.188 A 
ATOM     26  N   UNL     1     -10.262   8.066  -1.390  0.00  0.00    -0.227 NA
ATOM     27  C   UNL     1      -8.027   6.347  -4.506  0.00  0.00    +0.066 C 
BRANCH  25  28
ATOM     28  S   UNL     1     -12.397   8.500  -2.938  0.00  0.00    -0.089 S 
ATOM     29  C   UNL     1     -12.530   8.080  -4.693  0.00  0.00    +0.093 C 
ENDBRANCH  25  28
ENDBRANCH  19  22
ENDBRANCH  18  19
ENDBRANCH   1  18
TORSDOF 6
