REMARK  Name = ZINC08994843
REMARK  8 active torsions:
REMARK  status: ('A' for Active; 'I' for Inactive)
REMARK    1  A    between atoms: C_1  and  C_2
REMARK    2  A    between atoms: C_2  and  C_3
REMARK    3  A    between atoms: C_4  and  O_17
REMARK    4  A    between atoms: N_8  and  C_11
REMARK    5  A    between atoms: N_18  and  C_19
REMARK    6  A    between atoms: C_19  and  C_20
REMARK    7  A    between atoms: C_20  and  C_21
REMARK    8  A    between atoms: C_21  and  N_22
REMARK                            x       y       z     vdW  Elec       q    Type
REMARK                         _______ _______ _______ _____ _____    ______ ____
ROOT
ATOM      1  C   UNL     1       0.083   1.123  -4.848  0.00  0.00    +0.202 C 
ATOM      2  C   UNL     1       1.304   0.307  -4.878  0.00  0.00    +0.198 C 
ATOM      3  N   UNL     1       1.850   0.032  -6.052  0.00  0.00    -0.131 NA
ATOM      4  C   UNL     1       1.332   0.477  -7.193  0.00  0.00    +0.335 C 
ATOM      5  O   UNL     1       1.894   0.185  -8.234  0.00  0.00    -0.250 OA
ATOM      6  N   UNL     1       0.224   1.230  -7.261  0.00  0.00    -0.220 N 
ATOM      7  C   UNL     1      -0.444   1.588  -6.144  0.00  0.00    +0.241 C 
ATOM      8  O   UNL     1      -1.449   2.272  -6.204  0.00  0.00    -0.274 OA
ENDROOT
BRANCH   6   9
ATOM      9  C   UNL     1      -0.268   1.673  -8.568  0.00  0.00    +0.086 C 
ATOM     10  C   UNL     1      -0.590   0.452  -9.431  0.00  0.00    +0.023 C 
ATOM     11  C   UNL     1      -1.103   0.914 -10.797  0.00  0.00    +0.002 C 
ATOM     12  C   UNL     1      -0.030   1.758 -11.487  0.00  0.00    +0.000 C 
ATOM     13  C   UNL     1       0.291   2.979 -10.623  0.00  0.00    +0.002 C 
ATOM     14  C   UNL     1       0.805   2.517  -9.258  0.00  0.00    +0.023 C 
ENDBRANCH   6   9
BRANCH   1  16
ATOM     15  C   UNL     1      -1.868   2.163  -3.666  0.00  0.00    +0.061 C 
ATOM     16  C   UNL     1      -0.543   1.446  -3.653  0.00  0.00    +0.031 C 
ATOM     17  N   UNL     1       0.034   1.118  -2.482  0.00  0.00    -0.291 NA
BRANCH  17  18
ATOM     18  C   UNL     1      -0.628   1.459  -1.220  0.00  0.00    +0.143 C 
BRANCH  18  19
ATOM     19  C   UNL     1       0.231   0.979  -0.048  0.00  0.00    +0.045 C 
BRANCH  19  20
ATOM     20  C   UNL     1      -0.459   1.335   1.270  0.00  0.00    +0.124 C 
BRANCH  20  21
ATOM     21  N   UNL     1       0.363   0.875   2.392  0.00  0.00    -0.337 N 
ATOM     22  C   UNL     1       0.292  -0.347   3.005  0.00  0.00    +0.106 A 
ATOM     23  C   UNL     1       1.222  -0.350   3.978  0.00  0.00    +0.130 A 
ATOM     24  N   UNL     1       1.839   0.841   3.966  0.00  0.00    -0.244 NA
ATOM     25  C   UNL     1       1.330   1.580   3.018  0.00  0.00    +0.199 A 
ENDBRANCH  20  21
ENDBRANCH  19  20
ENDBRANCH  18  19
ENDBRANCH  17  18
ENDBRANCH   1  16
BRANCH   2  26
ATOM     26  O   UNL     1       1.855  -0.153  -3.736  0.00  0.00    -0.496 OA
ATOM     27  H   UNL     1       2.656  -0.679  -3.869  0.00  0.00    +0.293 HD
ENDBRANCH   2  26
TORSDOF 7
