REMARK  Name = ZINC44960380
REMARK  9 active torsions:
REMARK  status: ('A' for Active; 'I' for Inactive)
REMARK    1  A    between atoms: C_1  and  C_2
REMARK    2  A    between atoms: C_2  and  C_3
REMARK    3  A    between atoms: C_2  and  C_4
REMARK    4  A    between atoms: C_7  and  O_31
REMARK    5  A    between atoms: C_8  and  C_10
REMARK    6  A    between atoms: C_10  and  N_11
REMARK    7  A    between atoms: C_16  and  C_18
REMARK    8  A    between atoms: N_20  and  C_21
REMARK    9  A    between atoms: O_31  and  C_32
REMARK                            x       y       z     vdW  Elec       q    Type
REMARK                         _______ _______ _______ _____ _____    ______ ____
ROOT
ATOM      1  N   UNL     1       3.792  -3.675  -2.525  0.00  0.00    +0.390 N 
ATOM      2  C   UNL     1       3.450  -3.913  -3.932  0.00  0.00    -0.077 C 
ATOM      3  C   UNL     1       2.493  -5.103  -4.034  0.00  0.00    -0.019 C 
ATOM      4  C   UNL     1       3.172  -6.348  -3.455  0.00  0.00    -0.003 C 
ATOM      5  C   UNL     1       3.591  -6.062  -2.010  0.00  0.00    -0.006 C 
ATOM      6  C   UNL     1       4.507  -4.837  -1.983  0.00  0.00    +0.020 C 
ATOM      7  H   UNL     1       2.946  -3.525  -1.996  0.00  0.00    -0.080 HD
ENDROOT
BRANCH   6   8
ATOM      8  C   UNL     1       4.923  -4.553  -0.562  0.00  0.00    +0.200 C 
ATOM      9  O   UNL     1       4.270  -3.791   0.119  0.00  0.00    -0.278 OA
ATOM     10  N   UNL     1       6.019  -5.145  -0.050  0.00  0.00    -0.311 N 
ATOM     11  H   UNL     1       6.541  -5.754  -0.595  0.00  0.00    +0.149 HD
BRANCH  10  12
ATOM     12  C   UNL     1       6.423  -4.869   1.331  0.00  0.00    +0.035 C 
ATOM     13  C   UNL     1       6.702  -3.373   1.491  0.00  0.00    +0.029 C 
ATOM     14  C   UNL     1       7.124  -3.084   2.933  0.00  0.00    -0.008 C 
ATOM     15  C   UNL     1       8.390  -3.877   3.262  0.00  0.00    +0.007 C 
ATOM     16  C   UNL     1       8.112  -5.373   3.102  0.00  0.00    -0.008 C 
ATOM     17  C   UNL     1       7.690  -5.661   1.660  0.00  0.00    +0.029 C 
ATOM     18  C   UNL     1       6.988  -5.787   4.055  0.00  0.00    +0.007 C 
ATOM     19  C   UNL     1       5.722  -4.994   3.726  0.00  0.00    -0.008 C 
ATOM     20  C   UNL     1       6.001  -3.498   3.886  0.00  0.00    +0.007 C 
ATOM     21  C   UNL     1       5.300  -5.283   2.284  0.00  0.00    +0.029 C 
ENDBRANCH  10  12
ENDBRANCH   6   8
BRANCH   1  22
ATOM     22  C   UNL     1       4.648  -2.485  -2.425  0.00  0.00    -0.038 C 
BRANCH  22  27
ATOM     23  C   UNL     1       2.513   0.625  -2.279  0.00  0.00    -0.044 A 
ATOM     24  C   UNL     1       2.429   0.970  -3.616  0.00  0.00    +0.007 A 
ATOM     25  C   UNL     1       3.062   0.197  -4.570  0.00  0.00    +0.046 A 
ATOM     26  C   UNL     1       3.783  -0.925  -4.186  0.00  0.00    +0.121 A 
ATOM     27  C   UNL     1       3.866  -1.268  -2.845  0.00  0.00    -0.022 A 
ATOM     28  C   UNL     1       3.235  -0.489  -1.894  0.00  0.00    +0.009 A 
BRANCH  23  30
ATOM     29  C   UNL     1       2.368   2.897  -1.295  0.00  0.00    +0.012 C 
ATOM     30  C   UNL     1       1.821   1.469  -1.240  0.00  0.00    +0.013 C 
ATOM     31  C   UNL     1       0.316   1.489  -1.518  0.00  0.00    +0.012 C 
ENDBRANCH  23  30
BRANCH  26  32
ATOM     32  O   UNL     1       4.406  -1.686  -5.123  0.00  0.00    -0.495 OA
ATOM     33  C   UNL     1       4.277  -1.274  -6.485  0.00  0.00    +0.277 C 
ENDBRANCH  26  32
ENDBRANCH  22  27
ENDBRANCH   1  22
TORSDOF 6
