REMARK  Name = ZINC50461695
REMARK  6 active torsions:
REMARK  status: ('A' for Active; 'I' for Inactive)
REMARK    1  A    between atoms: C_2  and  C_3
REMARK    2  A    between atoms: C_3  and  N_4
REMARK    3  A    between atoms: C_5  and  C_7
REMARK    4  A    between atoms: C_7  and  N_8
REMARK    5  A    between atoms: C_14  and  C_16
REMARK    6  A    between atoms: C_19  and  N_21
REMARK                            x       y       z     vdW  Elec       q    Type
REMARK                         _______ _______ _______ _____ _____    ______ ____
ROOT
ATOM      1  N   UNL     1      -3.673  -4.201  -2.483  0.00  0.00    -0.291 NA
ATOM      2  C   UNL     1      -3.756  -5.078  -1.307  0.00  0.00    +0.104 C 
ATOM      3  C   UNL     1      -5.153  -5.704  -1.239  0.00  0.00    +0.123 C 
ATOM      4  N   UNL     1      -5.435  -6.359  -2.525  0.00  0.00    -0.299 N 
ATOM      5  C   UNL     1      -5.241  -5.583  -3.759  0.00  0.00    +0.123 C 
ATOM      6  C   UNL     1      -3.841  -4.961  -3.728  0.00  0.00    +0.104 C 
ATOM      7  C   UNL     1      -5.860  -7.638  -2.571  0.00  0.00    +0.217 C 
ATOM      8  O   UNL     1      -6.015  -8.263  -1.544  0.00  0.00    -0.275 OA
ENDROOT
BRANCH   7   9
ATOM      9  C   UNL     1      -6.143  -8.290  -3.900  0.00  0.00    +0.059 C 
ATOM     10  C   UNL     1      -7.601  -8.614  -4.232  0.00  0.00    -0.005 C 
ATOM     11  C   UNL     1      -6.625  -9.742  -3.887  0.00  0.00    -0.063 C 
BRANCH  11  12
ATOM     12  N   UNL     1      -6.776 -10.394  -2.579  0.00  0.00    +0.380 N 
ATOM     13  H   UNL     1      -7.448  -9.885  -2.025  0.00  0.00    -0.090 HD
ATOM     14  H   UNL     1      -7.097 -11.341  -2.711  0.00  0.00    -0.090 HD
ATOM     15  H   UNL     1      -5.886 -10.403  -2.103  0.00  0.00    -0.090 HD
ENDBRANCH  11  12
ENDBRANCH   7   9
BRANCH   1  16
ATOM     16  C   UNL     1      -2.411  -3.449  -2.491  0.00  0.00    +0.180 C 
BRANCH  16  18
ATOM     17  N   UNL     1      -1.318  -1.700  -1.126  0.00  0.00    -0.311 N 
ATOM     18  C   UNL     1      -2.386  -2.498  -1.322  0.00  0.00    +0.227 C 
ATOM     19  O   UNL     1      -3.326  -2.451  -0.557  0.00  0.00    -0.274 OA
ATOM     20  H   UNL     1      -0.566  -1.737  -1.737  0.00  0.00    +0.149 HD
BRANCH  17  21
ATOM     21  C   UNL     1      -1.293  -0.775   0.010  0.00  0.00    +0.131 C 
BRANCH  21  23
ATOM     22  C   UNL     1      -0.016   1.306   0.009  0.00  0.00    +0.005 C 
ATOM     23  C   UNL     1       0.002  -0.004   0.002  0.00  0.00    -0.016 C 
ENDBRANCH  21  23
ENDBRANCH  17  21
ENDBRANCH  16  18
ENDBRANCH   1  16
TORSDOF 6
