REMARK  Name = ZINC16463483
REMARK  6 active torsions:
REMARK  status: ('A' for Active; 'I' for Inactive)
REMARK    1  A    between atoms: C_1  and  C_2
REMARK    2  A    between atoms: C_2  and  C_21
REMARK    3  A    between atoms: N_5  and  C_9
REMARK    4  A    between atoms: C_9  and  C_10
REMARK    5  A    between atoms: N_12  and  C_13
REMARK    6  A    between atoms: C_13  and  C_19
REMARK                            x       y       z     vdW  Elec       q    Type
REMARK                         _______ _______ _______ _____ _____    ______ ____
ROOT
ATOM      1  C   UNL     1      -1.709  -6.725  -1.130  0.00  0.00    +0.047 C 
ATOM      2  C   UNL     1      -2.972  -6.017  -0.636  0.00  0.00    +0.135 C 
ATOM      3  C   UNL     1      -3.000  -4.577  -1.109  0.00  0.00    +0.251 C 
ATOM      4  O   UNL     1      -3.022  -4.183  -2.255  0.00  0.00    -0.272 OA
ATOM      5  N   UNL     1      -2.994  -3.826   0.010  0.00  0.00    -0.215 N 
ATOM      6  C   UNL     1      -2.974  -4.583   1.113  0.00  0.00    +0.310 C 
ATOM      7  O   UNL     1      -2.970  -4.133   2.242  0.00  0.00    -0.252 OA
ATOM      8  N   UNL     1      -2.960  -5.899   0.832  0.00  0.00    -0.281 N 
ATOM      9  H   UNL     1      -2.944  -6.628   1.472  0.00  0.00    +0.152 HD
ENDROOT
BRANCH   2  10
ATOM     10  C   UNL     1      -4.206  -6.747  -1.099  0.00  0.00    -0.013 A 
ATOM     11  C   UNL     1      -4.771  -7.724  -0.300  0.00  0.00    +0.009 A 
ATOM     12  C   UNL     1      -5.904  -8.394  -0.722  0.00  0.00    +0.041 A 
ATOM     13  C   UNL     1      -6.473  -8.088  -1.946  0.00  0.00    +0.158 A 
ATOM     14  C   UNL     1      -5.907  -7.109  -2.747  0.00  0.00    +0.159 A 
ATOM     15  C   UNL     1      -4.776  -6.436  -2.319  0.00  0.00    +0.047 A 
ATOM     16  F   UNL     1      -6.461  -6.809  -3.942  0.00  0.00    -0.202 F 
ATOM     17  F   UNL     1      -7.580  -8.743  -2.359  0.00  0.00    -0.202 F 
ENDBRANCH   2  10
BRANCH   5  18
ATOM     18  C   UNL     1      -3.014  -2.361   0.018  0.00  0.00    +0.213 C 
BRANCH  18  19
ATOM     19  C   UNL     1      -1.601  -1.839   0.007  0.00  0.00    +0.232 C 
ATOM     20  O   UNL     1      -0.668  -2.615  -0.006  0.00  0.00    -0.274 OA
ATOM     21  N   UNL     1      -1.372  -0.511   0.012  0.00  0.00    -0.296 N 
ATOM     22  H   UNL     1      -2.118   0.109   0.023  0.00  0.00    +0.150 HD
BRANCH  21  23
ATOM     23  C   UNL     1       0.002  -0.004   0.002  0.00  0.00    +0.121 C 
ATOM     24  C   UNL     1      -0.019   1.526   0.010  0.00  0.00    +0.041 C 
ATOM     25  C   UNL     1       1.417   2.055  -0.000  0.00  0.00    +0.003 C 
ATOM     26  C   UNL     1       2.133   1.562  -1.259  0.00  0.00    +0.000 C 
ATOM     27  C   UNL     1       2.154   0.032  -1.268  0.00  0.00    +0.003 C 
ATOM     28  C   UNL     1       0.718  -0.497  -1.257  0.00  0.00    +0.041 C 
BRANCH  23  29
ATOM     29  C   UNL     1       0.714  -0.492   1.195  0.00  0.00    +0.088 C 
ATOM     30  N   UNL     1       1.263  -0.868   2.115  0.00  0.00    -0.194 NA
ENDBRANCH  23  29
ENDBRANCH  21  23
ENDBRANCH  18  19
ENDBRANCH   5  18
TORSDOF 5
