REMARK  Name = ZINC52594692
REMARK  6 active torsions:
REMARK  status: ('A' for Active; 'I' for Inactive)
REMARK    1  A    between atoms: C_4  and  C_7
REMARK    2  A    between atoms: C_7  and  N_8
REMARK    3  A    between atoms: C_9  and  C_11
REMARK    4  A    between atoms: C_11  and  C_13
REMARK    5  A    between atoms: C_11  and  N_23
REMARK    6  A    between atoms: C_13  and  C_14
REMARK                            x       y       z     vdW  Elec       q    Type
REMARK                         _______ _______ _______ _____ _____    ______ ____
ROOT
ATOM      1  C   UNL     1       5.769  -1.843   2.989  0.00  0.00    +0.164 C 
ENDROOT
BRANCH   1   2
ATOM      2  N   UNL     1       7.042  -2.569   2.966  0.00  0.00    -0.288 N 
ATOM      3  C   UNL     1       7.401  -3.333   4.017  0.00  0.00    +0.303 C 
ATOM      4  O   UNL     1       6.708  -3.357   5.016  0.00  0.00    -0.253 OA
ATOM      5  N   UNL     1       8.528  -4.070   3.961  0.00  0.00    -0.286 N 
ATOM      6  C   UNL     1       8.872  -4.995   5.049  0.00  0.00    +0.110 C 
ATOM      7  C   UNL     1       9.106  -6.388   4.454  0.00  0.00    +0.030 C 
ATOM      8  C   UNL     1      10.145  -6.297   3.341  0.00  0.00    -0.001 C 
ATOM      9  C   UNL     1      11.483  -5.791   3.910  0.00  0.00    +0.016 C 
ATOM     10  C   UNL     1      12.516  -6.567   3.064  0.00  0.00    +0.036 C 
ATOM     11  C   UNL     1      11.801  -7.826   2.621  0.00  0.00    -0.044 A 
ATOM     12  C   UNL     1      10.435  -7.669   2.780  0.00  0.00    -0.038 A 
ATOM     13  C   UNL     1       9.579  -8.701   2.436  0.00  0.00    +0.004 A 
ATOM     14  C   UNL     1      10.083  -9.886   1.935  0.00  0.00    +0.000 A 
ATOM     15  C   UNL     1      11.447 -10.043   1.777  0.00  0.00    +0.000 A 
ATOM     16  C   UNL     1      12.304  -9.014   2.119  0.00  0.00    +0.004 A 
ATOM     17  C   UNL     1       9.665  -5.364   2.232  0.00  0.00    +0.030 C 
ATOM     18  C   UNL     1       9.432  -3.967   2.807  0.00  0.00    +0.110 C 
ATOM     19  H   UNL     1       7.626  -2.499   2.195  0.00  0.00    +0.151 HD
ENDBRANCH   1   2
BRANCH   1  21
ATOM     20  N   UNL     1       4.154  -0.936   1.350  0.00  0.00    -0.310 N 
ATOM     21  C   UNL     1       5.309  -1.592   1.576  0.00  0.00    +0.234 C 
ATOM     22  O   UNL     1       5.979  -1.981   0.642  0.00  0.00    -0.274 OA
ATOM     23  H   UNL     1       3.619  -0.625   2.097  0.00  0.00    +0.149 HD
BRANCH  20  24
ATOM     24  C   UNL     1       3.707  -0.692  -0.024  0.00  0.00    +0.139 C 
BRANCH  24  28
ATOM     25  C   UNL     1      -0.004   1.423   0.040  0.00  0.00    +0.000 A 
ATOM     26  C   UNL     1       1.189   2.121   0.022  0.00  0.00    +0.000 A 
ATOM     27  C   UNL     1       2.390   1.437   0.002  0.00  0.00    +0.005 A 
ATOM     28  C   UNL     1       2.398   0.054  -0.001  0.00  0.00    -0.030 A 
ATOM     29  C   UNL     1       1.205  -0.644   0.018  0.00  0.00    +0.005 A 
ATOM     30  C   UNL     1       0.004   0.041   0.036  0.00  0.00    +0.000 A 
ENDBRANCH  24  28
ENDBRANCH  20  24
ENDBRANCH   1  21
BRANCH   1  31
ATOM     31  C   UNL     1       5.957  -0.507   3.709  0.00  0.00    +0.065 C 
BRANCH  31  32
ATOM     32  C   UNL     1       6.297  -0.759   5.155  0.00  0.00    -0.039 C 
ATOM     33  C   UNL     1       7.533  -0.810   5.703  0.00  0.00    -0.001 A 
ATOM     34  C   UNL     1       8.878  -0.652   5.138  0.00  0.00    +0.010 A 
ATOM     35  C   UNL     1       9.950  -0.759   5.955  0.00  0.00    +0.001 A 
ATOM     36  C   UNL     1       9.809  -1.017   7.325  0.00  0.00    +0.002 A 
ATOM     37  C   UNL     1       8.606  -1.174   7.918  0.00  0.00    +0.026 A 
ATOM     38  C   UNL     1       7.411  -1.081   7.153  0.00  0.00    +0.043 A 
ATOM     39  N   UNL     1       6.149  -1.194   7.489  0.00  0.00    -0.380 N 
ATOM     40  C   UNL     1       5.326  -1.000   6.290  0.00  0.00    +0.144 C 
ATOM     41  H   UNL     1       5.814  -1.371   8.382  0.00  0.00    +0.160 HD
ENDBRANCH  31  32
ENDBRANCH   1  31
TORSDOF 6
