REMARK  Name = ZINC63572767
REMARK  6 active torsions:
REMARK  status: ('A' for Active; 'I' for Inactive)
REMARK    1  A    between atoms: C_1  and  C_2
REMARK    2  A    between atoms: C_5  and  C_8
REMARK    3  A    between atoms: N_26  and  C_27
REMARK    4  A    between atoms: C_32  and  C_33
REMARK    5  A    between atoms: C_33  and  O_35
REMARK    6  A    between atoms: O_35  and  C_36
REMARK                            x       y       z     vdW  Elec       q    Type
REMARK                         _______ _______ _______ _____ _____    ______ ____
ROOT
ATOM      1  C   UNL     1       0.056  -4.278  -0.003  0.00  0.00    +0.134 C 
ATOM      2  C   UNL     1      -1.322  -4.829   0.380  0.00  0.00    +0.131 C 
ATOM      3  C   UNL     1      -1.503  -4.552   1.867  0.00  0.00    -0.035 C 
ATOM      4  C   UNL     1      -2.627  -3.856   1.985  0.00  0.00    +0.001 A 
ATOM      5  C   UNL     1      -3.354  -3.362   3.166  0.00  0.00    +0.030 A 
ATOM      6  C   UNL     1      -4.492  -2.659   2.919  0.00  0.00    +0.042 A 
ATOM      7  C   UNL     1      -4.973  -2.401   1.630  0.00  0.00    +0.022 A 
ATOM      8  C   UNL     1      -4.371  -2.821   0.489  0.00  0.00    +0.027 A 
ATOM      9  C   UNL     1      -3.168  -3.575   0.620  0.00  0.00    +0.043 A 
ATOM     10  N   UNL     1      -2.402  -4.120  -0.308  0.00  0.00    -0.375 N 
ATOM     11 CL   UNL     1      -5.393  -2.049   4.272  0.00  0.00    -0.084 Cl
ATOM     12  C   UNL     1      -0.485  -4.972   2.900  0.00  0.00    +0.052 C 
ATOM     13  C   UNL     1       0.882  -4.464   2.405  0.00  0.00    +0.114 C 
ATOM     14  N   UNL     1       1.031  -4.777   0.979  0.00  0.00    -0.276 N 
ATOM     15  C   UNL     1       2.070  -5.528   0.565  0.00  0.00    +0.307 C 
ATOM     16  O   UNL     1       2.252  -5.711  -0.624  0.00  0.00    -0.252 OA
ATOM     17  N   UNL     1       2.908  -6.077   1.467  0.00  0.00    -0.269 N 
ATOM     18  H   UNL     1       2.725  -5.987   2.415  0.00  0.00    +0.156 HD
ATOM     19  H   UNL     1      -2.521  -4.063  -1.269  0.00  0.00    +0.160 HD
ENDROOT
BRANCH   1  24
ATOM     20  C   UNL     1      -0.053   1.499   0.106  0.00  0.00    +0.044 C 
ATOM     21  C   UNL     1      -0.024  -0.007   0.078  0.00  0.00    -0.050 A 
ATOM     22  C   UNL     1       0.256  -0.671  -1.102  0.00  0.00    +0.004 A 
ATOM     23  C   UNL     1       0.282  -2.053  -1.128  0.00  0.00    +0.006 A 
ATOM     24  C   UNL     1       0.028  -2.771   0.026  0.00  0.00    -0.025 A 
ATOM     25  C   UNL     1      -0.251  -2.107   1.206  0.00  0.00    +0.006 A 
ATOM     26  C   UNL     1      -0.273  -0.725   1.233  0.00  0.00    +0.004 A 
ENDBRANCH   1  24
BRANCH  17  27
ATOM     27  C   UNL     1       4.036  -6.771   1.038  0.00  0.00    +0.049 A 
ATOM     28  C   UNL     1       3.985  -7.539  -0.118  0.00  0.00    +0.024 A 
ATOM     29  C   UNL     1       5.104  -8.227  -0.541  0.00  0.00    +0.002 A 
ATOM     30  C   UNL     1       6.285  -8.158   0.181  0.00  0.00    +0.001 A 
ATOM     31  C   UNL     1       6.355  -7.401   1.330  0.00  0.00    +0.017 A 
ATOM     32  C   UNL     1       5.232  -6.694   1.768  0.00  0.00    +0.080 A 
BRANCH  32  33
ATOM     33  C   UNL     1       5.301  -5.877   2.993  0.00  0.00    +0.341 C 
ATOM     34  O   UNL     1       4.300  -5.337   3.420  0.00  0.00    -0.245 OA
BRANCH  33  35
ATOM     35  O   UNL     1       6.474  -5.730   3.639  0.00  0.00    -0.464 OA
ATOM     36  C   UNL     1       6.468  -4.925   4.820  0.00  0.00    +0.280 C 
ENDBRANCH  33  35
ENDBRANCH  32  33
ENDBRANCH  17  27
TORSDOF 4
