REMARK  Name = ZINC28068416
REMARK  11 active torsions:
REMARK  status: ('A' for Active; 'I' for Inactive)
REMARK    1  A    between atoms: C_1  and  C_2
REMARK    2  A    between atoms: N_5  and  C_8
REMARK    3  A    between atoms: C_8  and  C_9
REMARK    4  A    between atoms: C_9  and  C_10
REMARK    5  A    between atoms: C_10  and  N_11
REMARK    6  A    between atoms: C_12  and  C_14
REMARK    7  A    between atoms: C_14  and  C_16
REMARK    8  A    between atoms: C_14  and  N_19
REMARK    9  A    between atoms: C_16  and  C_17
REMARK   10  A    between atoms: C_16  and  C_18
REMARK   11  A    between atoms: C_20  and  C_22
REMARK                            x       y       z     vdW  Elec       q    Type
REMARK                         _______ _______ _______ _____ _____    ______ ____
ROOT
ATOM      1  C   UNL     1      -2.161   7.236  -0.965  0.00  0.00    +0.161 C 
ENDROOT
BRANCH   1   3
ATOM      2  N   UNL     1      -3.249   9.370  -1.582  0.00  0.00    -0.314 N 
ATOM      3  C   UNL     1      -3.052   8.065  -1.854  0.00  0.00    +0.234 C 
ATOM      4  O   UNL     1      -3.590   7.558  -2.815  0.00  0.00    -0.274 OA
ATOM      5  H   UNL     1      -2.697   9.850  -0.760  0.00  0.00    +0.149 HD
BRANCH   2   6
ATOM      6  C   UNL     1      -4.199  10.149  -2.379  0.00  0.00    +0.102 C 
BRANCH   6   7
ATOM      7  C   UNL     1      -4.234  11.591  -1.867  0.00  0.00    +0.000 C 
BRANCH   7   8
ATOM      8  C   UNL     1      -5.226  12.405  -2.700  0.00  0.00    -0.077 C 
BRANCH   8  13
ATOM      9  C   UNL     1      -6.301  17.666  -0.742  0.00  0.00    +0.007 C 
ATOM     10  C   UNL     1      -6.463  16.227  -1.235  0.00  0.00    -0.018 C 
ATOM     11  C   UNL     1      -5.906  16.108  -2.657  0.00  0.00    -0.016 C 
ATOM     12  C   UNL     1      -6.015  14.654  -3.122  0.00  0.00    -0.079 C 
ATOM     13  N   UNL     1      -5.259  13.788  -2.208  0.00  0.00    +0.380 N 
ATOM     14  C   UNL     1      -5.806  13.850  -0.846  0.00  0.00    -0.079 C 
ATOM     15  C   UNL     1      -5.691  15.279  -0.313  0.00  0.00    -0.016 C 
ATOM     16  H   UNL     1      -4.225  14.161  -2.171  0.00  0.00    -0.082 HD
ENDBRANCH   8  13
ENDBRANCH   7   8
ENDBRANCH   6   7
ENDBRANCH   2   6
ENDBRANCH   1   3
BRANCH   1  17
ATOM     17  N   UNL     1      -2.596   5.838  -1.006  0.00  0.00    -0.303 N 
ATOM     18  C   UNL     1      -2.325   5.017   0.028  0.00  0.00    +0.220 C 
ATOM     19  O   UNL     1      -1.721   5.436   0.993  0.00  0.00    -0.275 OA
ATOM     20  H   UNL     1      -3.143   5.457  -1.881  0.00  0.00    +0.149 HD
BRANCH  18  21
ATOM     21  C   UNL     1      -2.772   3.578  -0.015  0.00  0.00    +0.048 C 
ATOM     22  C   UNL     1      -2.133   2.881  -1.217  0.00  0.00    +0.019 C 
ATOM     23  C   UNL     1      -2.587   1.421  -1.260  0.00  0.00    -0.009 C 
ATOM     24  C   UNL     1      -2.156   0.714   0.027  0.00  0.00    +0.007 C 
ATOM     25  C   UNL     1      -2.796   1.412   1.230  0.00  0.00    -0.009 C 
ATOM     26  C   UNL     1      -2.342   2.872   1.273  0.00  0.00    +0.019 C 
ATOM     27  C   UNL     1      -4.319   1.355   1.102  0.00  0.00    +0.007 C 
ATOM     28  C   UNL     1      -4.750   2.061  -0.185  0.00  0.00    -0.009 C 
ATOM     29  C   UNL     1      -4.111   1.364  -1.388  0.00  0.00    +0.007 C 
ATOM     30  C   UNL     1      -4.296   3.522  -0.142  0.00  0.00    +0.019 C 
ENDBRANCH  18  21
ENDBRANCH   1  17
BRANCH   1  31
ATOM     31  C   UNL     1      -0.716   7.335  -1.455  0.00  0.00    +0.012 C 
ATOM     32  C   UNL     1      -0.246   8.789  -1.369  0.00  0.00    +0.009 C 
ATOM     33  C   UNL     1       0.181   6.457  -0.581  0.00  0.00    +0.009 C 
ENDBRANCH   1  31
TORSDOF 8
