REMARK  Name = ZINC36207935
REMARK  11 active torsions:
REMARK  status: ('A' for Active; 'I' for Inactive)
REMARK    1  A    between atoms: C_2  and  C_3
REMARK    2  A    between atoms: C_3  and  O_4
REMARK    3  A    between atoms: O_4  and  C_5
REMARK    4  A    between atoms: C_5  and  C_6
REMARK    5  A    between atoms: C_6  and  C_8
REMARK    6  A    between atoms: C_6  and  O_35
REMARK    7  A    between atoms: C_8  and  N_9
REMARK    8  A    between atoms: N_9  and  C_10
REMARK    9  A    between atoms: N_9  and  C_29
REMARK   10  A    between atoms: C_10  and  C_11
REMARK   11  A    between atoms: C_17  and  C_22
REMARK                            x       y       z     vdW  Elec       q    Type
REMARK                         _______ _______ _______ _____ _____    ______ ____
ROOT
ATOM      1  C   UNL     1       4.775  -6.203   3.425  0.00  0.00    -0.003 C 
ENDROOT
BRANCH   1   2
ATOM      2  C   UNL     1       4.522  -7.416   4.282  0.00  0.00    +0.094 A 
ATOM      3  N   UNL     1       5.561  -8.220   4.625  0.00  0.00    -0.312 N 
ATOM      4  H   UNL     1       6.454  -8.002   4.313  0.00  0.00    +0.170 HD
ATOM      5  C   UNL     1       5.378  -9.312   5.389  0.00  0.00    +0.260 A 
ATOM      6  O   UNL     1       6.322 -10.024   5.688  0.00  0.00    -0.267 OA
ATOM      7  C   UNL     1       4.059  -9.627   5.845  0.00  0.00    +0.080 A 
ATOM      8  C   UNL     1       3.609 -10.740   6.673  0.00  0.00    +0.004 A 
ATOM      9  C   UNL     1       2.293 -10.833   6.981  0.00  0.00    +0.056 A 
ATOM     10  S   UNL     1       1.578  -9.416   6.169  0.00  0.00    -0.076 S 
ATOM     11  C   UNL     1       3.048  -8.739   5.441  0.00  0.00    +0.116 A 
ATOM     12  N   UNL     1       3.307  -7.674   4.688  0.00  0.00    -0.229 NA
BRANCH   8  13
ATOM     13  C   UNL     1       4.574 -11.751   7.168  0.00  0.00    -0.015 A 
ATOM     14  C   UNL     1       5.467 -12.356   6.285  0.00  0.00    +0.008 A 
ATOM     15  C   UNL     1       6.363 -13.297   6.750  0.00  0.00    +0.002 A 
ATOM     16  C   UNL     1       6.376 -13.640   8.090  0.00  0.00    +0.020 A 
ATOM     17  C   UNL     1       5.492 -13.043   8.972  0.00  0.00    +0.042 A 
ATOM     18  C   UNL     1       4.595 -12.095   8.518  0.00  0.00    +0.028 A 
ATOM     19 CL   UNL     1       5.515 -13.480  10.652  0.00  0.00    -0.084 Cl
ENDBRANCH   8  13
ENDBRANCH   1   2
BRANCH   1  20
ATOM     20  N   UNL     1       3.549  -5.398   3.343  0.00  0.00    +0.388 N 
ATOM     21  H   UNL     1       2.749  -6.008   3.275  0.00  0.00    -0.081 HD
BRANCH  20  22
ATOM     22  C   UNL     1       3.429  -4.565   4.547  0.00  0.00    -0.068 C 
ATOM     23  C   UNL     1       3.315  -5.465   5.779  0.00  0.00    -0.015 C 
ATOM     24  C   UNL     1       3.189  -4.598   7.034  0.00  0.00    -0.002 C 
ATOM     25  C   UNL     1       4.427  -3.708   7.165  0.00  0.00    -0.000 C 
ATOM     26  C   UNL     1       4.541  -2.808   5.932  0.00  0.00    -0.002 C 
ATOM     27  C   UNL     1       4.666  -3.675   4.678  0.00  0.00    -0.015 C 
ENDBRANCH  20  22
BRANCH  20  28
ATOM     28  C   UNL     1       3.609  -4.535   2.155  0.00  0.00    -0.044 C 
BRANCH  28  29
ATOM     29  C   UNL     1       2.277  -3.799   1.992  0.00  0.00    +0.124 C 
BRANCH  29  30
ATOM     30  O   UNL     1       1.238  -4.747   1.740  0.00  0.00    -0.391 OA
ATOM     31  H   UNL     1       1.372  -5.275   0.941  0.00  0.00    +0.210 HD
ENDBRANCH  29  30
BRANCH  29  32
ATOM     32  C   UNL     1       2.374  -2.824   0.817  0.00  0.00    +0.189 C 
BRANCH  32  33
ATOM     33  O   UNL     1       1.173  -2.054   0.736  0.00  0.00    -0.373 OA
BRANCH  33  34
ATOM     34  C   UNL     1       1.160  -1.107  -0.334  0.00  0.00    +0.186 C 
BRANCH  34  36
ATOM     35  C   UNL     1      -0.154   0.946  -0.473  0.00  0.00    +0.006 C 
ATOM     36  C   UNL     1      -0.146  -0.356  -0.324  0.00  0.00    -0.007 C 
ENDBRANCH  34  36
ENDBRANCH  33  34
ENDBRANCH  32  33
ENDBRANCH  29  32
ENDBRANCH  28  29
ENDBRANCH  20  28
ENDBRANCH   1  20
TORSDOF 11
