REMARK  Name = ZINC03293939
REMARK  10 active torsions:
REMARK  status: ('A' for Active; 'I' for Inactive)
REMARK    1  A    between atoms: C_3  and  C_6
REMARK    2  A    between atoms: C_6  and  N_7
REMARK    3  A    between atoms: N_7  and  S_8
REMARK    4  A    between atoms: S_8  and  C_11
REMARK    5  A    between atoms: C_14  and  C_17
REMARK    6  A    between atoms: C_17  and  O_19
REMARK    7  A    between atoms: O_19  and  C_20
REMARK    8  A    between atoms: C_20  and  C_21
REMARK    9  A    between atoms: N_23  and  C_24
REMARK   10  A    between atoms: C_25  and  C_33
REMARK                            x       y       z     vdW  Elec       q    Type
REMARK                         _______ _______ _______ _____ _____    ______ ____
ROOT
ATOM      1  C   UNL     1      -3.298   9.857  -5.262  0.00  0.00    +0.340 C 
ATOM      2  O   UNL     1      -3.361  10.837  -4.547  0.00  0.00    -0.245 OA
ENDROOT
BRANCH   1   6
ATOM      3  C   UNL     1      -4.191  10.187  -9.401  0.00  0.00    +0.105 A 
ATOM      4  C   UNL     1      -4.265  11.305  -8.589  0.00  0.00    +0.029 A 
ATOM      5  C   UNL     1      -3.976  11.205  -7.244  0.00  0.00    +0.017 A 
ATOM      6  C   UNL     1      -3.609   9.971  -6.702  0.00  0.00    +0.059 A 
ATOM      7  C   UNL     1      -3.532   8.848  -7.527  0.00  0.00    +0.017 A 
ATOM      8  C   UNL     1      -3.829   8.961  -8.870  0.00  0.00    +0.029 A 
BRANCH   3   9
ATOM      9  S   UNL     1      -4.561  10.324 -11.118  0.00  0.00    +0.059 S 
ATOM     10  O   UNL     1      -4.949   9.028 -11.554  0.00  0.00    -0.153 OA
ATOM     11  O   UNL     1      -5.402  11.460 -11.263  0.00  0.00    -0.153 OA
BRANCH   9  12
ATOM     12  N   UNL     1      -3.144  10.681 -11.897  0.00  0.00    -0.183 NA
ATOM     13  H   UNL     1      -3.040  11.534 -12.347  0.00  0.00    +0.148 HD
BRANCH  12  14
ATOM     14  C   UNL     1      -2.049   9.709 -11.908  0.00  0.00    +0.180 C 
BRANCH  14  17
ATOM     15  C   UNL     1       0.687  10.989 -14.019  0.00  0.00    +0.041 A 
ATOM     16  C   UNL     1       0.021  10.898 -12.775  0.00  0.00    +0.046 A 
ATOM     17  C   UNL     1      -1.043  10.096 -12.961  0.00  0.00    +0.120 A 
ATOM     18  O   UNL     1      -1.054   9.695 -14.242  0.00  0.00    -0.466 OA
ATOM     19  C   UNL     1      -0.011  10.238 -14.890  0.00  0.00    +0.195 A 
ENDBRANCH  14  17
ENDBRANCH  12  14
ENDBRANCH   9  12
ENDBRANCH   3   9
ENDBRANCH   1   6
BRANCH   1  20
ATOM     20  O   UNL     1      -2.944   8.665  -4.742  0.00  0.00    -0.452 OA
BRANCH  20  21
ATOM     21  C   UNL     1      -2.653   8.627  -3.320  0.00  0.00    +0.328 C 
BRANCH  21  22
ATOM     22  C   UNL     1      -2.279   7.222  -2.922  0.00  0.00    +0.255 C 
ATOM     23  O   UNL     1      -2.260   6.341  -3.755  0.00  0.00    -0.272 OA
ATOM     24  N   UNL     1      -1.965   6.946  -1.641  0.00  0.00    -0.276 N 
ATOM     25  H   UNL     1      -1.980   7.652  -0.975  0.00  0.00    +0.155 HD
BRANCH  24  26
ATOM     26  C   UNL     1      -1.621   5.653  -1.274  0.00  0.00    +0.090 A 
ATOM     27  C   UNL     1      -1.271   5.177  -0.019  0.00  0.00    +0.084 A 
ATOM     28  C   UNL     1      -0.951   3.765   0.100  0.00  0.00    -0.018 A 
ATOM     29  C   UNL     1      -1.032   3.059  -1.049  0.00  0.00    -0.004 A 
ATOM     30  S   UNL     1      -1.524   4.240  -2.273  0.00  0.00    -0.077 S 
ATOM     31  C   UNL     1      -0.761   1.597  -1.232  0.00  0.00    +0.043 C 
ATOM     32  C   UNL     1      -0.013   1.086   0.008  0.00  0.00    +0.005 C 
ATOM     33  C   UNL     1      -0.735   1.583   1.264  0.00  0.00    +0.005 C 
ATOM     34  C   UNL     1      -0.551   3.094   1.407  0.00  0.00    +0.037 C 
BRANCH  27  35
ATOM     35  C   UNL     1      -1.226   6.046   1.118  0.00  0.00    +0.102 C 
ATOM     36  N   UNL     1      -1.191   6.736   2.020  0.00  0.00    -0.191 NA
ENDBRANCH  27  35
ENDBRANCH  24  26
ENDBRANCH  21  22
ENDBRANCH  20  21
ENDBRANCH   1  20
TORSDOF 10
