REMARK  Name = ZINC20610572
REMARK  4 active torsions:
REMARK  status: ('A' for Active; 'I' for Inactive)
REMARK    1  A    between atoms: C_12  and  C_15
REMARK    2  A    between atoms: C_15  and  C_16
REMARK    3  A    between atoms: C_16  and  C_17
REMARK    4  A    between atoms: N_22  and  C_25
REMARK                            x       y       z     vdW  Elec       q    Type
REMARK                         _______ _______ _______ _____ _____    ______ ____
ROOT
ATOM      1  C   UNL     1      -0.484   1.059  -2.567  0.00  0.00    +0.000 A 
ATOM      2  C   UNL     1       0.594   1.681  -3.170  0.00  0.00    +0.002 A 
ATOM      3  C   UNL     1       1.845   1.101  -3.128  0.00  0.00    +0.023 A 
ATOM      4  C   UNL     1       2.032  -0.117  -2.478  0.00  0.00    +0.039 A 
ATOM      5  C   UNL     1       0.940  -0.734  -1.876  0.00  0.00    +0.003 A 
ATOM      6  C   UNL     1      -0.307  -0.151  -1.919  0.00  0.00    +0.008 A 
ATOM      7  C   UNL     1       1.466  -2.008  -1.278  0.00  0.00    +0.136 C 
ATOM      8  C   UNL     1       1.232  -2.060   0.236  0.00  0.00    +0.122 C 
ATOM      9  C   UNL     1       0.941  -3.558   0.535  0.00  0.00    +0.107 C 
ATOM     10  C   UNL     1       1.054  -4.264  -0.833  0.00  0.00    +0.068 C 
ATOM     11  N   UNL     1       0.782  -3.190  -1.834  0.00  0.00    -0.295 NA
ATOM     12  C   UNL     1      -0.500  -3.549   0.991  0.00  0.00    +0.227 C 
ATOM     13  O   UNL     1      -1.138  -4.526   1.318  0.00  0.00    -0.275 OA
ATOM     14  N   UNL     1      -0.963  -2.294   0.978  0.00  0.00    -0.238 N 
ATOM     15  C   UNL     1      -0.066  -1.364   0.575  0.00  0.00    +0.228 C 
ATOM     16  O   UNL     1      -0.263  -0.170   0.495  0.00  0.00    -0.275 OA
ATOM     17  C   UNL     1       2.934  -2.018  -1.608  0.00  0.00    +0.243 C 
ATOM     18  O   UNL     1       3.738  -2.874  -1.307  0.00  0.00    -0.273 OA
ATOM     19  N   UNL     1       3.181  -0.891  -2.303  0.00  0.00    -0.283 N 
ATOM     20  H   UNL     1      -0.207  -3.020  -1.937  0.00  0.00    +0.123 HD
ATOM     21  H   UNL     1       4.056  -0.645  -2.643  0.00  0.00    +0.155 HD
ENDROOT
BRANCH  14  22
ATOM     22  C   UNL     1      -2.330  -1.949   1.373  0.00  0.00    +0.084 C 
ATOM     23  C   UNL     1      -2.602  -2.433   2.812  0.00  0.00    +0.023 C 
ATOM     24  C   UNL     1      -4.076  -2.910   2.781  0.00  0.00    +0.002 C 
ATOM     25  C   UNL     1      -4.190  -3.576   1.387  0.00  0.00    +0.002 C 
ATOM     26  C   UNL     1      -3.340  -2.676   0.467  0.00  0.00    +0.023 C 
ENDBRANCH  14  22
BRANCH  10  27
ATOM     27  C   UNL     1       2.455  -4.852  -1.013  0.00  0.00    +0.028 C 
BRANCH  27  28
ATOM     28  C   UNL     1       2.469  -6.298  -0.514  0.00  0.00    +0.097 C 
BRANCH  28  29
ATOM     29  C   UNL     1       3.849  -6.878  -0.692  0.00  0.00    +0.211 C 
ATOM     30  O   UNL     1       4.734  -6.201  -1.171  0.00  0.00    -0.276 OA
ATOM     31  N   UNL     1       4.099  -8.149  -0.319  0.00  0.00    -0.329 N 
ATOM     32  H   UNL     1       3.392  -8.690   0.064  0.00  0.00    +0.145 HD
ATOM     33  H   UNL     1       4.987  -8.522  -0.433  0.00  0.00    +0.145 HD
ENDBRANCH  28  29
ENDBRANCH  27  28
ENDBRANCH  10  27
TORSDOF 4
