REMARK  Name = ZINC28083542
REMARK  6 active torsions:
REMARK  status: ('A' for Active; 'I' for Inactive)
REMARK    1  A    between atoms: C_3  and  O_22
REMARK    2  A    between atoms: C_6  and  N_7
REMARK    3  A    between atoms: C_8  and  C_10
REMARK    4  A    between atoms: C_10  and  O_11
REMARK    5  A    between atoms: O_11  and  C_12
REMARK    6  A    between atoms: C_15  and  N_19
REMARK                            x       y       z     vdW  Elec       q    Type
REMARK                         _______ _______ _______ _____ _____    ______ ____
ROOT
ATOM      1  N   UNL     1       3.910  -2.192  -0.049  0.00  0.00    -0.283 N 
ATOM      2  C   UNL     1       3.713  -0.859  -0.041  0.00  0.00    +0.255 C 
ATOM      3  O   UNL     1       4.664  -0.105  -0.055  0.00  0.00    -0.272 OA
ATOM      4  H   UNL     1       3.052  -2.875   0.040  0.00  0.00    +0.155 HD
ENDROOT
BRANCH   1  10
ATOM      5  C   UNL     1       5.423  -3.887  -0.871  0.00  0.00    +0.027 A 
ATOM      6  C   UNL     1       6.702  -4.393  -0.994  0.00  0.00    +0.047 A 
ATOM      7  C   UNL     1       7.770  -3.729  -0.409  0.00  0.00    +0.117 A 
ATOM      8  C   UNL     1       7.554  -2.553   0.295  0.00  0.00    +0.047 A 
ATOM      9  C   UNL     1       6.277  -2.044   0.415  0.00  0.00    +0.027 A 
ATOM     10  C   UNL     1       5.207  -2.708  -0.171  0.00  0.00    +0.034 A 
BRANCH   7  11
ATOM     11  O   UNL     1       9.028  -4.230  -0.526  0.00  0.00    -0.507 OA
ATOM     12  H   UNL     1       9.875  -3.704  -0.062  0.00  0.00    +0.292 HD
ENDBRANCH   7  11
ENDBRANCH   1  10
BRANCH   2  13
ATOM     13  C   UNL     1       2.312  -0.304  -0.016  0.00  0.00    +0.325 C 
BRANCH  13  14
ATOM     14  O   UNL     1       2.366   1.124  -0.012  0.00  0.00    -0.481 OA
BRANCH  14  15
ATOM     15  C   UNL     1       1.179   1.786   0.010  0.00  0.00    +0.140 A 
ATOM     16  C   UNL     1      -0.013   1.075   0.028  0.00  0.00    +0.049 A 
ATOM     17  C   UNL     1      -1.218   1.750   0.044  0.00  0.00    +0.036 A 
ATOM     18  C   UNL     1      -1.238   3.133   0.054  0.00  0.00    +0.128 A 
ATOM     19  C   UNL     1      -0.053   3.844   0.037  0.00  0.00    +0.056 A 
ATOM     20  C   UNL     1       1.156   3.174   0.015  0.00  0.00    +0.085 A 
ATOM     21 CL   UNL     1       2.644   4.067  -0.008  0.00  0.00    -0.080 Cl
BRANCH  18  22
ATOM     22  N   UNL     1      -2.531   3.852   0.077  0.00  0.00    +0.056 N 
ATOM     23  O   UNL     1      -2.551   5.070   0.081  0.00  0.00    -0.126 OA
ATOM     24  O   UNL     1      -3.576   3.227   0.092  0.00  0.00    -0.126 OA
ENDBRANCH  18  22
ENDBRANCH  14  15
ENDBRANCH  13  14
ENDBRANCH   2  13
TORSDOF 6
