REMARK  Name = ZINC39912444
REMARK  9 active torsions:
REMARK  status: ('A' for Active; 'I' for Inactive)
REMARK    1  A    between atoms: C_1  and  C_2
REMARK    2  A    between atoms: C_4  and  C_36
REMARK    3  A    between atoms: C_5  and  O_35
REMARK    4  A    between atoms: C_6  and  C_8
REMARK    5  A    between atoms: N_16  and  C_27
REMARK    6  A    between atoms: C_17  and  C_19
REMARK    7  A    between atoms: C_22  and  O_25
REMARK    8  A    between atoms: O_25  and  C_26
REMARK    9  A    between atoms: C_27  and  C_28
REMARK                            x       y       z     vdW  Elec       q    Type
REMARK                         _______ _______ _______ _____ _____    ______ ____
ROOT
ATOM      1  C   UNL     1      -0.944  -1.805   1.893  0.00  0.00    +0.102 A 
ATOM      2  C   UNL     1      -0.401  -1.658   3.174  0.00  0.00    +0.035 A 
ATOM      3  C   UNL     1      -0.127  -2.938   3.616  0.00  0.00    +0.126 A 
ATOM      4  N   UNL     1      -0.507  -3.777   2.608  0.00  0.00    -0.272 N 
ATOM      5  H   UNL     1      -0.435  -4.744   2.631  0.00  0.00    +0.189 HD
ATOM      6  N   UNL     1      -0.981  -3.096   1.626  0.00  0.00    -0.173 NA
ATOM      7  C   UNL     1       0.448  -2.853   4.963  0.00  0.00    +0.266 C 
ATOM      8  O   UNL     1       0.799  -3.808   5.630  0.00  0.00    -0.268 OA
ATOM      9  N   UNL     1       0.534  -1.569   5.356  0.00  0.00    -0.281 N 
ATOM     10  C   UNL     1       0.013  -0.722   4.276  0.00  0.00    +0.142 C 
ENDROOT
BRANCH   1  16
ATOM     11  C   UNL     1      -1.876   3.039   1.130  0.00  0.00    +0.044 C 
ATOM     12  C   UNL     1      -1.851   1.618   0.630  0.00  0.00    -0.049 A 
ATOM     13  C   UNL     1      -2.255   1.335  -0.663  0.00  0.00    +0.010 A 
ATOM     14  C   UNL     1      -2.235   0.035  -1.130  0.00  0.00    -0.008 A 
ATOM     15  C   UNL     1      -1.810  -0.993  -0.305  0.00  0.00    +0.129 A 
ATOM     16  C   UNL     1      -1.401  -0.710   1.002  0.00  0.00    +0.044 A 
ATOM     17  C   UNL     1      -1.419   0.604   1.461  0.00  0.00    +0.017 A 
ATOM     18  C   UNL     1      -2.677  -0.265  -2.539  0.00  0.00    +0.047 C 
BRANCH  15  19
ATOM     19  O   UNL     1      -1.791  -2.272  -0.763  0.00  0.00    -0.506 OA
ATOM     20  H   UNL     1      -0.957  -2.528  -1.180  0.00  0.00    +0.292 HD
ENDBRANCH  15  19
ENDBRANCH   1  16
BRANCH  10  21
ATOM     21  C   UNL     1       1.089   0.213   3.786  0.00  0.00    -0.022 A 
ATOM     22  C   UNL     1       0.799   1.548   3.573  0.00  0.00    +0.009 A 
ATOM     23  C   UNL     1       1.783   2.407   3.123  0.00  0.00    +0.046 A 
ATOM     24  C   UNL     1       3.063   1.929   2.885  0.00  0.00    +0.120 A 
ATOM     25  C   UNL     1       3.352   0.589   3.100  0.00  0.00    +0.046 A 
ATOM     26  C   UNL     1       2.365  -0.265   3.555  0.00  0.00    +0.009 A 
BRANCH  24  27
ATOM     27  O   UNL     1       4.033   2.771   2.442  0.00  0.00    -0.495 OA
ATOM     28  C   UNL     1       5.328   2.209   2.218  0.00  0.00    +0.277 C 
ENDBRANCH  24  27
ENDBRANCH  10  21
BRANCH   9  29
ATOM     29  C   UNL     1       1.058  -1.098   6.640  0.00  0.00    +0.145 C 
BRANCH  29  30
ATOM     30  C   UNL     1      -0.086  -0.856   7.591  0.00  0.00    -0.012 A 
ATOM     31  C   UNL     1      -0.608   0.415   7.736  0.00  0.00    +0.006 A 
ATOM     32  C   UNL     1      -1.657   0.637   8.608  0.00  0.00    +0.000 A 
ATOM     33  C   UNL     1      -2.185  -0.413   9.336  0.00  0.00    +0.001 A 
ATOM     34  C   UNL     1      -1.664  -1.685   9.192  0.00  0.00    +0.020 A 
ATOM     35  C   UNL     1      -0.618  -1.909   8.315  0.00  0.00    +0.046 A 
ATOM     36 CL   UNL     1       0.033  -3.507   8.129  0.00  0.00    -0.083 Cl
ENDBRANCH  29  30
ENDBRANCH   9  29
TORSDOF 6
