REMARK  Name = ZINC34255712
REMARK  10 active torsions:
REMARK  status: ('A' for Active; 'I' for Inactive)
REMARK    1  A    between atoms: C_1  and  N_2
REMARK    2  A    between atoms: C_9  and  O_34
REMARK    3  A    between atoms: C_11  and  C_13
REMARK    4  A    between atoms: C_13  and  C_14
REMARK    5  A    between atoms: C_14  and  C_16
REMARK    6  A    between atoms: C_16  and  C_17
REMARK    7  A    between atoms: C_24  and  O_25
REMARK    8  A    between atoms: O_25  and  C_26
REMARK    9  A    between atoms: N_32  and  C_33
REMARK   10  A    between atoms: O_34  and  C_35
REMARK                            x       y       z     vdW  Elec       q    Type
REMARK                         _______ _______ _______ _____ _____    ______ ____
ROOT
ATOM      1  C   UNL     1       2.346   1.597   1.710  0.00  0.00    +0.134 C 
ATOM      2  O   UNL     1       1.312   2.171   1.953  0.00  0.00    -0.297 OA
ENDROOT
BRANCH   1   3
ATOM      3  C   UNL     1       2.357   0.098   1.555  0.00  0.00    +0.064 C 
BRANCH   3  14
ATOM      4  C   UNL     1       1.535  -1.084   4.077  0.00  0.00    -0.095 C 
ATOM      5  N   UNL     1       0.639  -0.260   3.255  0.00  0.00    +0.383 N 
ATOM      6  C   UNL     1      -0.755  -0.663   3.491  0.00  0.00    -0.074 C 
ATOM      7  C   UNL     1      -1.678   0.390   2.876  0.00  0.00    +0.017 C 
ATOM      8  C   UNL     1      -1.274   0.650   1.447  0.00  0.00    -0.040 A 
ATOM      9  C   UNL     1      -2.172   1.296   0.612  0.00  0.00    +0.053 A 
ATOM     10  C   UNL     1      -1.842   1.557  -0.707  0.00  0.00    +0.170 A 
ATOM     11  C   UNL     1      -0.599   1.168  -1.196  0.00  0.00    +0.208 A 
ATOM     12  C   UNL     1       0.297   0.521  -0.357  0.00  0.00    +0.167 A 
ATOM     13  C   UNL     1      -0.042   0.260   0.966  0.00  0.00    -0.012 A 
ATOM     14  C   UNL     1       0.958  -0.454   1.837  0.00  0.00    -0.027 C 
ATOM     15  O   UNL     1      -0.511   1.534  -2.509  0.00  0.00    -0.449 OA
ATOM     16  C   UNL     1      -1.866   1.783  -2.929  0.00  0.00    +0.467 C 
ATOM     17  O   UNL     1      -2.535   2.166  -1.713  0.00  0.00    -0.452 OA
ATOM     18  H   UNL     1       0.757   0.712   3.497  0.00  0.00    -0.081 HD
BRANCH  12  19
ATOM     19  O   UNL     1       1.514   0.139  -0.832  0.00  0.00    -0.491 OA
ATOM     20  C   UNL     1       1.580  -1.115  -1.514  0.00  0.00    +0.277 C 
ENDBRANCH  12  19
ENDBRANCH   3  14
ENDBRANCH   1   3
BRANCH   1  21
ATOM     21  C   UNL     1       3.626   2.378   1.562  0.00  0.00    +0.098 C 
BRANCH  21  22
ATOM     22  C   UNL     1       3.367   3.849   1.897  0.00  0.00    +0.098 C 
ATOM     23  C   UNL     1       2.744   3.945   3.265  0.00  0.00    +0.019 A 
ATOM     24  C   UNL     1       1.697   4.803   3.529  0.00  0.00    -0.034 A 
ATOM     25  C   UNL     1       1.156   4.864   4.804  0.00  0.00    +0.053 A 
ATOM     26  C   UNL     1       1.657   4.067   5.819  0.00  0.00    +0.170 A 
ATOM     27  C   UNL     1       2.711   3.199   5.557  0.00  0.00    +0.208 A 
ATOM     28  C   UNL     1       3.251   3.140   4.280  0.00  0.00    +0.170 A 
ATOM     29  O   UNL     1       3.021   2.528   6.706  0.00  0.00    -0.449 OA
ATOM     30  C   UNL     1       2.419   3.290   7.769  0.00  0.00    +0.467 C 
ATOM     31  O   UNL     1       1.305   3.943   7.133  0.00  0.00    -0.452 OA
ATOM     32  C   UNL     1       1.109   5.686   2.457  0.00  0.00    +0.051 C 
ATOM     33  C   UNL     1       2.074   5.786   1.276  0.00  0.00    +0.089 C 
ATOM     34  N   UNL     1       2.476   4.425   0.885  0.00  0.00    -0.298 NA
ATOM     35  C   UNL     1       3.112   4.425  -0.439  0.00  0.00    +0.105 C 
BRANCH  28  36
ATOM     36  O   UNL     1       4.282   2.292   4.020  0.00  0.00    -0.491 OA
ATOM     37  C   UNL     1       5.604   2.802   4.205  0.00  0.00    +0.277 C 
ENDBRANCH  28  36
ENDBRANCH  21  22
ENDBRANCH   1  21
TORSDOF 6
