REMARK  Name = ZINC39940153
REMARK  10 active torsions:
REMARK  status: ('A' for Active; 'I' for Inactive)
REMARK    1  A    between atoms: C_1  and  C_2
REMARK    2  A    between atoms: C_6  and  N_8
REMARK    3  A    between atoms: C_9  and  S_23
REMARK    4  A    between atoms: C_13  and  C_14
REMARK    5  A    between atoms: S_23  and  C_24
REMARK    6  A    between atoms: C_24  and  C_26
REMARK    7  A    between atoms: C_24  and  C_27
REMARK    8  A    between atoms: C_27  and  C_29
REMARK    9  A    between atoms: C_31  and  C_36
REMARK   10  A    between atoms: C_34  and  C_35
REMARK                            x       y       z     vdW  Elec       q    Type
REMARK                         _______ _______ _______ _____ _____    ______ ____
ROOT
ATOM      1  N   UNL     1       1.126  -2.835   2.676  0.00  0.00    -0.254 N 
ATOM      2  C   UNL     1       0.976  -4.293   2.545  0.00  0.00    +0.242 C 
ATOM      3  N   UNL     1       1.191  -4.804   3.909  0.00  0.00    -0.237 N 
ATOM      4  N   UNL     1       1.441  -3.689   4.716  0.00  0.00    -0.169 NA
ATOM      5  C   UNL     1       1.411  -2.583   4.021  0.00  0.00    +0.151 C 
ATOM      6  H   UNL     1       1.165  -5.732   4.192  0.00  0.00    +0.171 HD
ENDROOT
BRANCH   5   7
ATOM      7  C   UNL     1       1.631  -1.304   4.557  0.00  0.00    +0.022 C 
ATOM      8  C   UNL     1       1.942  -0.986   5.879  0.00  0.00    +0.006 A 
ATOM      9  C   UNL     1       2.125  -1.779   7.032  0.00  0.00    +0.010 A 
ATOM     10  C   UNL     1       2.429  -1.186   8.216  0.00  0.00    +0.001 A 
ATOM     11  C   UNL     1       2.567   0.199   8.326  0.00  0.00    +0.002 A 
ATOM     12  C   UNL     1       2.404   1.021   7.260  0.00  0.00    +0.026 A 
ATOM     13  C   UNL     1       2.086   0.474   5.989  0.00  0.00    +0.043 A 
ATOM     14  N   UNL     1       1.881   1.048   4.820  0.00  0.00    -0.380 N 
ATOM     15  C   UNL     1       1.588   0.016   3.820  0.00  0.00    +0.152 C 
ATOM     16  H   UNL     1       1.922   2.001   4.647  0.00  0.00    +0.160 HD
ENDBRANCH   5   7
BRANCH   1  22
ATOM     17  C   UNL     1      -1.688  -0.347  -0.494  0.00  0.00    +0.044 C 
ATOM     18  C   UNL     1      -0.339  -0.663   0.099  0.00  0.00    -0.049 A 
ATOM     19  C   UNL     1       0.790  -0.015  -0.369  0.00  0.00    +0.003 A 
ATOM     20  C   UNL     1       2.030  -0.301   0.172  0.00  0.00    +0.002 A 
ATOM     21  C   UNL     1       2.145  -1.236   1.182  0.00  0.00    +0.023 A 
ATOM     22  C   UNL     1       1.014  -1.889   1.655  0.00  0.00    +0.038 A 
ATOM     23  C   UNL     1      -0.232  -1.595   1.112  0.00  0.00    +0.027 A 
ENDBRANCH   1  22
BRANCH   2  24
ATOM     24  S   UNL     1       2.223  -4.961   1.409  0.00  0.00    -0.107 S 
BRANCH  24  25
ATOM     25  C   UNL     1       3.802  -4.517   2.182  0.00  0.00    +0.118 C 
ATOM     26  C   UNL     1       3.943  -5.252   3.516  0.00  0.00    +0.027 C 
BRANCH  25  27
ATOM     27  C   UNL     1       4.936  -4.910   1.270  0.00  0.00    +0.176 C 
ATOM     28  O   UNL     1       4.783  -5.802   0.463  0.00  0.00    -0.291 OA
BRANCH  27  29
ATOM     29  C   UNL     1       6.228  -4.211   1.359  0.00  0.00    +0.022 A 
ATOM     30  C   UNL     1       6.372  -3.103   2.201  0.00  0.00    +0.015 A 
ATOM     31  C   UNL     1       7.586  -2.454   2.279  0.00  0.00    -0.050 A 
ATOM     32  C   UNL     1       8.660  -2.896   1.526  0.00  0.00    +0.003 A 
ATOM     33  C   UNL     1       8.526  -3.990   0.690  0.00  0.00    +0.004 A 
ATOM     34  C   UNL     1       7.320  -4.654   0.606  0.00  0.00    -0.040 A 
ATOM     35  C   UNL     1       7.177  -5.850  -0.301  0.00  0.00    +0.044 C 
ATOM     36  C   UNL     1       7.743  -1.261   3.185  0.00  0.00    +0.044 C 
ENDBRANCH  27  29
ENDBRANCH  25  27
ENDBRANCH  24  25
ENDBRANCH   2  24
TORSDOF 6
