REMARK  Name = ZINC67543561
REMARK  7 active torsions:
REMARK  status: ('A' for Active; 'I' for Inactive)
REMARK    1  A    between atoms: C_1  and  C_2
REMARK    2  A    between atoms: C_2  and  C_4
REMARK    3  A    between atoms: C_2  and  N_16
REMARK    4  A    between atoms: C_7  and  O_10
REMARK    5  A    between atoms: O_10  and  C_11
REMARK    6  A    between atoms: C_11  and  C_12
REMARK    7  A    between atoms: C_23  and  C_25
REMARK                            x       y       z     vdW  Elec       q    Type
REMARK                         _______ _______ _______ _____ _____    ______ ____
ROOT
ATOM      1  C   UNL     1      -0.019   1.526   0.010  0.00  0.00    +0.033 C 
ATOM      2  C   UNL     1       0.002  -0.004   0.002  0.00  0.00    +0.102 C 
ENDROOT
BRANCH   2   3
ATOM      3  N   UNL     1       0.711  -0.489   1.189  0.00  0.00    -0.293 N 
ATOM      4  C   UNL     1       0.051  -0.633   2.355  0.00  0.00    +0.306 C 
ATOM      5  O   UNL     1      -1.132  -0.361   2.423  0.00  0.00    -0.252 OA
ATOM      6  N   UNL     1       0.703  -1.080   3.447  0.00  0.00    -0.247 N 
ATOM      7  C   UNL     1       0.023  -1.229   4.651  0.00  0.00    +0.189 A 
ATOM      8  N   UNL     1      -1.246  -0.995   4.924  0.00  0.00    -0.126 NA
ATOM      9  N   UNL     1      -1.726  -1.179   6.078  0.00  0.00    -0.144 NA
ATOM     10  C   UNL     1      -0.937  -1.618   7.038  0.00  0.00    +0.107 A 
ATOM     11  S   UNL     1       0.603  -1.762   6.142  0.00  0.00    -0.035 S 
ATOM     12  H   UNL     1       1.654  -0.707   1.135  0.00  0.00    +0.151 HD
ATOM     13  H   UNL     1       1.647  -1.298   3.394  0.00  0.00    +0.158 HD
BRANCH  10  14
ATOM     14  C   UNL     1      -1.247  -1.918   8.482  0.00  0.00    +0.047 C 
ATOM     15  C   UNL     1      -2.716  -1.892   8.909  0.00  0.00    +0.011 C 
ATOM     16  C   UNL     1      -1.772  -0.770   9.345  0.00  0.00    +0.011 C 
ENDBRANCH  10  14
ENDBRANCH   2   3
BRANCH   2  17
ATOM     17  C   UNL     1       0.707  -0.490  -1.238  0.00  0.00    -0.027 A 
ATOM     18  C   UNL     1       2.089  -0.510  -1.283  0.00  0.00    +0.009 A 
ATOM     19  C   UNL     1       2.738  -0.955  -2.418  0.00  0.00    +0.046 A 
ATOM     20  C   UNL     1       2.002  -1.382  -3.514  0.00  0.00    +0.121 A 
ATOM     21  C   UNL     1       0.616  -1.361  -3.466  0.00  0.00    +0.046 A 
ATOM     22  C   UNL     1      -0.028  -0.920  -2.327  0.00  0.00    +0.009 A 
BRANCH  20  23
ATOM     23  O   UNL     1       2.638  -1.819  -4.633  0.00  0.00    -0.483 OA
BRANCH  23  24
ATOM     24  C   UNL     1       1.817  -2.244  -5.722  0.00  0.00    +0.342 C 
BRANCH  24  25
ATOM     25  C   UNL     1       2.704  -2.698  -6.883  0.00  0.00    +0.424 C 
ATOM     26  F   UNL     1       3.510  -3.762  -6.465  0.00  0.00    -0.167 F 
ATOM     27  F   UNL     1       1.900  -3.113  -7.950  0.00  0.00    -0.167 F 
ATOM     28  F   UNL     1       3.513  -1.634  -7.296  0.00  0.00    -0.167 F 
ENDBRANCH  24  25
ENDBRANCH  23  24
ENDBRANCH  20  23
ENDBRANCH   2  17
TORSDOF 6
