REMARK  Name = ZINC05200954
REMARK  6 active torsions:
REMARK  status: ('A' for Active; 'I' for Inactive)
REMARK    1  A    between atoms: C_4  and  O_32
REMARK    2  A    between atoms: C_5  and  C_7
REMARK    3  A    between atoms: N_15  and  C_25
REMARK    4  A    between atoms: C_16  and  C_18
REMARK    5  A    between atoms: C_22  and  O_24
REMARK    6  A    between atoms: C_25  and  C_26
REMARK                            x       y       z     vdW  Elec       q    Type
REMARK                         _______ _______ _______ _____ _____    ______ ____
ROOT
ATOM      1  C   UNL     1       1.246  -2.162  -0.022  0.00  0.00    +0.075 A 
ATOM      2  C   UNL     1       1.726  -2.971   0.959  0.00  0.00    +0.035 A 
ATOM      3  C   UNL     1       1.537  -4.294   0.499  0.00  0.00    +0.153 A 
ATOM      4  N   UNL     1       0.974  -4.210  -0.690  0.00  0.00    -0.168 NA
ATOM      5  N   UNL     1       0.788  -2.980  -1.015  0.00  0.00    -0.276 N 
ATOM      6  H   UNL     1       0.385  -2.678  -1.843  0.00  0.00    +0.189 HD
ATOM      7  C   UNL     1       2.045  -5.210   1.536  0.00  0.00    +0.268 C 
ATOM      8  O   UNL     1       2.032  -6.423   1.456  0.00  0.00    -0.268 OA
ATOM      9  N   UNL     1       2.524  -4.515   2.583  0.00  0.00    -0.283 N 
ATOM     10  C   UNL     1       2.368  -3.081   2.315  0.00  0.00    +0.141 C 
ENDROOT
BRANCH   1  15
ATOM     11  C   UNL     1      -0.017   1.375   0.010  0.00  0.00    +0.001 A 
ATOM     12  C   UNL     1       1.169   2.089   0.002  0.00  0.00    +0.004 A 
ATOM     13  C   UNL     1       2.382   1.427  -0.013  0.00  0.00    +0.046 A 
ATOM     14  C   UNL     1       2.417   0.042  -0.021  0.00  0.00    +0.126 A 
ATOM     15  C   UNL     1       1.220  -0.683  -0.013  0.00  0.00    +0.042 A 
ATOM     16  C   UNL     1       0.002  -0.004   0.002  0.00  0.00    +0.013 A 
BRANCH  14  17
ATOM     17  O   UNL     1       3.609  -0.610  -0.036  0.00  0.00    -0.506 OA
ATOM     18  H   UNL     1       3.962  -0.804   0.843  0.00  0.00    +0.292 HD
ENDBRANCH  14  17
ENDBRANCH   1  15
BRANCH  10  19
ATOM     19  C   UNL     1       1.482  -2.453   3.359  0.00  0.00    -0.019 A 
ATOM     20  C   UNL     1       0.387  -3.145   3.843  0.00  0.00    +0.006 A 
ATOM     21  C   UNL     1      -0.428  -2.572   4.801  0.00  0.00    +0.004 A 
ATOM     22  C   UNL     1      -0.150  -1.305   5.278  0.00  0.00    +0.045 A 
ATOM     23  C   UNL     1       0.948  -0.609   4.795  0.00  0.00    +0.117 A 
ATOM     24  C   UNL     1       1.768  -1.189   3.837  0.00  0.00    +0.051 A 
BRANCH  23  25
ATOM     25  O   UNL     1       1.224   0.637   5.262  0.00  0.00    -0.507 OA
ATOM     26  H   UNL     1       1.806   0.648   6.034  0.00  0.00    +0.292 HD
ENDBRANCH  23  25
ENDBRANCH  10  19
BRANCH   9  27
ATOM     27  C   UNL     1       3.107  -5.096   3.795  0.00  0.00    +0.140 C 
BRANCH  27  28
ATOM     28  C   UNL     1       4.614  -5.272   3.602  0.00  0.00    +0.136 C 
ATOM     29  C   UNL     1       5.218  -5.994   4.826  0.00  0.00    +0.035 C 
ATOM     30  C   UNL     1       6.566  -5.248   5.016  0.00  0.00    +0.031 C 
ATOM     31  C   UNL     1       6.173  -3.813   4.583  0.00  0.00    +0.160 C 
ATOM     32  O   UNL     1       5.244  -3.990   3.500  0.00  0.00    -0.375 OA
ENDBRANCH  27  28
ENDBRANCH   9  27
TORSDOF 6
