REMARK  Name = ZINC09972400
REMARK  5 active torsions:
REMARK  status: ('A' for Active; 'I' for Inactive)
REMARK    1  A    between atoms: C_1  and  C_2
REMARK    2  A    between atoms: C_9  and  N_31
REMARK    3  A    between atoms: C_10  and  C_29
REMARK    4  A    between atoms: N_18  and  C_21
REMARK    5  A    between atoms: C_21  and  C_22
REMARK                            x       y       z     vdW  Elec       q    Type
REMARK                         _______ _______ _______ _____ _____    ______ ____
ROOT
ATOM      1  C   UNL     1      -0.018   1.503   0.010  0.00  0.00    +0.068 C 
ATOM      2  C   UNL     1       0.002  -0.004   0.002  0.00  0.00    +0.068 A 
ATOM      3  C   UNL     1       0.008  -0.813  -1.126  0.00  0.00    +0.061 A 
ATOM      4  C   UNL     1       0.028  -2.117  -0.712  0.00  0.00    +0.223 A 
ATOM      5  N   UNL     1       0.035  -2.116   0.630  0.00  0.00    -0.246 N 
ATOM      6  H   UNL     1       0.049  -2.899   1.202  0.00  0.00    +0.192 HD
ATOM      7  N   UNL     1       0.023  -0.780   1.060  0.00  0.00    -0.176 NA
ATOM      8  O   UNL     1       0.038  -3.159  -1.581  0.00  0.00    -0.423 OA
ATOM      9  C   UNL     1      -0.240  -2.905  -2.875  0.00  0.00    +0.201 C 
ATOM     10  C   UNL     1      -0.277  -1.659  -3.405  0.00  0.00    +0.110 C 
ATOM     11  C   UNL     1      -0.003  -0.432  -2.580  0.00  0.00    +0.145 C 
ATOM     12  C   UNL     1       1.282   0.217  -2.982  0.00  0.00    -0.000 A 
ATOM     13  C   UNL     1       2.581  -0.243  -2.976  0.00  0.00    +0.022 A 
ATOM     14  C   UNL     1       3.564   0.634  -3.423  0.00  0.00    +0.018 A 
ATOM     15  C   UNL     1       3.248   1.908  -3.852  0.00  0.00    +0.017 A 
ATOM     16  C   UNL     1       1.944   2.377  -3.861  0.00  0.00    +0.025 A 
ATOM     17  C   UNL     1       0.949   1.507  -3.415  0.00  0.00    +0.042 A 
ATOM     18  N   UNL     1      -0.417   1.708  -3.320  0.00  0.00    -0.265 N 
ATOM     19  C   UNL     1      -1.057   0.621  -2.840  0.00  0.00    +0.241 C 
ATOM     20  O   UNL     1      -2.250   0.510  -2.652  0.00  0.00    -0.274 OA
ATOM     21 BR   UNL     1       5.369   0.070  -3.444  0.00  0.00    -0.050 Br
ENDROOT
BRANCH   9  22
ATOM     22  N   UNL     1      -0.501  -3.969  -3.703  0.00  0.00    -0.328 N 
ATOM     23  H   UNL     1      -0.481  -4.872  -3.351  0.00  0.00    +0.145 HD
ATOM     24  H   UNL     1      -0.704  -3.817  -4.639  0.00  0.00    +0.145 HD
ENDBRANCH   9  22
BRANCH  10  25
ATOM     25  C   UNL     1      -0.585  -1.506  -4.795  0.00  0.00    +0.102 C 
ATOM     26  N   UNL     1      -0.830  -1.384  -5.898  0.00  0.00    -0.191 NA
ENDBRANCH  10  25
BRANCH  18  27
ATOM     27  C   UNL     1      -1.089   2.955  -3.695  0.00  0.00    +0.148 C 
BRANCH  27  28
ATOM     28  C   UNL     1      -1.484   2.896  -5.148  0.00  0.00    -0.030 A 
ATOM     29  C   UNL     1      -0.608   3.340  -6.121  0.00  0.00    +0.005 A 
ATOM     30  C   UNL     1      -0.970   3.285  -7.454  0.00  0.00    +0.000 A 
ATOM     31  C   UNL     1      -2.208   2.786  -7.814  0.00  0.00    +0.000 A 
ATOM     32  C   UNL     1      -3.084   2.341  -6.841  0.00  0.00    +0.000 A 
ATOM     33  C   UNL     1      -2.720   2.392  -5.508  0.00  0.00    +0.005 A 
ENDBRANCH  27  28
ENDBRANCH  18  27
TORSDOF 4
