REMARK  Name = ZINC62581053
REMARK  5 active torsions:
REMARK  status: ('A' for Active; 'I' for Inactive)
REMARK    1  A    between atoms: C_1  and  N_2
REMARK    2  A    between atoms: C_4  and  S_11
REMARK    3  A    between atoms: N_7  and  C_10
REMARK    4  A    between atoms: S_11  and  N_14
REMARK    5  A    between atoms: C_18  and  C_20
REMARK                            x       y       z     vdW  Elec       q    Type
REMARK                         _______ _______ _______ _____ _____    ______ ____
ROOT
ATOM      1  S   UNL     1      -2.749  -3.284   0.353  0.00  0.00    +0.069 S 
ATOM      2  O   UNL     1      -2.870  -1.870   0.280  0.00  0.00    -0.153 OA
ATOM      3  O   UNL     1      -1.645  -3.923   0.978  0.00  0.00    -0.153 OA
ENDROOT
BRANCH   1   7
ATOM      4  C   UNL     1      -5.169  -6.428   3.644  0.00  0.00    +0.153 C 
ATOM      5  N   UNL     1      -5.254  -5.328   2.679  0.00  0.00    -0.301 N 
ATOM      6  C   UNL     1      -4.119  -4.885   2.056  0.00  0.00    +0.124 A 
ATOM      7  C   UNL     1      -4.198  -3.871   1.167  0.00  0.00    +0.186 A 
ATOM      8  C   UNL     1      -5.459  -3.287   0.898  0.00  0.00    +0.283 A 
ATOM      9  O   UNL     1      -5.554  -2.372   0.099  0.00  0.00    -0.265 OA
ATOM     10  N   UNL     1      -6.553  -3.753   1.533  0.00  0.00    -0.262 N 
ATOM     11  C   UNL     1      -6.447  -4.768   2.411  0.00  0.00    +0.332 A 
ATOM     12  O   UNL     1      -7.443  -5.181   2.972  0.00  0.00    -0.246 OA
ATOM     13  C   UNL     1      -7.863  -3.156   1.262  0.00  0.00    +0.157 C 
ENDBRANCH   1   7
BRANCH   1  14
ATOM     14  N   UNL     1      -2.801  -3.844  -1.204  0.00  0.00    -0.154 NA
ATOM     15  C   UNL     1      -3.421  -3.059  -2.293  0.00  0.00    +0.179 C 
ATOM     16  S   UNL     1      -2.592  -3.784  -3.776  0.00  0.00    -0.141 S 
ATOM     17  C   UNL     1      -2.362  -5.479  -3.076  0.00  0.00    +0.100 C 
ATOM     18  C   UNL     1      -2.235  -5.131  -1.573  0.00  0.00    +0.176 C 
BRANCH  18  19
ATOM     19  C   UNL     1      -0.775  -5.136  -1.198  0.00  0.00    +0.235 C 
ATOM     20  O   UNL     1      -0.166  -4.090  -1.120  0.00  0.00    -0.274 OA
ATOM     21  N   UNL     1      -0.147  -6.302  -0.950  0.00  0.00    -0.299 N 
ATOM     22  C   UNL     1      -0.913  -7.550  -0.951  0.00  0.00    +0.118 C 
ATOM     23  C   UNL     1      -0.448  -8.433  -2.115  0.00  0.00    +0.088 C 
ATOM     24  S   UNL     1       1.339  -8.722  -1.947  0.00  0.00    -0.158 S 
ATOM     25  C   UNL     1       2.019  -7.041  -1.814  0.00  0.00    +0.088 C 
ATOM     26  C   UNL     1       1.293  -6.306  -0.688  0.00  0.00    +0.118 C 
ENDBRANCH  18  19
ENDBRANCH   1  14
TORSDOF 3
