REMARK  Name = ZINC06764150
REMARK  8 active torsions:
REMARK  status: ('A' for Active; 'I' for Inactive)
REMARK    1  A    between atoms: C_1  and  C_2
REMARK    2  A    between atoms: C_9  and  N_14
REMARK    3  A    between atoms: C_10  and  C_11
REMARK    4  A    between atoms: N_14  and  C_15
REMARK    5  A    between atoms: C_15  and  N_17
REMARK    6  A    between atoms: C_18  and  C_20
REMARK    7  A    between atoms: C_24  and  O_26
REMARK    8  A    between atoms: O_26  and  C_27
REMARK                            x       y       z     vdW  Elec       q    Type
REMARK                         _______ _______ _______ _____ _____    ______ ____
ROOT
ATOM      1  N   UNL     1      -0.339   1.321   9.563  0.00  0.00    -0.291 N 
ATOM      2  H   UNL     1       0.460   0.771   9.585  0.00  0.00    +0.154 HD
ENDROOT
BRANCH   1  10
ATOM      3  C   UNL     1      -4.041   3.758  16.008  0.00  0.00    +0.008 C 
ATOM      4  C   UNL     1      -3.260   2.876  15.031  0.00  0.00    -0.009 C 
ATOM      5  C   UNL     1      -1.777   2.872  15.412  0.00  0.00    +0.008 C 
ATOM      6  C   UNL     1      -1.035   1.806  14.603  0.00  0.00    +0.037 C 
ATOM      7  C   UNL     1      -1.339   2.013  13.125  0.00  0.00    -0.023 A 
ATOM      8  C   UNL     1      -2.404   2.744  12.729  0.00  0.00    -0.004 A 
ATOM      9  S   UNL     1      -2.344   2.711  10.960  0.00  0.00    -0.077 S 
ATOM     10  C   UNL     1      -0.932   1.730  10.746  0.00  0.00    +0.084 A 
ATOM     11  C   UNL     1      -0.535   1.459  12.049  0.00  0.00    +0.068 A 
ATOM     12  C   UNL     1      -3.403   3.432  13.607  0.00  0.00    +0.046 C 
BRANCH  11  13
ATOM     13  C   UNL     1       0.651   0.644  12.328  0.00  0.00    +0.244 C 
ATOM     14  O   UNL     1       1.740   1.174  12.443  0.00  0.00    -0.270 OA
ATOM     15  N   UNL     1       0.535  -0.693  12.458  0.00  0.00    -0.325 N 
ATOM     16  H   UNL     1      -0.334  -1.115  12.366  0.00  0.00    +0.145 HD
ATOM     17  H   UNL     1       1.320  -1.232  12.643  0.00  0.00    +0.145 HD
ENDBRANCH  11  13
ENDBRANCH   1  10
BRANCH   1  18
ATOM     18  C   UNL     1      -0.873   1.687   8.380  0.00  0.00    +0.141 C 
ATOM     19  S   UNL     1      -2.283   2.656   8.341  0.00  0.00    -0.018 S 
BRANCH  18  20
ATOM     20  N   UNL     1      -0.296   1.288   7.229  0.00  0.00    -0.264 N 
ATOM     21  C   UNL     1      -0.829   1.654   6.046  0.00  0.00    +0.250 C 
ATOM     22  O   UNL     1      -1.830   2.342   6.018  0.00  0.00    -0.270 OA
ATOM     23  H   UNL     1       0.503   0.739   7.251  0.00  0.00    +0.157 HD
BRANCH  21  24
ATOM     24  C   UNL     1      -0.197   1.218   4.784  0.00  0.00    +0.041 A 
ATOM     25  C   UNL     1       0.953   0.427   4.813  0.00  0.00    +0.013 A 
ATOM     26  C   UNL     1       1.541   0.022   3.633  0.00  0.00    +0.004 A 
ATOM     27  C   UNL     1       0.992   0.392   2.419  0.00  0.00    +0.045 A 
ATOM     28  C   UNL     1      -0.149   1.182   2.380  0.00  0.00    +0.121 A 
ATOM     29  C   UNL     1      -0.747   1.595   3.558  0.00  0.00    +0.058 A 
BRANCH  28  30
ATOM     30  O   UNL     1      -0.682   1.547   1.184  0.00  0.00    -0.495 OA
ATOM     31  C   UNL     1      -0.013   1.086   0.008  0.00  0.00    +0.277 C 
ENDBRANCH  28  30
ENDBRANCH  21  24
ENDBRANCH  18  20
ENDBRANCH   1  18
TORSDOF 6
