REMARK  Name = ZINC42866687
REMARK  12 active torsions:
REMARK  status: ('A' for Active; 'I' for Inactive)
REMARK    1  A    between atoms: C_1  and  C_2
REMARK    2  A    between atoms: C_2  and  C_3
REMARK    3  A    between atoms: C_3  and  C_5
REMARK    4  A    between atoms: C_3  and  N_6
REMARK    5  A    between atoms: C_7  and  C_9
REMARK    6  A    between atoms: C_9  and  C_11
REMARK    7  A    between atoms: C_9  and  S_14
REMARK    8  A    between atoms: C_11  and  C_12
REMARK    9  A    between atoms: C_11  and  C_13
REMARK   10  A    between atoms: S_14  and  C_15
REMARK   11  A    between atoms: C_18  and  C_21
REMARK   12  A    between atoms: N_19  and  N_20
REMARK                            x       y       z     vdW  Elec       q    Type
REMARK                         _______ _______ _______ _____ _____    ______ ____
ROOT
ATOM      1  S   UNL     1       0.612  -0.002  -6.413  0.00  0.00    -0.071 S 
ENDROOT
BRANCH   1   2
ATOM      2  C   UNL     1       0.438  -1.755  -6.460  0.00  0.00    +0.209 A 
ATOM      3  N   UNL     1      -0.117  -2.507  -5.537  0.00  0.00    -0.121 NA
ATOM      4  N   UNL     1      -0.077  -3.742  -5.889  0.00  0.00    -0.126 NA
ATOM      5  C   UNL     1       0.508  -3.856  -7.061  0.00  0.00    +0.188 A 
ATOM      6  N   UNL     1       0.850  -2.584  -7.465  0.00  0.00    -0.223 N 
BRANCH   5   7
ATOM      7  C   UNL     1       0.746  -5.104  -7.804  0.00  0.00    +0.058 A 
ATOM      8  C   UNL     1       0.190  -6.344  -7.612  0.00  0.00    +0.019 A 
ATOM      9  C   UNL     1       0.571  -7.374  -8.442  0.00  0.00    +0.008 A 
ATOM     10  C   UNL     1       1.480  -7.134  -9.422  0.00  0.00    +0.046 A 
ATOM     11  S   UNL     1       1.826  -5.397  -9.195  0.00  0.00    -0.093 S 
ENDBRANCH   5   7
BRANCH   6  12
ATOM     12  N   UNL     1       1.474  -2.227  -8.627  0.00  0.00    -0.295 N 
ATOM     13  H   UNL     1       2.477  -2.226  -8.514  0.00  0.00    +0.163 HD
ATOM     14  H   UNL     1       1.196  -2.829  -9.387  0.00  0.00    +0.163 HD
ENDBRANCH   6  12
ENDBRANCH   1   2
BRANCH   1  15
ATOM     15  C   UNL     1      -0.257   0.485  -4.897  0.00  0.00    +0.143 C 
BRANCH  15  17
ATOM     16  N   UNL     1      -0.148  -0.245  -2.537  0.00  0.00    -0.312 N 
ATOM     17  C   UNL     1       0.499  -0.026  -3.698  0.00  0.00    +0.227 C 
ATOM     18  O   UNL     1       1.690  -0.241  -3.779  0.00  0.00    -0.275 OA
ATOM     19  H   UNL     1      -1.100  -0.074  -2.472  0.00  0.00    +0.149 HD
BRANCH  16  20
ATOM     20  C   UNL     1       0.587  -0.743  -1.371  0.00  0.00    +0.070 C 
ATOM     21  C   UNL     1       0.678  -2.268  -1.439  0.00  0.00    +0.028 C 
BRANCH  20  23
ATOM     22  C   UNL     1      -0.128   1.193   0.038  0.00  0.00    +0.005 C 
ATOM     23  C   UNL     1      -0.145  -0.332  -0.092  0.00  0.00    +0.018 C 
ENDBRANCH  20  23
ENDBRANCH  16  20
ENDBRANCH  15  17
BRANCH  15  24
ATOM     24  C   UNL     1      -0.348   2.011  -4.830  0.00  0.00    +0.005 C 
ATOM     25  C   UNL     1      -1.131   2.529  -6.038  0.00  0.00    +0.009 C 
ATOM     26  C   UNL     1      -1.066   2.423  -3.543  0.00  0.00    +0.009 C 
ENDBRANCH  15  24
ENDBRANCH   1  15
TORSDOF 8
