REMARK  Name = ZINC39681934
REMARK  7 active torsions:
REMARK  status: ('A' for Active; 'I' for Inactive)
REMARK    1  A    between atoms: C_1  and  C_2
REMARK    2  A    between atoms: C_2  and  C_3
REMARK    3  A    between atoms: C_3  and  C_4
REMARK    4  A    between atoms: C_4  and  C_6
REMARK    5  A    between atoms: C_4  and  C_7
REMARK    6  A    between atoms: C_11  and  C_20
REMARK    7  A    between atoms: N_22  and  C_23
REMARK                            x       y       z     vdW  Elec       q    Type
REMARK                         _______ _______ _______ _____ _____    ______ ____
ROOT
ATOM      1  C   UNL     1       1.432  -2.532  -2.692  0.00  0.00    +0.218 C 
ATOM      2  O   UNL     1       1.761  -1.758  -3.567  0.00  0.00    -0.275 OA
ATOM      3  N   UNL     1       1.505  -3.861  -2.905  0.00  0.00    -0.300 N 
ATOM      4  C   UNL     1       1.145  -4.952  -1.970  0.00  0.00    +0.121 C 
ATOM      5  C   UNL     1       0.462  -6.017  -2.857  0.00  0.00    +0.100 C 
ATOM      6  C   UNL     1       1.005  -5.756  -4.272  0.00  0.00    -0.004 C 
ATOM      7  C   UNL     1       1.958  -4.561  -4.131  0.00  0.00    +0.115 C 
ATOM      8  C   UNL     1      -0.137  -5.404  -5.220  0.00  0.00    -0.010 C 
ATOM      9  C   UNL     1       0.421  -5.205  -6.632  0.00  0.00    -0.082 C 
ATOM     10  N   UNL     1       1.089  -6.436  -7.074  0.00  0.00    +0.379 N 
ATOM     11  C   UNL     1       2.242  -6.717  -6.211  0.00  0.00    -0.082 C 
ATOM     12  C   UNL     1       1.762  -6.979  -4.781  0.00  0.00    -0.010 C 
ATOM     13  H   UNL     1       0.438  -7.205  -7.025  0.00  0.00    -0.086 HD
ATOM     14  H   UNL     1       1.402  -6.323  -8.026  0.00  0.00    -0.086 HD
ENDROOT
BRANCH   5  15
ATOM     15  C   UNL     1       0.836  -7.402  -2.395  0.00  0.00    +0.218 C 
ATOM     16  O   UNL     1       1.917  -7.599  -1.883  0.00  0.00    -0.275 OA
ATOM     17  N   UNL     1      -0.032  -8.421  -2.552  0.00  0.00    -0.314 N 
ATOM     18  H   UNL     1      -0.896  -8.264  -2.962  0.00  0.00    +0.149 HD
BRANCH  17  19
ATOM     19  C   UNL     1       0.332  -9.768  -2.104  0.00  0.00    +0.059 C 
ATOM     20  C   UNL     1       0.003  -9.920  -0.617  0.00  0.00    -0.056 C 
ATOM     21  N   UNL     1      -0.966 -11.002  -0.426  0.00  0.00    +0.381 N 
ATOM     22  C   UNL     1      -2.218 -10.702  -1.124  0.00  0.00    -0.078 C 
ATOM     23  C   UNL     1      -1.963 -10.577  -2.627  0.00  0.00    -0.014 C 
ATOM     24  C   UNL     1      -0.468 -10.808  -2.899  0.00  0.00    +0.004 C 
ATOM     25  C   UNL     1      -0.094 -12.204  -2.383  0.00  0.00    -0.014 C 
ATOM     26  C   UNL     1      -0.411 -12.277  -0.885  0.00  0.00    -0.078 C 
ATOM     27  H   UNL     1      -1.168 -11.078   0.560  0.00  0.00    -0.082 HD
ENDBRANCH  17  19
ENDBRANCH   5  15
BRANCH   1  28
ATOM     28  C   UNL     1       0.941  -2.007  -1.368  0.00  0.00    +0.072 C 
ATOM     29  C   UNL     1       1.855  -2.511  -0.249  0.00  0.00    +0.017 C 
BRANCH  28  30
ATOM     30  C   UNL     1       0.956  -0.477  -1.388  0.00  0.00    +0.012 C 
BRANCH  30  32
ATOM     31  C   UNL     1       0.356   1.586  -0.113  0.00  0.00    +0.004 C 
ATOM     32  C   UNL     1       0.341   0.056  -0.092  0.00  0.00    -0.003 C 
ENDBRANCH  30  32
ENDBRANCH  28  30
ENDBRANCH   1  28
TORSDOF 5
