REMARK  Name = ZINC01804698
REMARK  8 active torsions:
REMARK  status: ('A' for Active; 'I' for Inactive)
REMARK    1  A    between atoms: C_2  and  C_3
REMARK    2  A    between atoms: C_2  and  N_10
REMARK    3  A    between atoms: C_8  and  O_9
REMARK    4  A    between atoms: N_10  and  N_11
REMARK    5  A    between atoms: C_12  and  C_14
REMARK    6  A    between atoms: C_14  and  S_15
REMARK    7  A    between atoms: S_15  and  C_16
REMARK    8  A    between atoms: N_26  and  C_27
REMARK                            x       y       z     vdW  Elec       q    Type
REMARK                         _______ _______ _______ _____ _____    ______ ____
ROOT
ATOM      1  S   UNL     1       6.430  -0.997   0.175  0.00  0.00    -0.078 S 
ENDROOT
BRANCH   1   2
ATOM      2  C   UNL     1       7.734   0.036  -0.408  0.00  0.00    +0.177 A 
ATOM      3  N   UNL     1       7.574   1.335  -0.351  0.00  0.00    -0.223 NA
ATOM      4  C   UNL     1       8.530   2.184  -0.779  0.00  0.00    +0.079 A 
ATOM      5  C   UNL     1       8.360   3.570  -0.718  0.00  0.00    +0.028 A 
ATOM      6  C   UNL     1       9.355   4.394  -1.162  0.00  0.00    +0.002 A 
ATOM      7  C   UNL     1      10.537   3.875  -1.675  0.00  0.00    +0.001 A 
ATOM      8  C   UNL     1      10.734   2.524  -1.748  0.00  0.00    +0.015 A 
ATOM      9  C   UNL     1       9.735   1.660  -1.301  0.00  0.00    +0.065 A 
ATOM     10  C   UNL     1       9.891   0.200  -1.355  0.00  0.00    +0.267 A 
ATOM     11  O   UNL     1      10.905  -0.311  -1.794  0.00  0.00    -0.267 OA
ATOM     12  N   UNL     1       8.867  -0.555  -0.893  0.00  0.00    -0.255 N 
BRANCH  12  13
ATOM     13  C   UNL     1       8.968  -1.953  -0.916  0.00  0.00    +0.052 A 
ATOM     14  C   UNL     1       8.430  -2.671  -1.975  0.00  0.00    +0.027 A 
ATOM     15  C   UNL     1       8.531  -4.048  -1.996  0.00  0.00    +0.017 A 
ATOM     16  C   UNL     1       9.167  -4.712  -0.963  0.00  0.00    +0.018 A 
ATOM     17  C   UNL     1       9.704  -3.999   0.094  0.00  0.00    +0.017 A 
ATOM     18  C   UNL     1       9.611  -2.621   0.117  0.00  0.00    +0.027 A 
ATOM     19 BR   UNL     1       9.303  -6.598  -0.994  0.00  0.00    -0.050 Br
ENDBRANCH  12  13
ENDBRANCH   1   2
BRANCH   1  20
ATOM     20  C   UNL     1       5.152   0.172   0.715  0.00  0.00    +0.174 C 
BRANCH  20  22
ATOM     21  N   UNL     1       2.887   0.074   1.702  0.00  0.00    -0.236 N 
ATOM     22  C   UNL     1       3.965  -0.591   1.243  0.00  0.00    +0.239 C 
ATOM     23  O   UNL     1       3.979  -1.804   1.254  0.00  0.00    -0.273 OA
ATOM     24  H   UNL     1       2.875   1.044   1.693  0.00  0.00    +0.173 HD
BRANCH  21  25
ATOM     25  N   UNL     1       1.783  -0.635   2.193  0.00  0.00    -0.264 N 
ATOM     26  H   UNL     1       1.794  -1.605   2.203  0.00  0.00    +0.170 HD
BRANCH  25  28
ATOM     27  C   UNL     1       0.650   1.388   2.657  0.00  0.00    +0.035 C 
ATOM     28  C   UNL     1       0.667   0.054   2.669  0.00  0.00    +0.048 C 
BRANCH  28  29
ATOM     29  C   UNL     1      -0.500  -0.696   3.188  0.00  0.00    +0.038 A 
ATOM     30  C   UNL     1      -1.753  -0.537   2.599  0.00  0.00    +0.013 A 
ATOM     31  C   UNL     1      -2.837  -1.238   3.086  0.00  0.00    +0.001 A 
ATOM     32  C   UNL     1      -2.685  -2.099   4.159  0.00  0.00    +0.004 A 
ATOM     33  C   UNL     1      -1.448  -2.264   4.751  0.00  0.00    +0.046 A 
ATOM     34  C   UNL     1      -0.349  -1.571   4.269  0.00  0.00    +0.126 A 
BRANCH  34  35
ATOM     35  O   UNL     1       0.869  -1.737   4.847  0.00  0.00    -0.506 OA
ATOM     36  H   UNL     1       1.046  -1.124   5.574  0.00  0.00    +0.292 HD
ENDBRANCH  34  35
ENDBRANCH  28  29
ENDBRANCH  25  28
ENDBRANCH  21  25
ENDBRANCH  20  22
ENDBRANCH   1  20
TORSDOF 8
