REMARK  Name = ZINC10295657
REMARK  13 active torsions:
REMARK  status: ('A' for Active; 'I' for Inactive)
REMARK    1  A    between atoms: C_1  and  C_2
REMARK    2  A    between atoms: C_2  and  C_3
REMARK    3  A    between atoms: C_3  and  C_5
REMARK    4  A    between atoms: C_3  and  O_6
REMARK    5  A    between atoms: O_6  and  C_7
REMARK    6  A    between atoms: C_10  and  C_13
REMARK    7  A    between atoms: N_15  and  C_16
REMARK    8  A    between atoms: C_16  and  N_18
REMARK    9  A    between atoms: N_18  and  N_19
REMARK   10  A    between atoms: C_20  and  C_22
REMARK   11  A    between atoms: C_22  and  O_23
REMARK   12  A    between atoms: O_23  and  C_24
REMARK   13  A    between atoms: C_27  and  N_30
REMARK                            x       y       z     vdW  Elec       q    Type
REMARK                         _______ _______ _______ _____ _____    ______ ____
ROOT
ATOM      1  C   UNL     1       2.233   1.218   1.100  0.00  0.00    +0.153 C 
ATOM      2  S   UNL     1       2.220  -0.475   1.356  0.00  0.00    -0.017 S 
ENDROOT
BRANCH   1   5
ATOM      3  C   UNL     1      -0.093   1.205   0.901  0.00  0.00    +0.250 C 
ATOM      4  O   UNL     1      -0.102   0.003   1.083  0.00  0.00    -0.270 OA
ATOM      5  N   UNL     1       1.075   1.878   0.900  0.00  0.00    -0.263 N 
ATOM      6  H   UNL     1       1.083   2.837   0.756  0.00  0.00    +0.157 HD
BRANCH   3  10
ATOM      7  C   UNL     1      -3.739   3.283   0.255  0.00  0.00    +0.121 A 
ATOM      8  C   UNL     1      -3.752   1.908   0.461  0.00  0.00    +0.046 A 
ATOM      9  C   UNL     1      -2.571   1.231   0.671  0.00  0.00    +0.016 A 
ATOM     10  C   UNL     1      -1.359   1.927   0.676  0.00  0.00    +0.037 A 
ATOM     11  C   UNL     1      -1.352   3.310   0.473  0.00  0.00    +0.016 A 
ATOM     12  C   UNL     1      -2.536   3.979   0.259  0.00  0.00    +0.046 A 
BRANCH   7  13
ATOM     13  O   UNL     1      -4.904   3.947   0.049  0.00  0.00    -0.489 OA
BRANCH  13  14
ATOM     14  C   UNL     1      -6.090   3.157  -0.061  0.00  0.00    +0.170 C 
ATOM     15  C   UNL     1      -6.637   2.862   1.338  0.00  0.00    +0.052 C 
BRANCH  14  17
ATOM     16  C   UNL     1      -6.644   4.109  -2.303  0.00  0.00    +0.007 C 
ATOM     17  C   UNL     1      -7.140   3.923  -0.868  0.00  0.00    +0.041 C 
ENDBRANCH  14  17
ENDBRANCH  13  14
ENDBRANCH   7  13
ENDBRANCH   3  10
ENDBRANCH   1   5
BRANCH   1  18
ATOM     18  N   UNL     1       3.401   1.890   1.099  0.00  0.00    -0.245 N 
ATOM     19  H   UNL     1       4.235   1.415   1.244  0.00  0.00    +0.172 HD
BRANCH  18  20
ATOM     20  N   UNL     1       3.412   3.276   0.891  0.00  0.00    -0.232 N 
ATOM     21  C   UNL     1       4.580   3.948   0.890  0.00  0.00    +0.267 C 
ATOM     22  O   UNL     1       5.622   3.354   1.070  0.00  0.00    -0.271 OA
ATOM     23  H   UNL     1       2.579   3.751   0.747  0.00  0.00    +0.173 HD
BRANCH  21  24
ATOM     24  C   UNL     1       4.591   5.438   0.665  0.00  0.00    +0.326 C 
BRANCH  24  25
ATOM     25  O   UNL     1       5.937   5.916   0.709  0.00  0.00    -0.483 OA
BRANCH  25  26
ATOM     26  C   UNL     1       6.125   7.249   0.523  0.00  0.00    +0.121 A 
ATOM     27  C   UNL     1       5.036   8.079   0.298  0.00  0.00    +0.048 A 
ATOM     28  C   UNL     1       5.229   9.435   0.114  0.00  0.00    +0.036 A 
ATOM     29  C   UNL     1       6.506   9.963   0.144  0.00  0.00    +0.126 A 
ATOM     30  C   UNL     1       7.593   9.137   0.364  0.00  0.00    +0.036 A 
ATOM     31  C   UNL     1       7.405   7.782   0.553  0.00  0.00    +0.048 A 
BRANCH  29  32
ATOM     32  N   UNL     1       6.711  11.415  -0.058  0.00  0.00    +0.056 N 
ATOM     33  O   UNL     1       7.836  11.881  -0.031  0.00  0.00    -0.126 OA
ATOM     34  O   UNL     1       5.754  12.143  -0.251  0.00  0.00    -0.126 OA
ENDBRANCH  29  32
ENDBRANCH  25  26
ENDBRANCH  24  25
ENDBRANCH  21  24
ENDBRANCH  18  20
ENDBRANCH   1  18
TORSDOF 11
