REMARK  Name = ZINC20696597
REMARK  6 active torsions:
REMARK  status: ('A' for Active; 'I' for Inactive)
REMARK    1  A    between atoms: C_4  and  C_7
REMARK    2  A    between atoms: C_7  and  C_8
REMARK    3  A    between atoms: C_8  and  C_9
REMARK    4  A    between atoms: N_11  and  C_12
REMARK    5  A    between atoms: C_25  and  C_28
REMARK    6  A    between atoms: C_33  and  O_34
REMARK                            x       y       z     vdW  Elec       q    Type
REMARK                         _______ _______ _______ _____ _____    ______ ____
ROOT
ATOM      1  C   UNL     1       0.540   2.017   0.293  0.00  0.00    +0.034 A 
ATOM      2  C   UNL     1       1.853   1.644   0.040  0.00  0.00    +0.025 A 
ATOM      3  C   UNL     1       2.163   0.309  -0.125  0.00  0.00    +0.025 A 
ATOM      4  C   UNL     1       1.166  -0.654  -0.038  0.00  0.00    +0.031 A 
ATOM      5  C   UNL     1      -0.147  -0.290   0.217  0.00  0.00    -0.018 A 
ATOM      6  C   UNL     1      -0.453   1.054   0.381  0.00  0.00    +0.029 A 
ATOM      7  C   UNL     1      -1.250  -1.294   0.324  0.00  0.00    +0.049 C 
ATOM      8  C   UNL     1      -2.127  -1.283  -0.906  0.00  0.00    -0.023 C 
ATOM      9  C   UNL     1      -2.524  -2.499  -1.191  0.00  0.00    -0.030 C 
ATOM     10  C   UNL     1      -1.970  -3.488  -0.184  0.00  0.00    +0.033 C 
ATOM     11  C   UNL     1      -0.738  -2.744   0.412  0.00  0.00    +0.029 C 
ATOM     12  C   UNL     1       0.429  -2.946  -0.559  0.00  0.00    +0.108 C 
ATOM     13  N   UNL     1       1.500  -2.004  -0.215  0.00  0.00    -0.336 N 
ATOM     14  H   UNL     1       2.533  -2.363  -0.102  0.00  0.00    +0.147 HD
ENDROOT
BRANCH  12  15
ATOM     15  C   UNL     1      -0.036  -2.688  -1.969  0.00  0.00    +0.015 A 
ATOM     16  C   UNL     1      -0.089  -1.396  -2.454  0.00  0.00    +0.024 A 
ATOM     17  C   UNL     1      -0.516  -1.159  -3.748  0.00  0.00    +0.018 A 
ATOM     18  C   UNL     1      -0.892  -2.215  -4.559  0.00  0.00    +0.019 A 
ATOM     19  C   UNL     1      -0.841  -3.509  -4.078  0.00  0.00    +0.047 A 
ATOM     20  C   UNL     1      -0.406  -3.749  -2.782  0.00  0.00    +0.122 A 
ATOM     21 BR   UNL     1      -0.588   0.611  -4.410  0.00  0.00    -0.050 Br
BRANCH  20  22
ATOM     22  O   UNL     1      -0.349  -5.022  -2.308  0.00  0.00    -0.506 OA
ATOM     23  H   UNL     1      -0.643  -5.862  -2.954  0.00  0.00    +0.292 HD
ENDBRANCH  20  22
ENDBRANCH  12  15
BRANCH   1  26
ATOM     24  C   UNL     1       1.082   4.198   1.080  0.00  0.00    +0.218 C 
ATOM     25  O   UNL     1       2.175   3.792   1.416  0.00  0.00    -0.275 OA
ATOM     26  N   UNL     1       0.217   3.371   0.460  0.00  0.00    -0.285 N 
ATOM     27  H   UNL     1      -0.742   3.758   0.086  0.00  0.00    +0.155 HD
BRANCH  24  28
ATOM     28  C   UNL     1       0.692   5.628   1.355  0.00  0.00    +0.101 C 
BRANCH  28  29
ATOM     29  C   UNL     1       1.844   6.344   2.061  0.00  0.00    +0.044 C 
BRANCH  29  33
ATOM     30  C   UNL     1       0.739  10.396   2.841  0.00  0.00    +0.000 A 
ATOM     31  C   UNL     1       0.469   9.414   3.776  0.00  0.00    +0.000 A 
ATOM     32  C   UNL     1       0.827   8.103   3.524  0.00  0.00    +0.003 A 
ATOM     33  C   UNL     1       1.454   7.773   2.336  0.00  0.00    -0.047 A 
ATOM     34  C   UNL     1       1.728   8.756   1.404  0.00  0.00    +0.003 A 
ATOM     35  C   UNL     1       1.366  10.067   1.654  0.00  0.00    +0.000 A 
ENDBRANCH  29  33
ENDBRANCH  28  29
ENDBRANCH  24  28
ENDBRANCH   1  26
TORSDOF 6
