REMARK  Name = ZINC41586572
REMARK  8 active torsions:
REMARK  status: ('A' for Active; 'I' for Inactive)
REMARK    1  A    between atoms: C_1  and  C_2
REMARK    2  A    between atoms: C_2  and  O_3
REMARK    3  A    between atoms: O_3  and  C_4
REMARK    4  A    between atoms: C_4  and  C_6
REMARK    5  A    between atoms: N_11  and  C_13
REMARK    6  A    between atoms: C_13  and  C_14
REMARK    7  A    between atoms: C_15  and  O_32
REMARK    8  A    between atoms: C_23  and  C_25
REMARK                            x       y       z     vdW  Elec       q    Type
REMARK                         _______ _______ _______ _____ _____    ______ ____
ROOT
ATOM      1  C   UNL     1      -5.406  -6.592   0.218  0.00  0.00    +0.020 A 
ATOM      2  C   UNL     1      -5.949  -6.800   1.477  0.00  0.00    +0.122 A 
ATOM      3  C   UNL     1      -7.225  -7.341   1.615  0.00  0.00    +0.046 A 
ATOM      4  C   UNL     1      -7.953  -7.687   0.514  0.00  0.00    +0.015 A 
ATOM      5  C   UNL     1      -7.412  -7.508  -0.766  0.00  0.00    +0.019 A 
ATOM      6  C   UNL     1      -6.137  -6.926  -0.910  0.00  0.00    +0.144 A 
ATOM      7  O   UNL     1      -5.639  -6.684  -2.147  0.00  0.00    -0.421 OA
ATOM      8  C   UNL     1      -6.088  -7.474  -3.149  0.00  0.00    +0.345 A 
ATOM      9  O   UNL     1      -5.342  -7.853  -4.034  0.00  0.00    -0.245 OA
ATOM     10  C   UNL     1      -7.508  -7.862  -3.135  0.00  0.00    +0.067 A 
ATOM     11  C   UNL     1      -8.143  -7.894  -1.919  0.00  0.00    +0.027 A 
ENDROOT
BRANCH  10  12
ATOM     12  C   UNL     1      -8.221  -8.215  -4.385  0.00  0.00    -0.011 A 
ATOM     13  C   UNL     1      -8.702  -9.510  -4.574  0.00  0.00    +0.010 A 
ATOM     14  C   UNL     1      -9.365  -9.833  -5.740  0.00  0.00    +0.020 A 
ATOM     15  C   UNL     1      -9.553  -8.875  -6.721  0.00  0.00    +0.041 A 
ATOM     16  C   UNL     1      -9.077  -7.587  -6.538  0.00  0.00    +0.020 A 
ATOM     17  C   UNL     1      -8.418  -7.252  -5.374  0.00  0.00    +0.010 A 
ATOM     18 CL   UNL     1     -10.388  -9.288  -8.186  0.00  0.00    -0.084 Cl
ENDBRANCH  10  12
BRANCH   2  19
ATOM     19  O   UNL     1      -5.232  -6.473   2.582  0.00  0.00    -0.506 OA
ATOM     20  H   UNL     1      -5.370  -5.566   2.887  0.00  0.00    +0.292 HD
ENDBRANCH   2  19
BRANCH   1  21
ATOM     21  C   UNL     1      -4.028  -6.000   0.078  0.00  0.00    -0.036 C 
BRANCH  21  26
ATOM     22  C   UNL     1      -2.881  -2.427   0.017  0.00  0.00    +0.081 C 
ATOM     23  C   UNL     1      -3.647  -1.960  -1.225  0.00  0.00    +0.011 C 
ATOM     24  C   UNL     1      -5.023  -2.632  -1.246  0.00  0.00    -0.018 C 
ATOM     25  C   UNL     1      -4.844  -4.151  -1.211  0.00  0.00    -0.078 C 
ATOM     26  N   UNL     1      -4.129  -4.535   0.011  0.00  0.00    +0.383 N 
ATOM     27  C   UNL     1      -2.781  -3.954   0.005  0.00  0.00    -0.064 C 
ATOM     28  H   UNL     1      -4.635  -4.198   0.816  0.00  0.00    -0.081 HD
BRANCH  22  29
ATOM     29  C   UNL     1      -1.496  -1.832   0.006  0.00  0.00    +0.308 C 
ATOM     30  O   UNL     1      -0.528  -2.555  -0.007  0.00  0.00    -0.251 OA
BRANCH  29  31
ATOM     31  O   UNL     1      -1.339  -0.499   0.012  0.00  0.00    -0.465 OA
BRANCH  31  33
ATOM     32  C   UNL     1      -0.019   1.526   0.010  0.00  0.00    +0.048 C 
ATOM     33  C   UNL     1       0.002  -0.004   0.002  0.00  0.00    +0.229 C 
ENDBRANCH  31  33
ENDBRANCH  29  31
ENDBRANCH  22  29
ENDBRANCH  21  26
ENDBRANCH   1  21
TORSDOF 7
