REMARK  Name = ZINC14457508
REMARK  9 active torsions:
REMARK  status: ('A' for Active; 'I' for Inactive)
REMARK    1  A    between atoms: C_1  and  C_2
REMARK    2  A    between atoms: C_2  and  C_3
REMARK    3  A    between atoms: C_3  and  C_5
REMARK    4  A    between atoms: C_3  and  N_6
REMARK    5  A    between atoms: C_7  and  C_9
REMARK    6  A    between atoms: C_22  and  C_25
REMARK    7  A    between atoms: C_28  and  O_32
REMARK    8  A    between atoms: C_29  and  O_31
REMARK    9  A    between atoms: O_32  and  C_33
REMARK                            x       y       z     vdW  Elec       q    Type
REMARK                         _______ _______ _______ _____ _____    ______ ____
ROOT
ATOM      1  C   UNL     1       1.220  -2.502   2.678  0.00  0.00    +0.037 A 
ATOM      2  C   UNL     1       2.201  -1.623   3.147  0.00  0.00    +0.015 A 
ATOM      3  C   UNL     1       2.996  -1.997   4.206  0.00  0.00    +0.024 A 
ATOM      4  C   UNL     1       2.824  -3.242   4.807  0.00  0.00    +0.031 A 
ATOM      5  C   UNL     1       1.855  -4.125   4.346  0.00  0.00    -0.019 A 
ATOM      6  C   UNL     1       1.051  -3.747   3.285  0.00  0.00    +0.019 A 
ATOM      7  C   UNL     1       1.641  -5.472   4.960  0.00  0.00    +0.049 C 
ATOM      8  C   UNL     1       0.389  -5.500   5.803  0.00  0.00    -0.023 C 
ATOM      9  C   UNL     1       0.571  -6.253   6.861  0.00  0.00    -0.030 C 
ATOM     10  C   UNL     1       1.970  -6.836   6.864  0.00  0.00    +0.033 C 
ATOM     11  C   UNL     1       2.765  -5.872   5.935  0.00  0.00    +0.029 C 
ATOM     12  C   UNL     1       3.193  -4.658   6.765  0.00  0.00    +0.105 C 
ATOM     13  N   UNL     1       3.635  -3.594   5.883  0.00  0.00    -0.336 N 
ATOM     14  H   UNL     1       4.481  -3.144   6.037  0.00  0.00    +0.147 HD
ENDROOT
BRANCH  12  15
ATOM     15  C   UNL     1       2.022  -4.158   7.570  0.00  0.00    -0.023 A 
ATOM     16  C   UNL     1       1.168  -3.213   7.032  0.00  0.00    +0.009 A 
ATOM     17  C   UNL     1       0.089  -2.755   7.764  0.00  0.00    +0.050 A 
ATOM     18  C   UNL     1      -0.133  -3.236   9.045  0.00  0.00    +0.161 A 
ATOM     19  C   UNL     1       0.729  -4.183   9.588  0.00  0.00    +0.159 A 
ATOM     20  C   UNL     1       1.806  -4.642   8.847  0.00  0.00    +0.054 A 
BRANCH  19  21
ATOM     21  O   UNL     1       0.515  -4.658  10.845  0.00  0.00    -0.503 OA
ATOM     22  H   UNL     1       0.956  -4.149  11.538  0.00  0.00    +0.292 HD
ENDBRANCH  19  21
BRANCH  18  23
ATOM     23  O   UNL     1      -1.191  -2.782   9.769  0.00  0.00    -0.491 OA
ATOM     24  C   UNL     1      -2.034  -1.810   9.147  0.00  0.00    +0.277 C 
ENDBRANCH  18  23
ENDBRANCH  12  15
BRANCH   1  26
ATOM     25  N   UNL     1       0.521  -0.907   0.961  0.00  0.00    -0.309 N 
ATOM     26  C   UNL     1       0.361  -2.111   1.544  0.00  0.00    +0.244 C 
ATOM     27  O   UNL     1      -0.492  -2.876   1.136  0.00  0.00    -0.270 OA
ATOM     28  H   UNL     1       1.202  -0.297   1.287  0.00  0.00    +0.149 HD
BRANCH  25  29
ATOM     29  C   UNL     1      -0.332  -0.518  -0.165  0.00  0.00    +0.070 C 
ATOM     30  C   UNL     1       0.261  -1.063  -1.466  0.00  0.00    +0.028 C 
BRANCH  29  32
ATOM     31  C   UNL     1      -1.118   1.544   1.006  0.00  0.00    +0.005 C 
ATOM     32  C   UNL     1      -0.412   1.008  -0.241  0.00  0.00    +0.018 C 
ENDBRANCH  29  32
ENDBRANCH  25  29
ENDBRANCH   1  26
TORSDOF 6
