REMARK  Name = ZINC20727918
REMARK  10 active torsions:
REMARK  status: ('A' for Active; 'I' for Inactive)
REMARK    1  A    between atoms: C_1  and  C_2
REMARK    2  A    between atoms: C_5  and  C_39
REMARK    3  A    between atoms: N_8  and  C_10
REMARK    4  A    between atoms: C_10  and  C_11
REMARK    5  A    between atoms: C_11  and  C_12
REMARK    6  A    between atoms: C_12  and  N_13
REMARK    7  A    between atoms: C_14  and  C_16
REMARK    8  A    between atoms: C_16  and  N_17
REMARK    9  A    between atoms: C_26  and  C_27
REMARK   10  A    between atoms: C_30  and  C_33
REMARK                            x       y       z     vdW  Elec       q    Type
REMARK                         _______ _______ _______ _____ _____    ______ ____
ROOT
ATOM      1  N   UNL     1      -1.042  -0.651  -0.288  0.00  0.00    -0.257 N 
ATOM      2  C   UNL     1      -1.250  -1.960   0.126  0.00  0.00    +0.051 A 
ATOM      3  C   UNL     1      -2.418  -2.607  -0.276  0.00  0.00    +0.024 A 
ATOM      4  C   UNL     1      -2.664  -3.909   0.107  0.00  0.00    +0.002 A 
ATOM      5  C   UNL     1      -1.756  -4.593   0.896  0.00  0.00    +0.001 A 
ATOM      6  C   UNL     1      -0.593  -3.966   1.305  0.00  0.00    +0.017 A 
ATOM      7  C   UNL     1      -0.341  -2.658   0.923  0.00  0.00    +0.034 A 
ATOM      8  S   UNL     1       1.144  -1.857   1.448  0.00  0.00    -0.082 S 
ATOM      9  C   UNL     1       1.362  -0.649   0.168  0.00  0.00    +0.076 C 
ATOM     10  C   UNL     1       2.586  -0.332  -0.319  0.00  0.00    +0.028 C 
ATOM     11  C   UNL     1       0.128  -0.007  -0.339  0.00  0.00    +0.258 C 
ATOM     12  O   UNL     1       0.179   1.115  -0.806  0.00  0.00    -0.269 OA
ENDROOT
BRANCH  10  13
ATOM     13  C   UNL     1       3.794  -0.879   0.317  0.00  0.00    -0.024 A 
ATOM     14  C   UNL     1       3.806  -1.147   1.690  0.00  0.00    +0.008 A 
ATOM     15  C   UNL     1       4.941  -1.665   2.277  0.00  0.00    +0.013 A 
ATOM     16  C   UNL     1       6.070  -1.910   1.514  0.00  0.00    +0.055 A 
ATOM     17  C   UNL     1       6.067  -1.643   0.156  0.00  0.00    +0.013 A 
ATOM     18  C   UNL     1       4.939  -1.130  -0.448  0.00  0.00    +0.008 A 
BRANCH  16  19
ATOM     19  C   UNL     1       7.308  -2.470   2.165  0.00  0.00    +0.417 C 
ATOM     20  F   UNL     1       8.119  -1.419   2.607  0.00  0.00    -0.166 F 
ATOM     21  F   UNL     1       6.941  -3.267   3.256  0.00  0.00    -0.166 F 
ATOM     22  F   UNL     1       8.012  -3.245   1.238  0.00  0.00    -0.166 F 
ENDBRANCH  16  19
ENDBRANCH  10  13
BRANCH   1  23
ATOM     23  C   UNL     1      -2.225   0.101  -0.711  0.00  0.00    +0.209 C 
BRANCH  23  25
ATOM     24  N   UNL     1      -3.427   0.583  -2.819  0.00  0.00    -0.314 N 
ATOM     25  C   UNL     1      -2.397  -0.030  -2.203  0.00  0.00    +0.231 C 
ATOM     26  O   UNL     1      -1.608  -0.687  -2.848  0.00  0.00    -0.274 OA
ATOM     27  H   UNL     1      -4.142   1.179  -2.234  0.00  0.00    +0.149 HD
BRANCH  24  28
ATOM     28  C   UNL     1      -3.593   0.455  -4.269  0.00  0.00    +0.102 C 
BRANCH  28  29
ATOM     29  C   UNL     1      -4.829   1.241  -4.712  0.00  0.00    +0.000 C 
BRANCH  29  30
ATOM     30  C   UNL     1      -5.003   1.108  -6.226  0.00  0.00    -0.077 C 
BRANCH  30  36
ATOM     31  C   UNL     1      -8.412   3.545  -5.820  0.00  0.00    +0.005 C 
ATOM     32  C   UNL     1      -8.613   2.160  -6.440  0.00  0.00    -0.031 C 
ATOM     33  C   UNL     1      -8.727   2.293  -7.961  0.00  0.00    +0.003 C 
ATOM     34  C   UNL     1      -7.420   2.867  -8.515  0.00  0.00    -0.031 C 
ATOM     35  C   UNL     1      -6.258   1.956  -8.114  0.00  0.00    -0.076 C 
ATOM     36  N   UNL     1      -6.190   1.862  -6.650  0.00  0.00    +0.380 N 
ATOM     37  C   UNL     1      -7.415   1.270  -6.099  0.00  0.00    -0.076 C 
ATOM     38  C   UNL     1      -7.504   2.947 -10.041  0.00  0.00    +0.005 C 
ATOM     39  H   UNL     1      -6.104   2.884  -6.253  0.00  0.00    -0.082 HD
ENDBRANCH  30  36
ENDBRANCH  29  30
ENDBRANCH  28  29
ENDBRANCH  24  28
ENDBRANCH  23  25
ENDBRANCH   1  23
TORSDOF 8
