REMARK  Name = ZINC45555971
REMARK  7 active torsions:
REMARK  status: ('A' for Active; 'I' for Inactive)
REMARK    1  A    between atoms: C_1  and  C_2
REMARK    2  A    between atoms: C_7  and  S_26
REMARK    3  A    between atoms: C_12  and  C_14
REMARK    4  A    between atoms: C_14  and  O_15
REMARK    5  A    between atoms: O_15  and  C_16
REMARK    6  A    between atoms: C_21  and  N_22
REMARK    7  A    between atoms: S_26  and  N_29
REMARK                            x       y       z     vdW  Elec       q    Type
REMARK                         _______ _______ _______ _____ _____    ______ ____
ROOT
ATOM      1  C   UNL     1      -0.019   1.526   0.010  0.00  0.00    +0.029 C 
ATOM      2  C   UNL     1       0.002  -0.004   0.002  0.00  0.00    +0.083 C 
ATOM      3  C   UNL     1      -1.430  -0.557   0.082  0.00  0.00    +0.059 C 
ATOM      4  C   UNL     1      -1.457  -1.361   1.363  0.00  0.00    -0.022 A 
ATOM      5  C   UNL     1      -2.472  -2.086   1.957  0.00  0.00    +0.034 A 
ATOM      6  C   UNL     1      -2.247  -2.747   3.150  0.00  0.00    +0.105 A 
ATOM      7  C   UNL     1      -1.003  -2.681   3.749  0.00  0.00    +0.030 A 
ATOM      8  C   UNL     1       0.013  -1.959   3.160  0.00  0.00    +0.026 A 
ATOM      9  C   UNL     1      -0.206  -1.288   1.955  0.00  0.00    +0.040 A 
ATOM     10  N   UNL     1       0.679  -0.510   1.199  0.00  0.00    -0.265 N 
ATOM     11  C   UNL     1       1.964  -0.262   1.523  0.00  0.00    +0.258 C 
ATOM     12  O   UNL     1       2.650   0.428   0.799  0.00  0.00    -0.272 OA
ENDROOT
BRANCH   6  13
ATOM     13  S   UNL     1      -3.543  -3.672   3.905  0.00  0.00    +0.056 S 
ATOM     14  O   UNL     1      -3.235  -3.746   5.290  0.00  0.00    -0.153 OA
ATOM     15  O   UNL     1      -4.764  -3.127   3.424  0.00  0.00    -0.153 OA
BRANCH  13  16
ATOM     16  N   UNL     1      -3.450  -5.216   3.316  0.00  0.00    -0.204 NA
ATOM     17  H   UNL     1      -2.761  -5.450   2.674  0.00  0.00    +0.144 HD
ATOM     18  H   UNL     1      -4.084  -5.888   3.613  0.00  0.00    +0.144 HD
ENDBRANCH  13  16
ENDBRANCH   6  13
BRANCH  11  19
ATOM     19  C   UNL     1       2.547  -0.841   2.786  0.00  0.00    +0.325 C 
BRANCH  19  20
ATOM     20  O   UNL     1       3.913  -0.439   2.908  0.00  0.00    -0.480 OA
BRANCH  20  21
ATOM     21  C   UNL     1       4.591  -0.879   4.000  0.00  0.00    +0.151 A 
ATOM     22  C   UNL     1       3.957  -1.687   4.933  0.00  0.00    +0.049 A 
ATOM     23  C   UNL     1       4.647  -2.133   6.042  0.00  0.00    +0.024 A 
ATOM     24  C   UNL     1       5.972  -1.775   6.224  0.00  0.00    +0.043 A 
ATOM     25  C   UNL     1       6.606  -0.970   5.296  0.00  0.00    +0.056 A 
ATOM     26  C   UNL     1       5.920  -0.526   4.181  0.00  0.00    +0.169 A 
ATOM     27 CL   UNL     1       6.838  -2.337   7.620  0.00  0.00    -0.083 Cl
BRANCH  26  28
ATOM     28  N   UNL     1       6.602   0.330   3.185  0.00  0.00    +0.060 N 
ATOM     29  O   UNL     1       7.760   0.637   3.343  0.00  0.00    -0.126 OA
ATOM     30  O   UNL     1       6.000   0.722   2.212  0.00  0.00    -0.126 OA
ENDBRANCH  26  28
ENDBRANCH  20  21
ENDBRANCH  19  20
ENDBRANCH  11  19
TORSDOF 6
