REMARK  Name = ZINC00711451
REMARK  5 active torsions:
REMARK  status: ('A' for Active; 'I' for Inactive)
REMARK    1  A    between atoms: C_1  and  C_2
REMARK    2  A    between atoms: C_6  and  C_8
REMARK    3  A    between atoms: C_12  and  N_17
REMARK    4  A    between atoms: C_18  and  C_19
REMARK    5  A    between atoms: C_24  and  O_25
REMARK                            x       y       z     vdW  Elec       q    Type
REMARK                         _______ _______ _______ _____ _____    ______ ____
ROOT
ATOM      1  C   UNL     1       0.051  -2.845   2.457  0.00  0.00    +0.228 A 
ATOM      2  N   UNL     1       0.073  -4.150   2.558  0.00  0.00    -0.209 NA
ATOM      3  C   UNL     1       0.082  -4.486   3.874  0.00  0.00    +0.112 A 
ATOM      4  C   UNL     1       0.104  -5.703   4.555  0.00  0.00    +0.059 A 
ATOM      5  C   UNL     1       0.106  -5.713   5.946  0.00  0.00    +0.066 A 
ATOM      6  C   UNL     1       0.087  -4.506   6.657  0.00  0.00    +0.031 A 
ATOM      7  C   UNL     1       0.065  -3.304   5.986  0.00  0.00    +0.050 A 
ATOM      8  C   UNL     1       0.062  -3.281   4.598  0.00  0.00    +0.156 A 
ATOM      9  O   UNL     1       0.049  -2.287   3.682  0.00  0.00    -0.435 OA
ENDROOT
BRANCH   1  15
ATOM     10  C   UNL     1      -0.018   1.503   0.010  0.00  0.00    +0.044 C 
ATOM     11  C   UNL     1       0.002  -0.004   0.002  0.00  0.00    -0.050 A 
ATOM     12  C   UNL     1       0.006  -0.688  -1.201  0.00  0.00    +0.003 A 
ATOM     13  C   UNL     1       0.024  -2.071  -1.218  0.00  0.00    +0.001 A 
ATOM     14  C   UNL     1       0.039  -2.778  -0.033  0.00  0.00    +0.013 A 
ATOM     15  C   UNL     1       0.036  -2.095   1.184  0.00  0.00    +0.037 A 
ATOM     16  C   UNL     1       0.023  -0.699   1.194  0.00  0.00    +0.016 A 
ENDBRANCH   1  15
BRANCH   5  17
ATOM     17  N   UNL     1       0.127  -6.903   6.622  0.00  0.00    -0.255 NA
ATOM     18  C   UNL     1       0.930  -7.063   7.636  0.00  0.00    +0.123 C 
BRANCH  18  19
ATOM     19  C   UNL     1       0.953  -8.342   8.362  0.00  0.00    +0.036 A 
ATOM     20  C   UNL     1       1.809  -8.516   9.454  0.00  0.00    +0.028 A 
ATOM     21  C   UNL     1       1.824  -9.718  10.130  0.00  0.00    +0.019 A 
ATOM     22  C   UNL     1       0.996 -10.755   9.731  0.00  0.00    +0.019 A 
ATOM     23  C   UNL     1       0.146 -10.596   8.653  0.00  0.00    +0.047 A 
ATOM     24  C   UNL     1       0.112  -9.393   7.966  0.00  0.00    +0.125 A 
ATOM     25 BR   UNL     1       2.981  -9.952  11.607  0.00  0.00    -0.050 Br
BRANCH  24  26
ATOM     26  O   UNL     1      -0.727  -9.235   6.910  0.00  0.00    -0.506 OA
ATOM     27  H   UNL     1      -0.341  -9.486   6.060  0.00  0.00    +0.292 HD
ENDBRANCH  24  26
ENDBRANCH  18  19
ENDBRANCH   5  17
TORSDOF 4
