REMARK  Name = ZINC67479383
REMARK  7 active torsions:
REMARK  status: ('A' for Active; 'I' for Inactive)
REMARK    1  A    between atoms: C_6  and  C_11
REMARK    2  A    between atoms: C_11  and  C_13
REMARK    3  A    between atoms: C_11  and  O_28
REMARK    4  A    between atoms: C_13  and  N_14
REMARK    5  A    between atoms: N_17  and  N_18
REMARK    6  A    between atoms: C_19  and  C_21
REMARK    7  A    between atoms: C_21  and  C_22
REMARK                            x       y       z     vdW  Elec       q    Type
REMARK                         _______ _______ _______ _____ _____    ______ ____
ROOT
ATOM      1  N   UNL     1       6.686  -3.771   1.361  0.00  0.00    -0.295 N 
ATOM      2  C   UNL     1       7.200  -4.259   2.507  0.00  0.00    +0.316 C 
ATOM      3  O   UNL     1       6.555  -4.203   3.536  0.00  0.00    -0.251 OA
ATOM      4  N   UNL     1       8.431  -4.809   2.513  0.00  0.00    -0.218 N 
ATOM      5  H   UNL     1       7.201  -3.815   0.540  0.00  0.00    +0.150 HD
ATOM      6  H   UNL     1       8.801  -5.161   3.337  0.00  0.00    +0.174 HD
ENDROOT
BRANCH   4   7
ATOM      7  N   UNL     1       9.175  -4.874   1.327  0.00  0.00    -0.233 N 
ATOM      8  C   UNL     1      10.405  -5.424   1.333  0.00  0.00    +0.229 C 
ATOM      9  O   UNL     1      10.868  -5.864   2.365  0.00  0.00    -0.274 OA
ATOM     10  H   UNL     1       8.805  -4.522   0.503  0.00  0.00    +0.173 HD
BRANCH   8  11
ATOM     11  C   UNL     1      11.206  -5.493   0.058  0.00  0.00    +0.101 C 
BRANCH  11  12
ATOM     12  C   UNL     1      12.555  -6.158   0.339  0.00  0.00    -0.002 C 
ATOM     13  C   UNL     1      13.373  -5.275   1.283  0.00  0.00    +0.004 C 
ATOM     14  C   UNL     1      14.722  -5.940   1.563  0.00  0.00    +0.000 C 
ATOM     15  C   UNL     1      15.483  -6.123   0.248  0.00  0.00    +0.000 C 
ATOM     16  C   UNL     1      14.665  -7.007  -0.696  0.00  0.00    +0.000 C 
ATOM     17  C   UNL     1      13.316  -6.341  -0.976  0.00  0.00    +0.004 C 
ENDBRANCH  11  12
ENDBRANCH   8  11
ENDBRANCH   4   7
BRANCH   1  18
ATOM     18  C   UNL     1       5.349  -3.172   1.355  0.00  0.00    +0.142 C 
BRANCH  18  19
ATOM     19  C   UNL     1       5.008  -2.700  -0.060  0.00  0.00    +0.162 C 
BRANCH  19  25
ATOM     20  C   UNL     1      -0.016   1.357   0.009  0.00  0.00    +0.001 A 
ATOM     21  C   UNL     1       1.169   2.091   0.002  0.00  0.00    +0.001 A 
ATOM     22  C   UNL     1       2.378   1.468  -0.013  0.00  0.00    +0.008 A 
ATOM     23  C   UNL     1       2.438   0.063  -0.021  0.00  0.00    -0.018 A 
ATOM     24  C   UNL     1       3.668  -0.615  -0.036  0.00  0.00    +0.014 A 
ATOM     25  C   UNL     1       3.687  -1.976  -0.043  0.00  0.00    -0.017 A 
ATOM     26  C   UNL     1       2.502  -2.710  -0.036  0.00  0.00    +0.007 A 
ATOM     27  C   UNL     1       1.292  -2.087  -0.021  0.00  0.00    +0.009 A 
ATOM     28  C   UNL     1       1.233  -0.683  -0.013  0.00  0.00    -0.018 A 
ATOM     29  C   UNL     1       0.002  -0.004   0.002  0.00  0.00    +0.008 A 
ENDBRANCH  19  25
BRANCH  19  30
ATOM     30  O   UNL     1       4.921  -3.830  -0.931  0.00  0.00    -0.386 OA
ATOM     31  H   UNL     1       4.246  -4.473  -0.674  0.00  0.00    +0.210 HD
ENDBRANCH  19  30
ENDBRANCH  18  19
ENDBRANCH   1  18
TORSDOF 7
