REMARK  Name = ZINC09780304
REMARK  7 active torsions:
REMARK  status: ('A' for Active; 'I' for Inactive)
REMARK    1  A    between atoms: C_4  and  C_7
REMARK    2  A    between atoms: C_7  and  C_9
REMARK    3  A    between atoms: C_7  and  N_51
REMARK    4  A    between atoms: C_14  and  C_15
REMARK    5  A    between atoms: C_14  and  N_51
REMARK    6  A    between atoms: N_17  and  C_18
REMARK    7  A    between atoms: C_19  and  C_27
REMARK                            x       y       z     vdW  Elec       q    Type
REMARK                         _______ _______ _______ _____ _____    ______ ____
ROOT
ATOM      1  C   UNL     1       1.698  -3.327   3.131  0.00  0.00    +0.201 C 
ATOM      2  O   UNL     1       0.925  -4.129   2.651  0.00  0.00    -0.278 OA
ATOM      3  N   UNL     1       1.955  -3.348   4.454  0.00  0.00    -0.281 N 
ATOM      4  H   UNL     1       2.573  -2.707   4.838  0.00  0.00    +0.155 HD
ENDROOT
BRANCH   3   5
ATOM      5  C   UNL     1       1.336  -4.286   5.266  0.00  0.00    +0.084 A 
ATOM      6  C   UNL     1       1.475  -4.468   6.635  0.00  0.00    +0.068 A 
ATOM      7  C   UNL     1       0.703  -5.532   7.253  0.00  0.00    -0.023 A 
ATOM      8  C   UNL     1      -0.072  -6.246   6.408  0.00  0.00    -0.004 A 
ATOM      9  S   UNL     1       0.206  -5.521   4.817  0.00  0.00    -0.077 S 
ATOM     10  C   UNL     1      -0.964  -7.398   6.755  0.00  0.00    +0.043 C 
ATOM     11  C   UNL     1      -0.589  -7.894   8.159  0.00  0.00    +0.005 C 
ATOM     12  C   UNL     1      -0.489  -6.689   9.098  0.00  0.00    +0.005 C 
ATOM     13  C   UNL     1       0.742  -5.853   8.742  0.00  0.00    +0.037 C 
BRANCH   6  14
ATOM     14  C   UNL     1       2.365  -3.615   7.429  0.00  0.00    +0.244 C 
ATOM     15  O   UNL     1       1.939  -2.590   7.928  0.00  0.00    -0.270 OA
ATOM     16  N   UNL     1       3.654  -3.965   7.605  0.00  0.00    -0.325 N 
ATOM     17  H   UNL     1       3.993  -4.782   7.207  0.00  0.00    +0.145 HD
ATOM     18  H   UNL     1       4.243  -3.401   8.130  0.00  0.00    +0.145 HD
ENDBRANCH   6  14
ENDBRANCH   3   5
BRANCH   1  19
ATOM     19  C   UNL     1       2.371  -2.308   2.249  0.00  0.00    +0.016 C 
BRANCH  19  20
ATOM     20  N   UNL     1       1.921  -2.500   0.858  0.00  0.00    +0.392 N 
ATOM     21  H   UNL     1       2.170  -3.447   0.549  0.00  0.00    -0.084 HD
ATOM     22  H   UNL     1       0.901  -2.382   0.812  0.00  0.00    -0.084 HD
BRANCH  20  23
ATOM     23  C   UNL     1       2.565  -1.514  -0.030  0.00  0.00    -0.003 C 
BRANCH  23  27
ATOM     24  C   UNL     1       2.681  -3.072  -4.006  0.00  0.00    +0.000 A 
ATOM     25  C   UNL     1       3.762  -2.369  -3.507  0.00  0.00    +0.000 A 
ATOM     26  C   UNL     1       3.724  -1.865  -2.220  0.00  0.00    +0.002 A 
ATOM     27  C   UNL     1       2.606  -2.064  -1.433  0.00  0.00    -0.057 A 
ATOM     28  C   UNL     1       1.527  -2.771  -1.930  0.00  0.00    +0.002 A 
ATOM     29  C   UNL     1       1.563  -3.271  -3.218  0.00  0.00    +0.000 A 
ENDBRANCH  23  27
BRANCH  23  30
ATOM     30  C   UNL     1       1.773  -0.232  -0.016  0.00  0.00    -0.020 A 
ATOM     31  C   UNL     1       2.220   1.048  -0.013  0.00  0.00    +0.010 A 
ATOM     32  C   UNL     1       1.300   2.079   0.001  0.00  0.00    +0.008 A 
ATOM     33  C   UNL     1      -0.022   1.781   0.012  0.00  0.00    +0.045 A 
ATOM     34  S   UNL     1       0.002  -0.004   0.002  0.00  0.00    -0.103 S 
ENDBRANCH  23  30
ENDBRANCH  20  23
ENDBRANCH  19  20
ENDBRANCH   1  19
TORSDOF 7
