REMARK  Name = ZINC43547862
REMARK  9 active torsions:
REMARK  status: ('A' for Active; 'I' for Inactive)
REMARK    1  A    between atoms: C_1  and  C_2
REMARK    2  A    between atoms: C_2  and  O_33
REMARK    3  A    between atoms: C_5  and  C_24
REMARK    4  A    between atoms: C_9  and  C_22
REMARK    5  A    between atoms: C_9  and  C_23
REMARK    6  A    between atoms: C_11  and  N_13
REMARK    7  A    between atoms: C_14  and  C_16
REMARK    8  A    between atoms: C_24  and  C_25
REMARK    9  A    between atoms: C_25  and  C_26
REMARK                            x       y       z     vdW  Elec       q    Type
REMARK                         _______ _______ _______ _____ _____    ______ ____
ROOT
ATOM      1  C   UNL     1      -0.084   1.533  -0.023  0.00  0.00    +0.041 C 
ATOM      2  C   UNL     1      -0.047   0.003  -0.025  0.00  0.00    +0.064 C 
ATOM      3  C   UNL     1      -1.476  -0.531  -0.060  0.00  0.00    +0.035 C 
ATOM      4  C   UNL     1      -1.507  -2.064   0.054  0.00  0.00    +0.012 C 
ATOM      5  C   UNL     1      -0.811  -2.433   1.351  0.00  0.00    -0.007 C 
ATOM      6  C   UNL     1       0.673  -1.999   1.209  0.00  0.00    +0.005 C 
ATOM      7  C   UNL     1       0.704  -0.483   1.226  0.00  0.00    +0.039 C 
ATOM      8  C   UNL     1       1.359  -2.708   2.373  0.00  0.00    -0.030 C 
ATOM      9  C   UNL     1       0.529  -3.993   2.615  0.00  0.00    +0.029 C 
ATOM     10  C   UNL     1      -0.669  -3.934   1.628  0.00  0.00    +0.080 C 
ATOM     11  C   UNL     1       2.798  -3.068   2.000  0.00  0.00    +0.011 C 
ATOM     12  C   UNL     1       1.339  -1.821   3.619  0.00  0.00    +0.011 C 
ENDROOT
BRANCH  10  13
ATOM     13  N   UNL     1      -0.362  -4.662   0.395  0.00  0.00    -0.308 N 
ATOM     14  C   UNL     1      -0.682  -5.966   0.285  0.00  0.00    +0.244 C 
ATOM     15  O   UNL     1      -1.226  -6.539   1.209  0.00  0.00    -0.270 OA
ATOM     16  H   UNL     1       0.072  -4.205  -0.343  0.00  0.00    +0.149 HD
BRANCH  14  17
ATOM     17  C   UNL     1      -0.372  -6.702  -0.960  0.00  0.00    +0.037 A 
ATOM     18  C   UNL     1       0.258  -6.049  -2.021  0.00  0.00    +0.013 A 
ATOM     19  C   UNL     1       0.545  -6.741  -3.180  0.00  0.00    +0.001 A 
ATOM     20  C   UNL     1       0.210  -8.078  -3.291  0.00  0.00    +0.000 A 
ATOM     21  C   UNL     1      -0.415  -8.731  -2.244  0.00  0.00    +0.001 A 
ATOM     22  C   UNL     1      -0.702  -8.053  -1.077  0.00  0.00    +0.013 A 
ENDBRANCH  14  17
ENDBRANCH  10  13
BRANCH   2  23
ATOM     23  O   UNL     1       0.647  -0.446  -1.190  0.00  0.00    -0.389 OA
ATOM     24  H   UNL     1       0.241  -0.166  -2.022  0.00  0.00    +0.210 HD
ENDBRANCH   2  23
BRANCH   5  25
ATOM     25  C   UNL     1      -1.482  -1.733   2.534  0.00  0.00    +0.018 C 
BRANCH  25  26
ATOM     26  C   UNL     1      -2.982  -2.037   2.522  0.00  0.00    +0.096 C 
BRANCH  26  27
ATOM     27  C   UNL     1      -3.643  -1.348   3.688  0.00  0.00    +0.216 C 
ATOM     28  O   UNL     1      -2.981  -0.679   4.452  0.00  0.00    -0.276 OA
ATOM     29  N   UNL     1      -4.971  -1.475   3.881  0.00  0.00    -0.301 N 
ATOM     30  C   UNL     1      -5.888  -2.257   3.039  0.00  0.00    +0.108 C 
ATOM     31  C   UNL     1      -7.305  -2.088   3.626  0.00  0.00    +0.020 C 
ATOM     32  C   UNL     1      -7.193  -0.766   4.430  0.00  0.00    +0.020 C 
ATOM     33  C   UNL     1      -5.743  -0.858   4.974  0.00  0.00    +0.108 C 
ENDBRANCH  26  27
ENDBRANCH  25  26
ENDBRANCH   5  25
TORSDOF 6
