REMARK  Name = ZINC45574819
REMARK  6 active torsions:
REMARK  status: ('A' for Active; 'I' for Inactive)
REMARK    1  A    between atoms: C_1  and  C_2
REMARK    2  A    between atoms: C_2  and  C_4
REMARK    3  A    between atoms: C_2  and  N_13
REMARK    4  A    between atoms: C_14  and  C_16
REMARK    5  A    between atoms: C_18  and  S_24
REMARK    6  A    between atoms: S_24  and  N_27
REMARK                            x       y       z     vdW  Elec       q    Type
REMARK                         _______ _______ _______ _____ _____    ______ ____
ROOT
ATOM      1  C   UNL     1       2.563  -1.056  -2.393  0.00  0.00    +0.057 A 
ATOM      2  C   UNL     1       1.876  -1.420  -3.553  0.00  0.00    +0.044 A 
ATOM      3  C   UNL     1       2.578  -1.798  -4.677  0.00  0.00    +0.124 A 
ATOM      4  C   UNL     1       3.963  -1.818  -4.658  0.00  0.00    +0.069 A 
ATOM      5  C   UNL     1       4.652  -1.459  -3.512  0.00  0.00    +0.042 A 
ATOM      6  C   UNL     1       3.960  -1.072  -2.381  0.00  0.00    +0.055 A 
ATOM      7 CL   UNL     1       4.824  -0.615  -0.947  0.00  0.00    -0.083 Cl
ATOM      8 CL   UNL     1       4.840  -2.296  -6.079  0.00  0.00    -0.081 Cl
ENDROOT
BRANCH   1  10
ATOM      9  N   UNL     1       0.468  -0.635  -1.199  0.00  0.00    -0.302 N 
ATOM     10  C   UNL     1       1.816  -0.650  -1.185  0.00  0.00    +0.246 C 
ATOM     11  O   UNL     1       2.417  -0.329  -0.178  0.00  0.00    -0.270 OA
ATOM     12  H   UNL     1      -0.011  -0.891  -2.002  0.00  0.00    +0.150 HD
BRANCH   9  14
ATOM     13  C   UNL     1      -0.403   1.292   0.030  0.00  0.00    +0.036 C 
ATOM     14  C   UNL     1      -0.273  -0.233  -0.001  0.00  0.00    +0.136 C 
BRANCH  14  15
ATOM     15  C   UNL     1      -1.646  -0.853  -0.027  0.00  0.00    +0.126 A 
ATOM     16  C   UNL     1      -2.278  -1.361   1.039  0.00  0.00    +0.055 A 
ATOM     17  C   UNL     1      -3.573  -1.851   0.552  0.00  0.00    +0.020 A 
ATOM     18  C   UNL     1      -4.668  -2.474   1.150  0.00  0.00    +0.011 A 
ATOM     19  C   UNL     1      -5.753  -2.812   0.391  0.00  0.00    +0.001 A 
ATOM     20  C   UNL     1      -5.771  -2.541  -0.970  0.00  0.00    +0.004 A 
ATOM     21  C   UNL     1      -4.698  -1.926  -1.578  0.00  0.00    +0.047 A 
ATOM     22  C   UNL     1      -3.585  -1.573  -0.825  0.00  0.00    +0.135 A 
ATOM     23  O   UNL     1      -2.416  -0.973  -1.123  0.00  0.00    -0.458 OA
ENDBRANCH  14  15
ENDBRANCH   9  14
ENDBRANCH   1  10
BRANCH   3  24
ATOM     24  S   UNL     1       1.712  -2.257  -6.141  0.00  0.00    +0.062 S 
ATOM     25  O   UNL     1       2.309  -3.460  -6.606  0.00  0.00    -0.153 OA
ATOM     26  O   UNL     1       0.327  -2.161  -5.841  0.00  0.00    -0.153 OA
BRANCH  24  27
ATOM     27  N   UNL     1       2.030  -1.099  -7.282  0.00  0.00    -0.172 NA
ATOM     28  C   UNL     1       1.281   0.167  -7.306  0.00  0.00    +0.137 C 
ATOM     29  C   UNL     1       2.286   1.323  -7.364  0.00  0.00    +0.177 C 
ATOM     30  O   UNL     1       3.195   1.103  -8.445  0.00  0.00    -0.377 OA
ATOM     31  C   UNL     1       3.989  -0.078  -8.310  0.00  0.00    +0.177 C 
ATOM     32  C   UNL     1       3.075  -1.303  -8.297  0.00  0.00    +0.137 C 
ENDBRANCH  24  27
ENDBRANCH   3  24
TORSDOF 5
