REMARK  Name = ZINC27575382
REMARK  13 active torsions:
REMARK  status: ('A' for Active; 'I' for Inactive)
REMARK    1  A    between atoms: C_1  and  C_2
REMARK    2  A    between atoms: C_3  and  C_36
REMARK    3  A    between atoms: N_4  and  C_31
REMARK    4  A    between atoms: C_5  and  N_9
REMARK    5  A    between atoms: C_6  and  C_7
REMARK    6  A    between atoms: C_10  and  C_12
REMARK    7  A    between atoms: C_12  and  N_13
REMARK    8  A    between atoms: N_13  and  C_14
REMARK    9  A    between atoms: N_13  and  C_25
REMARK   10  A    between atoms: C_14  and  C_15
REMARK   11  A    between atoms: C_18  and  C_21
REMARK   12  A    between atoms: N_23  and  C_24
REMARK   13  A    between atoms: C_25  and  C_26
REMARK                            x       y       z     vdW  Elec       q    Type
REMARK                         _______ _______ _______ _____ _____    ______ ____
ROOT
ATOM      1  N   UNL     1      -1.406   5.959   0.073  0.00  0.00    +0.393 N 
ATOM      2  H   UNL     1      -0.668   6.254  -0.687  0.00  0.00    -0.080 HD
ENDROOT
BRANCH   1   3
ATOM      3  C   UNL     1      -1.938   4.642  -0.302  0.00  0.00    +0.020 C 
BRANCH   3   5
ATOM      4  N   UNL     1      -1.041   2.456  -1.035  0.00  0.00    -0.272 N 
ATOM      5  C   UNL     1      -0.809   3.756  -0.761  0.00  0.00    +0.202 C 
ATOM      6  O   UNL     1       0.308   4.212  -0.884  0.00  0.00    -0.278 OA
ATOM      7  H   UNL     1      -2.066   2.060  -0.996  0.00  0.00    +0.156 HD
BRANCH   4  12
ATOM      8  C   UNL     1       3.090   0.485  -3.178  0.00  0.00    +0.047 C 
ATOM      9  C   UNL     1       1.877   0.702  -2.310  0.00  0.00    -0.011 A 
ATOM     10  C   UNL     1       1.408  -0.130  -1.366  0.00  0.00    +0.022 A 
ATOM     11  N   UNL     1       0.289   0.417  -0.796  0.00  0.00    -0.329 N 
ATOM     12  C   UNL     1       0.014   1.619  -1.366  0.00  0.00    +0.123 A 
ATOM     13  C   UNL     1       0.979   1.863  -2.333  0.00  0.00    +0.095 A 
ATOM     14  C   UNL     1       2.017  -1.456  -0.992  0.00  0.00    +0.064 C 
BRANCH  11  15
ATOM     15  C   UNL     1      -0.496  -0.204   0.273  0.00  0.00    +0.089 C 
ATOM     16  C   UNL     1      -1.930  -0.489  -0.221  0.00  0.00    +0.025 C 
ATOM     17  C   UNL     1      -2.821  -0.198   1.012  0.00  0.00    +0.002 C 
ATOM     18  C   UNL     1      -2.132   1.034   1.650  0.00  0.00    +0.002 C 
ATOM     19  C   UNL     1      -0.625   0.763   1.463  0.00  0.00    +0.025 C 
ENDBRANCH  11  15
BRANCH  13  20
ATOM     20  C   UNL     1       1.078   3.013  -3.181  0.00  0.00    +0.103 C 
ATOM     21  N   UNL     1       1.156   3.925  -3.854  0.00  0.00    -0.191 NA
ENDBRANCH  13  20
ENDBRANCH   4  12
ENDBRANCH   3   5
ENDBRANCH   1   3
BRANCH   1  22
ATOM     22  C   UNL     1      -2.470   6.972   0.086  0.00  0.00    -0.042 C 
BRANCH  22  23
ATOM     23  C   UNL     1      -1.857   8.341   0.231  0.00  0.00    -0.064 A 
ATOM     24  C   UNL     1      -1.656   8.876   1.490  0.00  0.00    +0.002 A 
ATOM     25  C   UNL     1      -1.091  10.127   1.630  0.00  0.00    +0.013 A 
ATOM     26  C   UNL     1      -0.732  10.858   0.496  0.00  0.00    +0.037 A 
ATOM     27  C   UNL     1      -0.943  10.314  -0.772  0.00  0.00    +0.013 A 
ATOM     28  C   UNL     1      -1.504   9.060  -0.898  0.00  0.00    +0.002 A 
BRANCH  26  29
ATOM     29  C   UNL     1      -0.132  12.201   0.637  0.00  0.00    +0.244 C 
ATOM     30  O   UNL     1       0.181  12.835  -0.352  0.00  0.00    -0.270 OA
ATOM     31  N   UNL     1       0.070  12.723   1.863  0.00  0.00    -0.314 N 
ATOM     32  C   UNL     1       0.666  14.054   2.004  0.00  0.00    +0.128 C 
ATOM     33  H   UNL     1      -0.212  12.150   2.759  0.00  0.00    +0.149 HD
ENDBRANCH  26  29
ENDBRANCH  22  23
ENDBRANCH   1  22
BRANCH   1  34
ATOM     34  C   UNL     1      -0.720   5.899   1.370  0.00  0.00    -0.002 C 
BRANCH  34  35
ATOM     35  C   UNL     1       0.634   5.262   1.193  0.00  0.00    +0.089 A 
ATOM     36  C   UNL     1       1.762   5.898   0.828  0.00  0.00    +0.042 A 
ATOM     37  C   UNL     1       2.786   4.925   0.786  0.00  0.00    +0.041 A 
ATOM     38  C   UNL     1       2.224   3.752   1.127  0.00  0.00    +0.195 A 
ATOM     39  O   UNL     1       0.921   3.963   1.379  0.00  0.00    -0.470 OA
ENDBRANCH  34  35
ENDBRANCH   1  34
TORSDOF 10
