REMARK  Name = ZINC35760598
REMARK  14 active torsions:
REMARK  status: ('A' for Active; 'I' for Inactive)
REMARK    1  A    between atoms: C_1  and  C_2
REMARK    2  A    between atoms: C_2  and  C_3
REMARK    3  A    between atoms: C_3  and  N_4
REMARK    4  A    between atoms: N_4  and  C_5
REMARK    5  A    between atoms: N_4  and  C_23
REMARK    6  A    between atoms: C_5  and  C_6
REMARK    7  A    between atoms: C_7  and  C_17
REMARK    8  A    between atoms: C_10  and  N_11
REMARK    9  A    between atoms: C_23  and  C_24
REMARK   10  A    between atoms: C_24  and  C_26
REMARK   11  A    between atoms: C_24  and  O_35
REMARK   12  A    between atoms: C_26  and  O_27
REMARK   13  A    between atoms: O_27  and  C_28
REMARK   14  A    between atoms: C_33  and  C_34
REMARK                            x       y       z     vdW  Elec       q    Type
REMARK                         _______ _______ _______ _____ _____    ______ ____
ROOT
ATOM      1  N   UNL     1      -1.391  -2.442  -0.997  0.00  0.00    +0.384 N 
ATOM      2  H   UNL     1      -0.741  -2.852  -1.651  0.00  0.00    -0.081 HD
ENDROOT
BRANCH   1   3
ATOM      3  C   UNL     1      -1.309  -0.978  -1.076  0.00  0.00    -0.079 C 
BRANCH   3   5
ATOM      4  C   UNL     1       0.244   0.979  -1.009  0.00  0.00    +0.002 C 
ATOM      5  C   UNL     1       0.127  -0.532  -0.794  0.00  0.00    -0.022 C 
ENDBRANCH   3   5
ENDBRANCH   1   3
BRANCH   1   6
ATOM      6  C   UNL     1      -1.056  -2.878   0.365  0.00  0.00    -0.035 C 
BRANCH   6   7
ATOM      7  C   UNL     1      -1.004  -4.383   0.412  0.00  0.00    +0.025 A 
ATOM      8  C   UNL     1      -2.046  -5.238   0.828  0.00  0.00    +0.117 A 
ATOM      9  N   UNL     1      -1.620  -6.475   0.727  0.00  0.00    -0.076 NA
ATOM     10  O   UNL     1      -0.290  -6.442   0.242  0.00  0.00    -0.339 OA
ATOM     11  C   UNL     1       0.053  -5.156   0.056  0.00  0.00    +0.222 A 
BRANCH  11  12
ATOM     12  N   UNL     1       1.272  -4.701  -0.413  0.00  0.00    -0.299 N 
ATOM     13  C   UNL     1       2.400  -4.498   0.506  0.00  0.00    +0.108 C 
ATOM     14  C   UNL     1       3.612  -5.273  -0.024  0.00  0.00    +0.019 C 
ATOM     15  C   UNL     1       3.893  -4.848  -1.467  0.00  0.00    +0.003 C 
ATOM     16  C   UNL     1       2.684  -5.184  -2.344  0.00  0.00    +0.019 C 
ATOM     17  C   UNL     1       1.464  -4.415  -1.842  0.00  0.00    +0.108 C 
ENDBRANCH  11  12
BRANCH   8  18
ATOM     18  C   UNL     1      -3.389  -4.812   1.298  0.00  0.00    +0.004 A 
ATOM     19  C   UNL     1      -3.514  -3.737   2.175  0.00  0.00    +0.010 A 
ATOM     20  C   UNL     1      -4.765  -3.345   2.607  0.00  0.00    +0.001 A 
ATOM     21  C   UNL     1      -5.893  -4.018   2.172  0.00  0.00    +0.000 A 
ATOM     22  C   UNL     1      -5.774  -5.086   1.302  0.00  0.00    +0.001 A 
ATOM     23  C   UNL     1      -4.528  -5.483   0.859  0.00  0.00    +0.010 A 
ENDBRANCH   8  18
ENDBRANCH   6   7
ENDBRANCH   1   6
BRANCH   1  24
ATOM     24  C   UNL     1      -2.756  -2.874  -1.328  0.00  0.00    -0.043 C 
BRANCH  24  25
ATOM     25  C   UNL     1      -3.040  -2.581  -2.802  0.00  0.00    +0.135 C 
BRANCH  25  26
ATOM     26  O   UNL     1      -3.103  -1.167  -3.003  0.00  0.00    -0.390 OA
ATOM     27  H   UNL     1      -3.791  -0.727  -2.486  0.00  0.00    +0.210 HD
ENDBRANCH  25  26
BRANCH  25  28
ATOM     28  C   UNL     1      -4.377  -3.212  -3.199  0.00  0.00    +0.258 C 
BRANCH  28  29
ATOM     29  O   UNL     1      -4.587  -3.038  -4.602  0.00  0.00    -0.489 OA
BRANCH  29  30
ATOM     30  C   UNL     1      -5.736  -3.545  -5.120  0.00  0.00    +0.124 A 
ATOM     31  C   UNL     1      -6.646  -4.191  -4.295  0.00  0.00    +0.046 A 
ATOM     32  C   UNL     1      -7.813  -4.705  -4.825  0.00  0.00    +0.004 A 
ATOM     33  C   UNL     1      -8.076  -4.576  -6.176  0.00  0.00    +0.000 A 
ATOM     34  C   UNL     1      -7.172  -3.933  -7.001  0.00  0.00    +0.007 A 
ATOM     35  C   UNL     1      -6.005  -3.412  -6.475  0.00  0.00    -0.009 A 
ATOM     36  C   UNL     1      -5.023  -2.706  -7.373  0.00  0.00    +0.047 C 
ENDBRANCH  29  30
ENDBRANCH  28  29
ENDBRANCH  25  28
ENDBRANCH  24  25
ENDBRANCH   1  24
TORSDOF 12
