REMARK  Name = ZINC36316152
REMARK  18 active torsions:
REMARK  status: ('A' for Active; 'I' for Inactive)
REMARK    1  A    between atoms: C_1  and  C_2
REMARK    2  A    between atoms: C_2  and  C_3
REMARK    3  A    between atoms: C_3  and  N_4
REMARK    4  A    between atoms: N_4  and  C_5
REMARK    5  A    between atoms: N_4  and  C_27
REMARK    6  A    between atoms: C_5  and  C_6
REMARK    7  A    between atoms: C_7  and  C_21
REMARK    8  A    between atoms: N_9  and  C_20
REMARK    9  A    between atoms: C_10  and  O_11
REMARK   10  A    between atoms: O_11  and  C_12
REMARK   11  A    between atoms: C_27  and  C_28
REMARK   12  A    between atoms: C_28  and  C_30
REMARK   13  A    between atoms: C_28  and  O_36
REMARK   14  A    between atoms: C_30  and  O_31
REMARK   15  A    between atoms: O_31  and  C_32
REMARK   16  A    between atoms: C_32  and  C_33
REMARK   17  A    between atoms: C_32  and  C_34
REMARK   18  A    between atoms: C_32  and  C_35
REMARK                            x       y       z     vdW  Elec       q    Type
REMARK                         _______ _______ _______ _____ _____    ______ ____
ROOT
ATOM      1  C   UNL     1      -0.754  -2.050   3.176  0.00  0.00    +0.025 A 
ATOM      2  C   UNL     1      -0.774  -0.825   3.869  0.00  0.00    +0.098 A 
ATOM      3  N   UNL     1      -1.877  -0.778   4.585  0.00  0.00    -0.168 NA
ATOM      4  N   UNL     1      -2.591  -1.964   4.372  0.00  0.00    -0.235 N 
ATOM      5  C   UNL     1      -1.884  -2.728   3.499  0.00  0.00    +0.221 A 
ATOM      6  C   UNL     1      -3.876  -2.317   4.980  0.00  0.00    +0.176 C 
ENDROOT
BRANCH   2   7
ATOM      7  C   UNL     1       0.268   0.230   3.804  0.00  0.00    +0.002 A 
ATOM      8  C   UNL     1      -0.100   1.571   3.703  0.00  0.00    +0.010 A 
ATOM      9  C   UNL     1       0.873   2.548   3.643  0.00  0.00    +0.001 A 
ATOM     10  C   UNL     1       2.211   2.199   3.682  0.00  0.00    +0.000 A 
ATOM     11  C   UNL     1       2.581   0.870   3.782  0.00  0.00    +0.001 A 
ATOM     12  C   UNL     1       1.617  -0.115   3.850  0.00  0.00    +0.010 A 
ENDBRANCH   2   7
BRANCH   1  13
ATOM     13  C   UNL     1       0.327  -2.521   2.238  0.00  0.00    -0.035 C 
BRANCH  13  14
ATOM     14  N   UNL     1      -0.065  -2.230   0.853  0.00  0.00    +0.384 N 
ATOM     15  H   UNL     1      -0.948  -2.675   0.653  0.00  0.00    -0.081 HD
BRANCH  14  16
ATOM     16  C   UNL     1      -0.198  -0.778   0.676  0.00  0.00    -0.079 C 
BRANCH  16  18
ATOM     17  C   UNL     1      -1.010   1.019  -0.858  0.00  0.00    +0.002 C 
ATOM     18  C   UNL     1      -0.748  -0.482  -0.720  0.00  0.00    -0.022 C 
ENDBRANCH  16  18
ENDBRANCH  14  16
BRANCH  14  19
ATOM     19  C   UNL     1       0.961  -2.743  -0.065  0.00  0.00    -0.044 C 
BRANCH  19  20
ATOM     20  C   UNL     1       0.978  -4.272  -0.008  0.00  0.00    +0.124 C 
BRANCH  20  21
ATOM     21  O   UNL     1       1.465  -4.696   1.267  0.00  0.00    -0.391 OA
ATOM     22  H   UNL     1       2.362  -4.393   1.465  0.00  0.00    +0.210 HD
ENDBRANCH  20  21
BRANCH  20  23
ATOM     23  C   UNL     1       1.891  -4.813  -1.109  0.00  0.00    +0.189 C 
BRANCH  23  24
ATOM     24  O   UNL     1       1.817  -6.240  -1.131  0.00  0.00    -0.372 OA
BRANCH  24  25
ATOM     25  C   UNL     1       2.638  -6.850  -2.130  0.00  0.00    +0.061 C 
ATOM     26  C   UNL     1       4.101  -6.478  -1.884  0.00  0.00    +0.041 C 
ATOM     27  C   UNL     1       2.479  -8.370  -2.062  0.00  0.00    +0.041 C 
ATOM     28  C   UNL     1       2.211  -6.354  -3.513  0.00  0.00    +0.041 C 
ENDBRANCH  24  25
ENDBRANCH  23  24
ENDBRANCH  20  23
ENDBRANCH  19  20
ENDBRANCH  14  19
ENDBRANCH  13  14
ENDBRANCH   1  13
BRANCH   5  29
ATOM     29  O   UNL     1      -2.244  -3.952   3.035  0.00  0.00    -0.435 OA
BRANCH  29  30
ATOM     30  C   UNL     1      -1.908  -5.040   3.777  0.00  0.00    +0.166 A 
ATOM     31  C   UNL     1      -1.315  -4.877   5.020  0.00  0.00    +0.052 A 
ATOM     32  C   UNL     1      -0.974  -5.983   5.774  0.00  0.00    +0.042 A 
ATOM     33  C   UNL     1      -1.225  -7.256   5.290  0.00  0.00    +0.126 A 
ATOM     34  C   UNL     1      -1.817  -7.423   4.050  0.00  0.00    +0.080 A 
ATOM     35  C   UNL     1      -2.165  -6.318   3.295  0.00  0.00    +0.168 A 
ATOM     36  F   UNL     1      -2.748  -6.480   2.087  0.00  0.00    -0.202 F 
ATOM     37  F   UNL     1      -0.890  -8.337   6.029  0.00  0.00    -0.205 F 
ENDBRANCH  29  30
ENDBRANCH   5  29
TORSDOF 13
