REMARK  Name = ZINC39152697
REMARK  5 active torsions:
REMARK  status: ('A' for Active; 'I' for Inactive)
REMARK    1  A    between atoms: C_4  and  S_7
REMARK    2  A    between atoms: S_7  and  C_8
REMARK    3  A    between atoms: C_14  and  C_16
REMARK    4  A    between atoms: C_16  and  S_17
REMARK    5  A    between atoms: S_17  and  C_18
REMARK                            x       y       z     vdW  Elec       q    Type
REMARK                         _______ _______ _______ _____ _____    ______ ____
ROOT
ATOM      1  C   UNL     1       3.075  -2.301  -2.552  0.00  0.00    +0.160 A 
ATOM      2  N   UNL     1       2.625  -3.061  -1.564  0.00  0.00    -0.133 NA
ATOM      3  N   UNL     1       2.761  -4.314  -1.572  0.00  0.00    -0.125 NA
ATOM      4  C   UNL     1       3.360  -4.949  -2.566  0.00  0.00    +0.189 A 
ATOM      5  S   UNL     1       3.769  -3.560  -3.619  0.00  0.00    -0.024 S 
ATOM      6  N   UNL     1       3.599  -6.309  -2.745  0.00  0.00    -0.263 N 
ATOM      7  C   UNL     1       3.192  -7.193  -1.813  0.00  0.00    +0.229 C 
ATOM      8  O   UNL     1       2.618  -6.804  -0.818  0.00  0.00    -0.275 OA
ATOM      9  H   UNL     1       4.058  -6.620  -3.541  0.00  0.00    +0.157 HD
ENDROOT
BRANCH   1  10
ATOM     10  S   UNL     1       3.003  -0.553  -2.760  0.00  0.00    -0.094 S 
BRANCH  10  14
ATOM     11  C   UNL     1      -0.019   1.526   0.010  0.00  0.00    +0.000 C 
ATOM     12  C   UNL     1       1.417   2.055  -0.000  0.00  0.00    +0.001 C 
ATOM     13  C   UNL     1       2.133   1.562  -1.259  0.00  0.00    +0.014 C 
ATOM     14  C   UNL     1       2.154   0.032  -1.268  0.00  0.00    +0.053 C 
ATOM     15  C   UNL     1       0.718  -0.497  -1.257  0.00  0.00    +0.014 C 
ATOM     16  C   UNL     1       0.002  -0.004   0.002  0.00  0.00    +0.001 C 
ENDBRANCH  10  14
ENDBRANCH   1  10
BRANCH   7  17
ATOM     17  C   UNL     1       3.451  -8.665  -2.007  0.00  0.00    +0.173 C 
BRANCH  17  18
ATOM     18  S   UNL     1       2.789  -9.587  -0.592  0.00  0.00    -0.079 S 
BRANCH  18  19
ATOM     19  C   UNL     1       3.166 -11.268  -0.964  0.00  0.00    +0.182 C 
ATOM     20  N   UNL     1       3.803 -11.535  -2.090  0.00  0.00    -0.151 NA
ATOM     21  C   UNL     1       4.125 -12.775  -2.459  0.00  0.00    +0.272 C 
ATOM     22  O   UNL     1       4.717 -12.985  -3.504  0.00  0.00    -0.268 OA
ATOM     23  C   UNL     1       3.739 -13.902  -1.550  0.00  0.00    +0.071 C 
ATOM     24  C   UNL     1       3.907 -15.219  -1.754  0.00  0.00    -0.042 C 
ATOM     25  C   UNL     1       4.392 -15.820  -3.071  0.00  0.00    +0.033 C 
ATOM     26  C   UNL     1       3.338 -16.849  -3.502  0.00  0.00    +0.004 C 
ATOM     27  C   UNL     1       3.071 -17.838  -2.370  0.00  0.00    +0.002 C 
ATOM     28  C   UNL     1       2.478 -17.124  -1.152  0.00  0.00    +0.019 C 
ATOM     29  C   UNL     1       3.518 -16.143  -0.605  0.00  0.00    +0.079 C 
ATOM     30  S   UNL     1       2.727 -14.980   0.569  0.00  0.00    -0.097 S 
ATOM     31  C   UNL     1       3.041 -13.474  -0.318  0.00  0.00    +0.112 C 
ATOM     32  N   UNL     1       2.798 -12.208  -0.093  0.00  0.00    -0.217 NA
ENDBRANCH  18  19
ENDBRANCH  17  18
ENDBRANCH   7  17
TORSDOF 5
