REMARK  Name = ZINC38706093
REMARK  10 active torsions:
REMARK  status: ('A' for Active; 'I' for Inactive)
REMARK    1  A    between atoms: C_1  and  C_2
REMARK    2  A    between atoms: C_5  and  C_8
REMARK    3  A    between atoms: C_8  and  N_9
REMARK    4  A    between atoms: C_10  and  C_29
REMARK    5  A    between atoms: C_13  and  C_20
REMARK    6  A    between atoms: C_21  and  C_28
REMARK    7  A    between atoms: C_23  and  C_27
REMARK    8  A    between atoms: C_25  and  O_26
REMARK    9  A    between atoms: C_32  and  S_35
REMARK   10  A    between atoms: S_35  and  C_36
REMARK                            x       y       z     vdW  Elec       q    Type
REMARK                         _______ _______ _______ _____ _____    ______ ____
ROOT
ATOM      1  N   UNL     1       1.503  -4.789  -0.106  0.00  0.00    -0.281 N 
ATOM      2  C   UNL     1       2.384  -4.994  -1.264  0.00  0.00    +0.142 C 
ATOM      3  C   UNL     1       3.694  -5.483  -0.709  0.00  0.00    +0.035 A 
ATOM      4  C   UNL     1       5.001  -5.906  -0.971  0.00  0.00    +0.102 A 
ATOM      5  N   UNL     1       5.563  -6.190   0.188  0.00  0.00    -0.173 NA
ATOM      6  N   UNL     1       4.740  -5.989   1.155  0.00  0.00    -0.272 N 
ATOM      7  H   UNL     1       4.939  -6.132   2.094  0.00  0.00    +0.189 HD
ATOM      8  C   UNL     1       3.546  -5.544   0.664  0.00  0.00    +0.126 A 
ATOM      9  C   UNL     1       2.188  -5.106   1.007  0.00  0.00    +0.266 C 
ATOM     10  O   UNL     1       1.745  -5.041   2.138  0.00  0.00    -0.268 OA
ENDROOT
BRANCH   4  11
ATOM     11  C   UNL     1       5.638  -6.014  -2.306  0.00  0.00    +0.047 A 
ATOM     12  C   UNL     1       6.310  -7.179  -2.668  0.00  0.00    -0.037 A 
ATOM     13  C   UNL     1       6.901  -7.276  -3.912  0.00  0.00    +0.007 A 
ATOM     14  C   UNL     1       6.828  -6.219  -4.801  0.00  0.00    -0.047 A 
ATOM     15  C   UNL     1       6.164  -5.059  -4.453  0.00  0.00    +0.049 A 
ATOM     16  C   UNL     1       5.562  -4.950  -3.209  0.00  0.00    +0.127 A 
ATOM     17  C   UNL     1       7.477  -6.334  -6.157  0.00  0.00    +0.044 C 
ATOM     18  C   UNL     1       6.393  -8.333  -1.702  0.00  0.00    +0.044 C 
BRANCH  16  19
ATOM     19  O   UNL     1       4.904  -3.812  -2.867  0.00  0.00    -0.506 OA
ATOM     20  H   UNL     1       5.476  -3.120  -2.509  0.00  0.00    +0.292 HD
ENDBRANCH  16  19
ENDBRANCH   4  11
BRANCH   2  21
ATOM     21  C   UNL     1       1.793  -6.027  -2.188  0.00  0.00    -0.022 A 
ATOM     22  C   UNL     1       1.255  -7.190  -1.670  0.00  0.00    +0.007 A 
ATOM     23  C   UNL     1       0.713  -8.139  -2.514  0.00  0.00    +0.015 A 
ATOM     24  C   UNL     1       0.709  -7.923  -3.887  0.00  0.00    +0.008 A 
ATOM     25  C   UNL     1       1.250  -6.752  -4.405  0.00  0.00    +0.015 A 
ATOM     26  C   UNL     1       1.785  -5.806  -3.554  0.00  0.00    +0.007 A 
BRANCH  24  27
ATOM     27  S   UNL     1       0.019  -9.131  -4.969  0.00  0.00    -0.129 S 
ATOM     28  C   UNL     1       0.239  -8.417  -6.622  0.00  0.00    +0.090 C 
ENDBRANCH  24  27
ENDBRANCH   2  21
BRANCH   1  29
ATOM     29  C   UNL     1       0.118  -4.314  -0.155  0.00  0.00    +0.144 C 
BRANCH  29  34
ATOM     30  C   UNL     1       0.042   1.455   0.171  0.00  0.00    +0.044 C 
ATOM     31  C   UNL     1       0.062  -0.050   0.086  0.00  0.00    -0.050 A 
ATOM     32  C   UNL     1       0.138  -0.671  -1.147  0.00  0.00    +0.003 A 
ATOM     33  C   UNL     1       0.156  -2.051  -1.225  0.00  0.00    +0.005 A 
ATOM     34  C   UNL     1       0.099  -2.810  -0.070  0.00  0.00    -0.030 A 
ATOM     35  C   UNL     1       0.024  -2.188   1.162  0.00  0.00    +0.005 A 
ATOM     36  C   UNL     1       0.010  -0.808   1.240  0.00  0.00    +0.003 A 
ENDBRANCH  29  34
ENDBRANCH   1  29
TORSDOF 6
