REMARK  Name = ZINC09868434
REMARK  9 active torsions:
REMARK  status: ('A' for Active; 'I' for Inactive)
REMARK    1  A    between atoms: C_1  and  C_2
REMARK    2  A    between atoms: C_2  and  C_3
REMARK    3  A    between atoms: C_3  and  C_5
REMARK    4  A    between atoms: C_3  and  C_6
REMARK    5  A    between atoms: C_11  and  O_12
REMARK    6  A    between atoms: O_12  and  C_13
REMARK    7  A    between atoms: C_13  and  C_15
REMARK    8  A    between atoms: C_13  and  C_16
REMARK    9  A    between atoms: N_18  and  C_19
REMARK                            x       y       z     vdW  Elec       q    Type
REMARK                         _______ _______ _______ _____ _____    ______ ____
ROOT
ATOM      1  C   UNL     1      -1.344   5.840  -0.081  0.00  0.00    +0.256 C 
ATOM      2  C   UNL     1      -1.740   5.976  -1.552  0.00  0.00    +0.062 C 
ENDROOT
BRANCH   1   3
ATOM      3  C   UNL     1      -1.275   7.207   0.550  0.00  0.00    +0.258 C 
ATOM      4  O   UNL     1      -0.213   7.638   0.949  0.00  0.00    -0.271 OA
ATOM      5  N   UNL     1      -2.392   7.952   0.669  0.00  0.00    -0.281 N 
ATOM      6  H   UNL     1      -3.253   7.577   0.426  0.00  0.00    +0.155 HD
BRANCH   5   7
ATOM      7  C   UNL     1      -2.310   9.266   1.146  0.00  0.00    +0.053 A 
ATOM      8  C   UNL     1      -1.127   9.981   1.013  0.00  0.00    +0.046 A 
ATOM      9  C   UNL     1      -1.049  11.278   1.483  0.00  0.00    +0.061 A 
ATOM     10  C   UNL     1      -2.149  11.865   2.087  0.00  0.00    +0.061 A 
ATOM     11  C   UNL     1      -3.329  11.154   2.220  0.00  0.00    +0.043 A 
ATOM     12  C   UNL     1      -3.414   9.858   1.747  0.00  0.00    +0.064 A 
ATOM     13 CL   UNL     1      -4.896   8.970   1.909  0.00  0.00    -0.082 Cl
ATOM     14 CL   UNL     1      -2.048  13.494   2.676  0.00  0.00    -0.082 Cl
ATOM     15 CL   UNL     1       0.429  12.173   1.318  0.00  0.00    -0.082 Cl
ENDBRANCH   5   7
ENDBRANCH   1   3
BRANCH   1  16
ATOM     16  O   UNL     1      -0.066   5.207   0.012  0.00  0.00    -0.480 OA
BRANCH  16  22
ATOM     17  C   UNL     1       1.164   3.171  -0.030  0.00  0.00    -0.003 A 
ATOM     18  C   UNL     1       1.181   1.790  -0.057  0.00  0.00    +0.007 A 
ATOM     19  C   UNL     1      -0.007   1.083  -0.069  0.00  0.00    +0.001 A 
ATOM     20  C   UNL     1      -1.215   1.756  -0.060  0.00  0.00    +0.004 A 
ATOM     21  C   UNL     1      -1.238   3.137  -0.027  0.00  0.00    +0.046 A 
ATOM     22  C   UNL     1      -0.047   3.849  -0.015  0.00  0.00    +0.125 A 
BRANCH  17  23
ATOM     23  C   UNL     1       2.459   3.941  -0.017  0.00  0.00    +0.019 C 
ATOM     24  C   UNL     1       3.268   3.558   1.224  0.00  0.00    +0.012 C 
BRANCH  23  26
ATOM     25  C   UNL     1       4.519   4.480  -1.324  0.00  0.00    +0.004 C 
ATOM     26  C   UNL     1       3.264   3.607  -1.274  0.00  0.00    +0.004 C 
ENDBRANCH  23  26
ENDBRANCH  17  23
ENDBRANCH  16  22
ENDBRANCH   1  16
TORSDOF 6
