REMARK  Name = ZINC51485011
REMARK  10 active torsions:
REMARK  status: ('A' for Active; 'I' for Inactive)
REMARK    1  A    between atoms: C_1  and  C_2
REMARK    2  A    between atoms: C_2  and  N_3
REMARK    3  A    between atoms: N_3  and  C_4
REMARK    4  A    between atoms: C_4  and  C_5
REMARK    5  A    between atoms: C_6  and  C_21
REMARK    6  A    between atoms: C_8  and  C_20
REMARK    7  A    between atoms: C_10  and  N_11
REMARK    8  A    between atoms: N_11  and  C_12
REMARK    9  A    between atoms: N_11  and  C_13
REMARK   10  A    between atoms: C_13  and  C_14
REMARK                            x       y       z     vdW  Elec       q    Type
REMARK                         _______ _______ _______ _____ _____    ______ ____
ROOT
ATOM      1  C   UNL     1       1.306  -2.455  -2.518  0.00  0.00    -0.023 A 
ATOM      2  C   UNL     1       0.522  -2.591  -3.650  0.00  0.00    -0.044 A 
ATOM      3  C   UNL     1       1.123  -3.026  -4.823  0.00  0.00    +0.024 A 
ATOM      4  C   UNL     1       2.475  -3.307  -4.827  0.00  0.00    +0.015 A 
ATOM      5  N   UNL     1       3.198  -3.168  -3.733  0.00  0.00    -0.347 N 
ATOM      6  C   UNL     1       2.663  -2.751  -2.596  0.00  0.00    +0.101 A 
ATOM      7  C   UNL     1       3.132  -3.779  -6.099  0.00  0.00    +0.063 C 
ATOM      8  C   UNL     1      -0.951  -2.276  -3.609  0.00  0.00    +0.044 C 
ATOM      9  H   UNL     1       4.146  -3.373  -3.763  0.00  0.00    +0.167 HD
ENDROOT
BRANCH   6  10
ATOM     10  N   UNL     1       3.464  -2.612  -1.468  0.00  0.00    -0.315 N 
ATOM     11  C   UNL     1       4.060  -1.313  -1.147  0.00  0.00    +0.131 C 
BRANCH  10  12
ATOM     12  C   UNL     1       3.712  -3.766  -0.600  0.00  0.00    +0.148 C 
BRANCH  12  13
ATOM     13  C   UNL     1       4.942  -4.496  -1.074  0.00  0.00    +0.008 A 
ATOM     14  C   UNL     1       6.235  -4.314  -0.712  0.00  0.00    +0.028 A 
ATOM     15  C   UNL     1       7.210  -5.110  -1.284  0.00  0.00    +0.025 A 
ATOM     16  C   UNL     1       6.843  -6.050  -2.191  0.00  0.00    +0.060 A 
ATOM     17  S   UNL     1       5.072  -5.831  -2.252  0.00  0.00    -0.099 S 
ATOM     18 BR   UNL     1       9.028  -4.892  -0.811  0.00  0.00    -0.050 Br
ENDBRANCH  12  13
ENDBRANCH  10  12
ENDBRANCH   6  10
BRANCH   1  19
ATOM     19  C   UNL     1       0.700  -1.987  -1.220  0.00  0.00    -0.043 C 
BRANCH  19  20
ATOM     20  N   UNL     1       0.623  -0.520  -1.217  0.00  0.00    +0.382 N 
ATOM     21  H   UNL     1       0.115  -0.207  -2.031  0.00  0.00    -0.085 HD
ATOM     22  H   UNL     1       1.555  -0.134  -1.234  0.00  0.00    -0.085 HD
BRANCH  20  24
ATOM     23  C   UNL     1      -0.151   1.460  -0.000  0.00  0.00    -0.017 C 
ATOM     24  C   UNL     1      -0.071  -0.068  -0.004  0.00  0.00    -0.086 C 
ENDBRANCH  20  24
ENDBRANCH  19  20
ENDBRANCH   1  19
TORSDOF 6
