REMARK  Name = ZINC63806824
REMARK  7 active torsions:
REMARK  status: ('A' for Active; 'I' for Inactive)
REMARK    1  A    between atoms: C_1  and  C_2
REMARK    2  A    between atoms: C_5  and  C_14
REMARK    3  A    between atoms: C_6  and  C_13
REMARK    4  A    between atoms: C_14  and  C_16
REMARK    5  A    between atoms: C_16  and  N_17
REMARK    6  A    between atoms: C_20  and  C_25
REMARK    7  A    between atoms: C_25  and  C_26
REMARK                            x       y       z     vdW  Elec       q    Type
REMARK                         _______ _______ _______ _____ _____    ______ ____
ROOT
ATOM      1  N   UNL     1      -4.988  -2.650   1.617  0.00  0.00    -0.217 N 
ATOM      2  C   UNL     1      -5.249  -3.940   1.329  0.00  0.00    +0.244 C 
ATOM      3  O   UNL     1      -4.687  -4.636   0.512  0.00  0.00    -0.273 OA
ATOM      4  C   UNL     1      -6.391  -4.340   2.242  0.00  0.00    +0.165 C 
ATOM      5  N   UNL     1      -6.667  -3.113   3.009  0.00  0.00    -0.287 N 
ATOM      6  C   UNL     1      -5.795  -2.185   2.578  0.00  0.00    +0.310 C 
ATOM      7  O   UNL     1      -5.747  -1.050   3.010  0.00  0.00    -0.252 OA
ATOM      8  H   UNL     1      -7.344  -2.998   3.695  0.00  0.00    +0.151 HD
ENDROOT
BRANCH   1   9
ATOM      9  C   UNL     1      -3.945  -1.855   0.963  0.00  0.00    +0.197 C 
BRANCH   9  10
ATOM     10  C   UNL     1      -2.652  -1.998   1.725  0.00  0.00    +0.178 C 
ATOM     11  O   UNL     1      -2.607  -2.696   2.719  0.00  0.00    -0.291 OA
BRANCH  10  15
ATOM     12  C   UNL     1       0.111   1.514   0.062  0.00  0.00    +0.029 C 
ATOM     13  C   UNL     1       0.077  -0.016   0.039  0.00  0.00    +0.082 C 
ATOM     14  C   UNL     1      -1.378  -0.522   0.011  0.00  0.00    +0.062 C 
ATOM     15  C   UNL     1      -1.502  -1.326   1.288  0.00  0.00    +0.015 C 
ATOM     16  C   UNL     1      -0.319  -1.284   1.932  0.00  0.00    +0.017 C 
ATOM     17  N   UNL     1       0.631  -0.561   1.285  0.00  0.00    -0.280 N 
ATOM     18  C   UNL     1       1.929  -0.364   1.733  0.00  0.00    +0.165 A 
ATOM     19  N   UNL     1       2.895   0.326   1.165  0.00  0.00    -0.233 NA
ATOM     20  C   UNL     1       4.087   0.419   1.723  0.00  0.00    +0.120 A 
ATOM     21  C   UNL     1       4.268  -0.227   2.901  0.00  0.00    +0.068 A 
ATOM     22  S   UNL     1       2.650  -0.944   3.139  0.00  0.00    -0.060 S 
ATOM     23  C   UNL     1      -0.072  -1.977   3.248  0.00  0.00    +0.061 C 
ENDBRANCH  10  15
ENDBRANCH   9  10
ENDBRANCH   1   9
BRANCH   4  24
ATOM     24  C   UNL     1      -7.616  -4.753   1.422  0.00  0.00    +0.065 C 
BRANCH  24  25
ATOM     25  C   UNL     1      -8.692  -5.261   2.347  0.00  0.00    -0.039 C 
ATOM     26  C   UNL     1      -9.727  -4.554   2.856  0.00  0.00    -0.001 A 
ATOM     27  C   UNL     1     -10.144  -3.155   2.707  0.00  0.00    +0.010 A 
ATOM     28  C   UNL     1     -11.251  -2.728   3.357  0.00  0.00    +0.001 A 
ATOM     29  C   UNL     1     -12.007  -3.587   4.167  0.00  0.00    +0.002 A 
ATOM     30  C   UNL     1     -11.687  -4.885   4.352  0.00  0.00    +0.026 A 
ATOM     31  C   UNL     1     -10.543  -5.441   3.716  0.00  0.00    +0.043 A 
ATOM     32  N   UNL     1     -10.032  -6.648   3.738  0.00  0.00    -0.380 N 
ATOM     33  C   UNL     1      -8.836  -6.665   2.888  0.00  0.00    +0.144 C 
ATOM     34  H   UNL     1     -10.388  -7.404   4.231  0.00  0.00    +0.160 HD
ENDBRANCH  24  25
ENDBRANCH   4  24
TORSDOF 5
