REMARK  Name = ZINC02533467
REMARK  7 active torsions:
REMARK  status: ('A' for Active; 'I' for Inactive)
REMARK    1  A    between atoms: C_1  and  C_2
REMARK    2  A    between atoms: C_6  and  C_36
REMARK    3  A    between atoms: C_7  and  N_8
REMARK    4  A    between atoms: C_9  and  C_11
REMARK    5  A    between atoms: C_11  and  N_12
REMARK    6  A    between atoms: N_23  and  C_27
REMARK    7  A    between atoms: C_27  and  C_28
REMARK                            x       y       z     vdW  Elec       q    Type
REMARK                         _______ _______ _______ _____ _____    ______ ____
ROOT
ATOM      1  N   UNL     1      -0.939   7.271  -5.580  0.00  0.00    -0.258 N 
ATOM      2  C   UNL     1      -1.857   7.850  -6.450  0.00  0.00    +0.045 A 
ATOM      3  C   UNL     1      -1.950   9.134  -6.974  0.00  0.00    +0.024 A 
ATOM      4  C   UNL     1      -2.971   9.454  -7.846  0.00  0.00    +0.002 A 
ATOM      5  C   UNL     1      -3.921   8.509  -8.199  0.00  0.00    +0.001 A 
ATOM      6  C   UNL     1      -3.849   7.231  -7.686  0.00  0.00    +0.010 A 
ATOM      7  C   UNL     1      -2.818   6.895  -6.812  0.00  0.00    +0.010 A 
ATOM      8  C   UNL     1      -2.459   5.650  -6.101  0.00  0.00    +0.065 C 
ATOM      9  C   UNL     1      -3.118   4.436  -6.146  0.00  0.00    +0.089 C 
ATOM     10  C   UNL     1      -2.796   3.156  -5.458  0.00  0.00    +0.259 C 
ATOM     11  O   UNL     1      -1.835   3.046  -4.723  0.00  0.00    -0.269 OA
ATOM     12  N   UNL     1      -3.616   2.144  -5.690  0.00  0.00    -0.251 N 
ATOM     13  C   UNL     1      -4.679   2.270  -6.510  0.00  0.00    +0.121 C 
ATOM     14  S   UNL     1      -5.838   1.083  -6.934  0.00  0.00    -0.027 S 
ATOM     15  S   UNL     1      -4.591   3.971  -7.045  0.00  0.00    -0.060 S 
ATOM     16  C   UNL     1      -1.239   5.983  -5.338  0.00  0.00    +0.253 C 
ATOM     17  O   UNL     1      -0.616   5.226  -4.617  0.00  0.00    -0.270 OA
ENDROOT
BRANCH   1  18
ATOM     18  C   UNL     1       0.208   7.974  -5.002  0.00  0.00    +0.210 C 
BRANCH  18  20
ATOM     19  N   UNL     1       2.577   8.389  -5.579  0.00  0.00    -0.284 N 
ATOM     20  C   UNL     1       1.401   7.821  -5.910  0.00  0.00    +0.235 C 
ATOM     21  O   UNL     1       1.302   7.186  -6.939  0.00  0.00    -0.274 OA
ATOM     22  H   UNL     1       2.647   9.031  -4.688  0.00  0.00    +0.155 HD
BRANCH  19  29
ATOM     23  C   UNL     1       4.046  10.646  -6.499  0.00  0.00    +0.045 C 
ATOM     24  C   UNL     1       4.456   9.236  -6.838  0.00  0.00    -0.029 A 
ATOM     25  C   UNL     1       5.577   9.010  -7.613  0.00  0.00    +0.005 A 
ATOM     26  C   UNL     1       5.950   7.717  -7.929  0.00  0.00    +0.001 A 
ATOM     27  C   UNL     1       5.207   6.646  -7.467  0.00  0.00    +0.005 A 
ATOM     28  C   UNL     1       4.088   6.866  -6.688  0.00  0.00    -0.029 A 
ATOM     29  C   UNL     1       3.710   8.163  -6.368  0.00  0.00    +0.039 A 
ATOM     30  C   UNL     1       3.279   5.699  -6.184  0.00  0.00    +0.045 C 
ENDBRANCH  19  29
ENDBRANCH  18  20
ENDBRANCH   1  18
BRANCH  12  31
ATOM     31  C   UNL     1      -3.360   0.854  -5.045  0.00  0.00    +0.150 C 
BRANCH  31  32
ATOM     32  C   UNL     1      -4.072   0.806  -3.717  0.00  0.00    -0.030 A 
ATOM     33  C   UNL     1      -3.429   1.238  -2.572  0.00  0.00    +0.005 A 
ATOM     34  C   UNL     1      -4.083   1.198  -1.355  0.00  0.00    +0.000 A 
ATOM     35  C   UNL     1      -5.377   0.717  -1.282  0.00  0.00    +0.000 A 
ATOM     36  C   UNL     1      -6.018   0.280  -2.426  0.00  0.00    +0.000 A 
ATOM     37  C   UNL     1      -5.365   0.324  -3.644  0.00  0.00    +0.005 A 
ENDBRANCH  31  32
ENDBRANCH  12  31
TORSDOF 5
