REMARK  Name = ZINC30883722
REMARK  9 active torsions:
REMARK  status: ('A' for Active; 'I' for Inactive)
REMARK    1  A    between atoms: C_1  and  C_2
REMARK    2  A    between atoms: C_4  and  N_31
REMARK    3  A    between atoms: C_8  and  C_30
REMARK    4  A    between atoms: C_11  and  O_29
REMARK    5  A    between atoms: C_13  and  C_17
REMARK    6  A    between atoms: C_17  and  C_19
REMARK    7  A    between atoms: C_17  and  C_20
REMARK    8  A    between atoms: N_22  and  C_23
REMARK    9  A    between atoms: C_32  and  C_34
REMARK                            x       y       z     vdW  Elec       q    Type
REMARK                         _______ _______ _______ _____ _____    ______ ____
ROOT
ATOM      1  C   UNL     1      -4.968   1.540  -1.919  0.00  0.00    +0.010 C 
ATOM      2  C   UNL     1      -3.518   1.990  -2.103  0.00  0.00    +0.012 C 
ATOM      3  C   UNL     1      -2.868   1.174  -3.221  0.00  0.00    +0.076 C 
ATOM      4  C   UNL     1      -1.417   1.625  -3.405  0.00  0.00    +0.023 C 
ATOM      5  C   UNL     1      -0.647   1.407  -2.101  0.00  0.00    +0.009 C 
ATOM      6  C   UNL     1      -1.297   2.224  -0.982  0.00  0.00    -0.027 C 
ATOM      7  C   UNL     1      -2.748   1.773  -0.799  0.00  0.00    +0.028 C 
ATOM      8  C   UNL     1      -3.398   2.590   0.320  0.00  0.00    +0.122 C 
ATOM      9  C   UNL     1      -2.627   2.372   1.624  0.00  0.00    +0.029 C 
ATOM     10  C   UNL     1      -1.177   2.823   1.440  0.00  0.00    +0.007 C 
ATOM     11  C   UNL     1      -0.527   2.007   0.322  0.00  0.00    +0.007 C 
ATOM     12  C   UNL     1      -1.267   3.709  -1.351  0.00  0.00    +0.011 C 
ENDROOT
BRANCH   3  13
ATOM     13  N   UNL     1      -3.605   1.382  -4.470  0.00  0.00    -0.312 N 
ATOM     14  C   UNL     1      -3.572   0.444  -5.437  0.00  0.00    +0.216 C 
ATOM     15  O   UNL     1      -2.931  -0.573  -5.274  0.00  0.00    -0.276 OA
ATOM     16  H   UNL     1      -4.187   2.304  -4.618  0.00  0.00    +0.149 HD
BRANCH  14  17
ATOM     17  C   UNL     1      -4.331   0.658  -6.721  0.00  0.00    +0.075 C 
ATOM     18  C   UNL     1      -5.821   0.818  -6.413  0.00  0.00    +0.013 C 
ATOM     19  C   UNL     1      -6.591   1.035  -7.717  0.00  0.00    +0.001 C 
ATOM     20  C   UNL     1      -6.387  -0.170  -8.636  0.00  0.00    +0.000 C 
ATOM     21  C   UNL     1      -4.897  -0.330  -8.945  0.00  0.00    +0.001 C 
ATOM     22  C   UNL     1      -4.127  -0.547  -7.641  0.00  0.00    +0.013 C 
ENDBRANCH  14  17
ENDBRANCH   3  13
BRANCH   9  23
ATOM     23  C   UNL     1      -2.657   0.888   1.992  0.00  0.00    +0.077 C 
ATOM     24  C   UNL     1      -4.109   0.422   2.115  0.00  0.00    +0.017 C 
BRANCH  23  25
ATOM     25  C   UNL     1      -1.951   0.682   3.308  0.00  0.00    +0.216 C 
ATOM     26  O   UNL     1      -1.471   1.630   3.893  0.00  0.00    -0.276 OA
ATOM     27  N   UNL     1      -1.853  -0.554   3.834  0.00  0.00    -0.312 N 
ATOM     28  H   UNL     1      -2.288  -1.414   3.303  0.00  0.00    +0.149 HD
BRANCH  27  29
ATOM     29  C   UNL     1      -1.166  -0.754   5.112  0.00  0.00    +0.073 C 
ATOM     30  C   UNL     1       0.337  -0.898   4.867  0.00  0.00    +0.022 C 
ATOM     31  C   UNL     1       1.054  -1.107   6.202  0.00  0.00    +0.002 C 
ATOM     32  C   UNL     1       0.523  -2.375   6.874  0.00  0.00    +0.000 C 
ATOM     33  C   UNL     1      -0.980  -2.231   7.120  0.00  0.00    +0.002 C 
ATOM     34  C   UNL     1      -1.697  -2.022   5.784  0.00  0.00    +0.022 C 
ENDBRANCH  27  29
ENDBRANCH  23  25
ENDBRANCH   9  23
BRANCH   8  35
ATOM     35  O   UNL     1      -4.753   2.169   0.491  0.00  0.00    -0.391 OA
ATOM     36  H   UNL     1      -5.384   2.645   1.255  0.00  0.00    +0.210 HD
ENDBRANCH   8  35
TORSDOF 6
