REMARK  Name = ZINC39977362
REMARK  12 active torsions:
REMARK  status: ('A' for Active; 'I' for Inactive)
REMARK    1  A    between atoms: C_1  and  C_2
REMARK    2  A    between atoms: C_2  and  C_3
REMARK    3  A    between atoms: C_3  and  C_5
REMARK    4  A    between atoms: C_3  and  C_6
REMARK    5  A    between atoms: C_6  and  C_8
REMARK    6  A    between atoms: C_6  and  N_12
REMARK    7  A    between atoms: C_8  and  O_10
REMARK    8  A    between atoms: O_10  and  C_11
REMARK    9  A    between atoms: C_13  and  N_15
REMARK   10  A    between atoms: C_19  and  C_22
REMARK   11  A    between atoms: C_25  and  O_28
REMARK   12  A    between atoms: O_28  and  C_29
REMARK                            x       y       z     vdW  Elec       q    Type
REMARK                         _______ _______ _______ _____ _____    ______ ____
ROOT
ATOM      1  N   UNL     1       3.461   2.831  -0.430  0.00  0.00    -0.139 NA
ATOM      2  C   UNL     1       3.269   3.512  -1.557  0.00  0.00    +0.165 A 
ATOM      3  N   UNL     1       3.875   4.664  -1.958  0.00  0.00    -0.335 N 
ATOM      4  H   UNL     1       4.540   5.093  -1.398  0.00  0.00    +0.168 HD
ATOM      5  C   UNL     1       3.528   5.203  -3.167  0.00  0.00    +0.055 A 
ATOM      6  C   UNL     1       2.594   4.541  -3.884  0.00  0.00    +0.074 A 
ATOM      7  S   UNL     1       2.228   3.153  -2.826  0.00  0.00    -0.060 S 
ENDROOT
BRANCH   5   8
ATOM      8  C   UNL     1       4.146   6.452  -3.664  0.00  0.00    -0.001 A 
ATOM      9  C   UNL     1       5.112   7.107  -2.899  0.00  0.00    +0.013 A 
ATOM     10  C   UNL     1       5.686   8.270  -3.366  0.00  0.00    +0.046 A 
ATOM     11  C   UNL     1       5.304   8.790  -4.596  0.00  0.00    +0.120 A 
ATOM     12  C   UNL     1       4.344   8.141  -5.360  0.00  0.00    +0.046 A 
ATOM     13  C   UNL     1       3.769   6.974  -4.902  0.00  0.00    +0.013 A 
BRANCH  11  14
ATOM     14  O   UNL     1       5.872   9.937  -5.053  0.00  0.00    -0.495 OA
ATOM     15  C   UNL     1       5.433  10.416  -6.326  0.00  0.00    +0.277 C 
ENDBRANCH  11  14
ENDBRANCH   5   8
BRANCH   1  17
ATOM     16  N   UNL     1       2.968   1.016   0.936  0.00  0.00    -0.284 N 
ATOM     17  C   UNL     1       2.774   1.706  -0.205  0.00  0.00    +0.326 C 
ATOM     18  O   UNL     1       1.973   1.305  -1.031  0.00  0.00    -0.251 OA
ATOM     19  H   UNL     1       3.550   1.372   1.625  0.00  0.00    +0.151 HD
BRANCH  16  20
ATOM     20  C   UNL     1       2.300  -0.272   1.135  0.00  0.00    +0.186 C 
BRANCH  20  21
ATOM     21  C   UNL     1       0.884  -0.035   1.667  0.00  0.00    +0.017 C 
ATOM     22  C   UNL     1       0.959   0.700   3.006  0.00  0.00    +0.010 C 
BRANCH  21  24
ATOM     23  C   UNL     1       0.032  -2.078   0.508  0.00  0.00    +0.004 C 
ATOM     24  C   UNL     1       0.181  -1.380   1.861  0.00  0.00    +0.002 C 
ENDBRANCH  21  24
ENDBRANCH  20  21
BRANCH  20  25
ATOM     25  C   UNL     1       3.078  -1.094   2.130  0.00  0.00    +0.328 C 
ATOM     26  O   UNL     1       3.870  -0.558   2.869  0.00  0.00    -0.249 OA
BRANCH  25  27
ATOM     27  O   UNL     1       2.893  -2.422   2.195  0.00  0.00    -0.467 OA
ATOM     28  C   UNL     1       3.665  -3.138   3.161  0.00  0.00    +0.280 C 
ENDBRANCH  25  27
ENDBRANCH  20  25
ENDBRANCH  16  20
ENDBRANCH   1  17
TORSDOF 8
