REMARK  Name = ZINC21859843
REMARK  9 active torsions:
REMARK  status: ('A' for Active; 'I' for Inactive)
REMARK    1  A    between atoms: C_1  and  C_2
REMARK    2  A    between atoms: C_2  and  C_27
REMARK    3  A    between atoms: C_7  and  O_25
REMARK    4  A    between atoms: N_15  and  C_16
REMARK    5  A    between atoms: C_16  and  C_17
REMARK    6  A    between atoms: C_17  and  C_18
REMARK    7  A    between atoms: O_25  and  C_26
REMARK    8  A    between atoms: N_29  and  C_30
REMARK    9  A    between atoms: C_30  and  C_31
REMARK                            x       y       z     vdW  Elec       q    Type
REMARK                         _______ _______ _______ _____ _____    ______ ____
ROOT
ATOM      1  C   UNL     1      -5.226   2.640  -0.931  0.00  0.00    +0.043 C 
ATOM      2  C   UNL     1      -5.530   4.071  -1.377  0.00  0.00    +0.128 C 
ATOM      3  C   UNL     1      -6.583   4.669  -0.440  0.00  0.00    +0.157 C 
ATOM      4  N   UNL     1      -6.684   6.112  -0.689  0.00  0.00    -0.334 N 
ATOM      5  C   UNL     1      -7.737   6.953  -0.556  0.00  0.00    +0.053 A 
ATOM      6  C   UNL     1      -9.061   6.740  -0.176  0.00  0.00    +0.072 A 
ATOM      7  C   UNL     1      -9.894   7.850  -0.141  0.00  0.00    +0.122 A 
ATOM      8  C   UNL     1      -9.442   9.125  -0.468  0.00  0.00    +0.046 A 
ATOM      9  C   UNL     1      -8.147   9.363  -0.846  0.00  0.00    +0.013 A 
ATOM     10  C   UNL     1      -7.283   8.258  -0.892  0.00  0.00    +0.001 A 
ATOM     11  C   UNL     1      -5.923   8.153  -1.234  0.00  0.00    +0.041 A 
ATOM     12  C   UNL     1      -5.580   6.852  -1.126  0.00  0.00    +0.106 A 
ATOM     13  C   UNL     1      -4.286   6.192  -1.372  0.00  0.00    +0.264 C 
ATOM     14  O   UNL     1      -3.267   6.830  -1.561  0.00  0.00    -0.268 OA
ATOM     15  N   UNL     1      -4.290   4.838  -1.379  0.00  0.00    -0.280 N 
ENDROOT
BRANCH   2  16
ATOM     16  C   UNL     1      -6.082   4.035  -2.779  0.00  0.00    +0.238 C 
ATOM     17  O   UNL     1      -6.658   3.045  -3.178  0.00  0.00    -0.273 OA
ATOM     18  N   UNL     1      -5.935   5.102  -3.589  0.00  0.00    -0.311 N 
ATOM     19  H   UNL     1      -5.413   6.000  -3.227  0.00  0.00    +0.149 HD
BRANCH  18  20
ATOM     20  C   UNL     1      -6.472   5.066  -4.952  0.00  0.00    +0.135 C 
BRANCH  20  21
ATOM     21  C   UNL     1      -6.172   6.393  -5.653  0.00  0.00    +0.135 C 
ATOM     22  C   UNL     1      -6.837   6.427  -7.047  0.00  0.00    +0.035 C 
ATOM     23  C   UNL     1      -5.812   7.168  -7.933  0.00  0.00    +0.031 C 
ATOM     24  C   UNL     1      -4.649   7.495  -6.970  0.00  0.00    +0.160 C 
ATOM     25  O   UNL     1      -4.757   6.515  -5.915  0.00  0.00    -0.375 OA
ENDBRANCH  20  21
ENDBRANCH  18  20
ENDBRANCH   2  16
BRANCH   7  26
ATOM     26  O   UNL     1     -11.192   7.686   0.224  0.00  0.00    -0.495 OA
ATOM     27  C   UNL     1     -12.012   8.856   0.245  0.00  0.00    +0.277 C 
ENDBRANCH   7  26
BRANCH  15  28
ATOM     28  C   UNL     1      -3.011   4.124  -1.393  0.00  0.00    +0.114 C 
BRANCH  28  29
ATOM     29  C   UNL     1      -2.553   3.868   0.044  0.00  0.00    +0.054 C 
BRANCH  29  30
ATOM     30  C   UNL     1      -1.238   3.133   0.029  0.00  0.00    -0.046 A 
ATOM     31  C   UNL     1      -1.219   1.751   0.017  0.00  0.00    +0.005 A 
ATOM     32  C   UNL     1      -0.013   1.076   0.008  0.00  0.00    +0.020 A 
ATOM     33  C   UNL     1       1.176   1.784   0.000  0.00  0.00    +0.041 A 
ATOM     34  C   UNL     1       1.156   3.167   0.007  0.00  0.00    +0.020 A 
ATOM     35  C   UNL     1      -0.050   3.841   0.022  0.00  0.00    +0.005 A 
ATOM     36 CL   UNL     1       2.691   0.937  -0.019  0.00  0.00    -0.084 Cl
ENDBRANCH  29  30
ENDBRANCH  28  29
ENDBRANCH  15  28
TORSDOF 7
