REMARK  Name = ZINC16661217
REMARK  7 active torsions:
REMARK  status: ('A' for Active; 'I' for Inactive)
REMARK    1  A    between atoms: C_1  and  C_2
REMARK    2  A    between atoms: C_2  and  C_19
REMARK    3  A    between atoms: N_3  and  N_4
REMARK    4  A    between atoms: C_5  and  C_7
REMARK    5  A    between atoms: C_7  and  S_8
REMARK    6  A    between atoms: S_8  and  C_9
REMARK    7  A    between atoms: C_23  and  N_25
REMARK                            x       y       z     vdW  Elec       q    Type
REMARK                         _______ _______ _______ _____ _____    ______ ____
ROOT
ATOM      1  N   UNL     1      -1.221   7.354   0.052  0.00  0.00    -0.206 N 
ATOM      2  C   UNL     1      -2.398   8.012   0.066  0.00  0.00    +0.242 C 
ATOM      3  O   UNL     1      -3.440   7.391   0.072  0.00  0.00    -0.273 OA
ATOM      4  H   UNL     1      -0.388   7.850   0.047  0.00  0.00    +0.177 HD
ENDROOT
BRANCH   1   7
ATOM      5  C   UNL     1       1.225   6.091   0.023  0.00  0.00    +0.068 C 
ATOM      6  C   UNL     1      -0.070   5.320   0.030  0.00  0.00    +0.063 C 
ATOM      7  N   UNL     1      -1.202   5.953   0.044  0.00  0.00    -0.185 NA
BRANCH   6   8
ATOM      8  C   UNL     1      -0.050   3.845   0.022  0.00  0.00    -0.000 A 
ATOM      9  C   UNL     1       1.167   3.160   0.007  0.00  0.00    +0.010 A 
ATOM     10  C   UNL     1       1.178   1.781   0.000  0.00  0.00    +0.003 A 
ATOM     11  C   UNL     1      -0.013   1.076   0.008  0.00  0.00    +0.033 A 
ATOM     12  C   UNL     1      -1.222   1.748   0.017  0.00  0.00    +0.127 A 
ATOM     13  C   UNL     1      -1.248   3.127   0.030  0.00  0.00    +0.042 A 
BRANCH  12  14
ATOM     14  N   UNL     1      -2.490   0.985   0.019  0.00  0.00    +0.056 N 
ATOM     15  O   UNL     1      -2.469  -0.233   0.013  0.00  0.00    -0.126 OA
ATOM     16  O   UNL     1      -3.556   1.575   0.028  0.00  0.00    -0.126 OA
ENDBRANCH  12  14
ENDBRANCH   6   8
ENDBRANCH   1   7
BRANCH   2  17
ATOM     17  C   UNL     1      -2.418   9.519   0.074  0.00  0.00    +0.174 C 
BRANCH  17  18
ATOM     18  S   UNL     1      -4.133  10.099   0.093  0.00  0.00    -0.078 S 
BRANCH  18  19
ATOM     19  C   UNL     1      -3.866  11.841   0.100  0.00  0.00    +0.168 A 
ATOM     20  N   UNL     1      -4.853  12.786   0.114  0.00  0.00    -0.333 N 
ATOM     21  H   UNL     1      -5.838  12.615   0.122  0.00  0.00    +0.168 HD
ATOM     22  C   UNL     1      -4.234  14.025   0.115  0.00  0.00    +0.067 A 
ATOM     23  C   UNL     1      -4.698  15.332   0.127  0.00  0.00    +0.028 A 
ATOM     24  C   UNL     1      -3.801  16.380   0.125  0.00  0.00    +0.002 A 
ATOM     25  C   UNL     1      -2.436  16.136   0.111  0.00  0.00    +0.002 A 
ATOM     26  C   UNL     1      -1.957  14.845   0.100  0.00  0.00    +0.030 A 
ATOM     27  C   UNL     1      -2.852  13.772   0.101  0.00  0.00    +0.090 A 
ATOM     28  N   UNL     1      -2.692  12.423   0.098  0.00  0.00    -0.222 NA
ENDBRANCH  18  19
ENDBRANCH  17  18
ENDBRANCH   2  17
TORSDOF 6
