REMARK  Name = ZINC39404633
REMARK  4 active torsions:
REMARK  status: ('A' for Active; 'I' for Inactive)
REMARK    1  A    between atoms: C_1  and  C_2
REMARK    2  A    between atoms: C_5  and  C_10
REMARK    3  A    between atoms: C_7  and  O_8
REMARK    4  A    between atoms: O_8  and  C_9
REMARK                            x       y       z     vdW  Elec       q    Type
REMARK                         _______ _______ _______ _____ _____    ______ ____
ROOT
ATOM      1  C   UNL     1       0.058  -4.277  -0.027  0.00  0.00    +0.115 C 
ATOM      2  C   UNL     1       1.443  -4.817  -0.328  0.00  0.00    +0.135 C 
ATOM      3  C   UNL     1       1.942  -4.301  -1.680  0.00  0.00    +0.071 C 
ATOM      4  C   UNL     1       3.224  -5.030  -1.952  0.00  0.00    +0.003 A 
ATOM      5  C   UNL     1       3.559  -5.562  -3.168  0.00  0.00    +0.008 A 
ATOM      6  C   UNL     1       4.778  -6.196  -3.346  0.00  0.00    +0.001 A 
ATOM      7  C   UNL     1       5.655  -6.316  -2.284  0.00  0.00    +0.004 A 
ATOM      8  C   UNL     1       5.314  -5.805  -1.049  0.00  0.00    +0.046 A 
ATOM      9  C   UNL     1       4.101  -5.157  -0.870  0.00  0.00    +0.135 A 
ATOM     10  O   UNL     1       3.781  -4.652   0.351  0.00  0.00    -0.425 OA
ATOM     11  C   UNL     1       2.488  -4.473   0.702  0.00  0.00    +0.318 C 
ATOM     12  O   UNL     1       2.190  -4.067   1.805  0.00  0.00    -0.250 OA
ATOM     13  C   UNL     1       0.898  -4.384  -2.735  0.00  0.00    -0.010 A 
ATOM     14  C   UNL     1       1.191  -4.035  -4.068  0.00  0.00    -0.012 A 
ATOM     15  C   UNL     1       2.399  -3.400  -4.407  0.00  0.00    +0.009 A 
ATOM     16  C   UNL     1       2.687  -3.143  -5.711  0.00  0.00    +0.001 A 
ATOM     17  C   UNL     1       1.786  -3.477  -6.721  0.00  0.00    +0.001 A 
ATOM     18  C   UNL     1       0.583  -4.040  -6.427  0.00  0.00    +0.008 A 
ATOM     19  C   UNL     1       0.243  -4.290  -5.088  0.00  0.00    -0.017 A 
ATOM     20  C   UNL     1      -1.033  -4.769  -4.740  0.00  0.00    +0.010 A 
ATOM     21  C   UNL     1      -1.340  -4.969  -3.432  0.00  0.00    +0.024 A 
ATOM     22  C   UNL     1      -0.401  -4.736  -2.421  0.00  0.00    +0.032 A 
ATOM     23  N   UNL     1      -0.828  -4.787  -1.088  0.00  0.00    -0.336 N 
ATOM     24  H   UNL     1      -1.696  -5.149  -0.866  0.00  0.00    +0.147 HD
ENDROOT
BRANCH   1  29
ATOM     25  C   UNL     1      -0.018   1.503   0.010  0.00  0.00    +0.047 C 
ATOM     26  C   UNL     1       0.002  -0.004   0.002  0.00  0.00    -0.009 A 
ATOM     27  C   UNL     1       0.006  -0.689  -1.198  0.00  0.00    +0.007 A 
ATOM     28  C   UNL     1       0.024  -2.071  -1.206  0.00  0.00    +0.006 A 
ATOM     29  C   UNL     1       0.039  -2.772  -0.014  0.00  0.00    -0.023 A 
ATOM     30  C   UNL     1       0.036  -2.092   1.188  0.00  0.00    +0.051 A 
ATOM     31  C   UNL     1       0.023  -0.705   1.199  0.00  0.00    +0.123 A 
BRANCH  31  32
ATOM     32  O   UNL     1       0.025  -0.033   2.381  0.00  0.00    -0.495 OA
ATOM     33  C   UNL     1       0.048  -0.820   3.574  0.00  0.00    +0.277 C 
ENDBRANCH  31  32
ENDBRANCH   1  29
TORSDOF 2
