REMARK  Name = ZINC05494765
REMARK  4 active torsions:
REMARK  status: ('A' for Active; 'I' for Inactive)
REMARK    1  A    between atoms: C_1  and  C_2
REMARK    2  A    between atoms: C_3  and  C_4
REMARK    3  A    between atoms: C_3  and  C_5
REMARK    4  A    between atoms: C_8  and  C_14
REMARK                            x       y       z     vdW  Elec       q    Type
REMARK                         _______ _______ _______ _____ _____    ______ ____
ROOT
ATOM      1  C   UNL     1       4.617   0.260   2.058  0.00  0.00    +0.251 C 
ATOM      2  O   UNL     1       5.470   0.966   2.560  0.00  0.00    -0.270 OA
ATOM      3  N   UNL     1       4.780  -0.207   0.805  0.00  0.00    -0.193 N 
ATOM      4  C   UNL     1       3.882  -1.148   0.119  0.00  0.00    +0.155 C 
ATOM      5  C   UNL     1       4.534  -1.335  -1.265  0.00  0.00    +0.261 C 
ATOM      6  O   UNL     1       5.719  -0.489  -1.214  0.00  0.00    -0.448 OA
ATOM      7  C   UNL     1       5.787   0.111  -0.020  0.00  0.00    +0.410 C 
ATOM      8  O   UNL     1       6.681   0.874   0.288  0.00  0.00    -0.226 OA
ENDROOT
BRANCH   4   9
ATOM      9  C   UNL     1       2.503  -0.557  -0.022  0.00  0.00    -0.023 A 
ATOM     10  C   UNL     1       1.389  -1.369   0.081  0.00  0.00    +0.005 A 
ATOM     11  C   UNL     1       0.124  -0.826  -0.047  0.00  0.00    +0.000 A 
ATOM     12  C   UNL     1      -0.027   0.528  -0.279  0.00  0.00    +0.000 A 
ATOM     13  C   UNL     1       1.087   1.340  -0.382  0.00  0.00    +0.000 A 
ATOM     14  C   UNL     1       2.352   0.798  -0.253  0.00  0.00    +0.005 A 
ENDBRANCH   4   9
BRANCH   1  17
ATOM     15  C   UNL     1       2.026  -1.665   4.101  0.00  0.00    +0.035 C 
ATOM     16  C   UNL     1       3.265  -1.311   3.320  0.00  0.00    -0.022 C 
ATOM     17  C   UNL     1       3.409  -0.086   2.820  0.00  0.00    +0.008 C 
ATOM     18  C   UNL     1       2.332   0.946   3.035  0.00  0.00    +0.049 C 
ENDBRANCH   1  17
TORSDOF 2
