REMARK  Name = ZINC63293998
REMARK  7 active torsions:
REMARK  status: ('A' for Active; 'I' for Inactive)
REMARK    1  A    between atoms: C_1  and  S_2
REMARK    2  A    between atoms: S_2  and  N_5
REMARK    3  A    between atoms: N_5  and  C_6
REMARK    4  A    between atoms: C_12  and  C_13
REMARK    5  A    between atoms: N_15  and  C_16
REMARK    6  A    between atoms: C_16  and  C_17
REMARK    7  A    between atoms: C_17  and  C_18
REMARK                            x       y       z     vdW  Elec       q    Type
REMARK                         _______ _______ _______ _____ _____    ______ ____
ROOT
ATOM      1  C   UNL     1       3.280  -2.942  -4.415  0.00  0.00    +0.238 C 
ATOM      2  O   UNL     1       3.322  -3.266  -3.243  0.00  0.00    -0.271 OA
ATOM      3  N   UNL     1       3.520  -3.856  -5.377  0.00  0.00    -0.311 N 
ATOM      4  H   UNL     1       3.486  -3.597  -6.311  0.00  0.00    +0.149 HD
ENDROOT
BRANCH   1  10
ATOM      5  C   UNL     1       2.499  -0.075  -1.500  0.00  0.00    +0.219 C 
ATOM      6  N   UNL     1       3.146  -0.931  -2.519  0.00  0.00    -0.322 N 
ATOM      7  C   UNL     1       2.856  -0.665  -3.810  0.00  0.00    +0.021 C 
ATOM      8  C   UNL     1       2.386   0.744  -4.133  0.00  0.00    +0.122 C 
ATOM      9  S   UNL     1       2.314   1.496  -2.450  0.00  0.00    -0.116 S 
ATOM     10  C   UNL     1       2.979  -1.606  -4.769  0.00  0.00    +0.086 C 
ATOM     11  H   UNL     1       3.749  -1.649  -2.271  0.00  0.00    +0.148 HD
BRANCH   5  12
ATOM     12  N   UNL     1       1.195  -0.613  -1.105  0.00  0.00    -0.165 NA
ATOM     13  H   UNL     1       0.693  -1.169  -1.722  0.00  0.00    +0.151 HD
BRANCH  12  15
ATOM     14  C   UNL     1       0.295   1.519   0.385  0.00  0.00    +0.214 C 
ATOM     15  S   UNL     1       0.578  -0.273   0.393  0.00  0.00    +0.029 S 
ATOM     16  O   UNL     1       1.623  -0.600   1.298  0.00  0.00    -0.158 OA
ATOM     17  O   UNL     1      -0.663  -0.964   0.440  0.00  0.00    -0.158 OA
ENDBRANCH  12  15
ENDBRANCH   5  12
ENDBRANCH   1  10
BRANCH   3  18
ATOM     18  C   UNL     1       3.831  -5.239  -5.010  0.00  0.00    +0.109 C 
BRANCH  18  19
ATOM     19  C   UNL     1       4.059  -6.064  -6.278  0.00  0.00    +0.052 C 
BRANCH  19  20
ATOM     20  C   UNL     1       4.379  -7.488  -5.901  0.00  0.00    -0.040 C 
ATOM     21  C   UNL     1       3.512  -8.523  -5.824  0.00  0.00    +0.002 A 
ATOM     22  C   UNL     1       2.067  -8.629  -6.058  0.00  0.00    +0.048 A 
ATOM     23  C   UNL     1       1.462  -9.830  -5.896  0.00  0.00    +0.124 A 
ATOM     24  C   UNL     1       2.182 -10.972  -5.511  0.00  0.00    +0.040 A 
ATOM     25  C   UNL     1       3.511 -10.951  -5.277  0.00  0.00    +0.029 A 
ATOM     26  C   UNL     1       4.247  -9.742  -5.418  0.00  0.00    +0.043 A 
ATOM     27  N   UNL     1       5.519  -9.471  -5.252  0.00  0.00    -0.380 N 
ATOM     28  C   UNL     1       5.736  -8.049  -5.539  0.00  0.00    +0.144 C 
ATOM     29  F   UNL     1       0.132  -9.931  -6.110  0.00  0.00    -0.205 F 
ATOM     30  H   UNL     1       6.203 -10.106  -4.986  0.00  0.00    +0.160 HD
ENDBRANCH  19  20
ENDBRANCH  18  19
ENDBRANCH   3  18
TORSDOF 6
