REMARK  Name = ZINC37132645
REMARK  7 active torsions:
REMARK  status: ('A' for Active; 'I' for Inactive)
REMARK    1  A    between atoms: C_1  and  N_2
REMARK    2  A    between atoms: N_2  and  C_3
REMARK    3  A    between atoms: N_2  and  C_14
REMARK    4  A    between atoms: C_3  and  C_4
REMARK    5  A    between atoms: C_6  and  N_11
REMARK    6  A    between atoms: C_14  and  C_15
REMARK    7  A    between atoms: C_20  and  C_23
REMARK                            x       y       z     vdW  Elec       q    Type
REMARK                         _______ _______ _______ _____ _____    ______ ____
ROOT
ATOM      1  C   UNL     1      -1.363  -0.610   0.137  0.00  0.00    +0.019 C 
ENDROOT
BRANCH   1   2
ATOM      2  C   UNL     1      -1.882  -0.418   1.538  0.00  0.00    +0.199 C 
ATOM      3  O   UNL     1      -1.155   0.030   2.398  0.00  0.00    -0.278 OA
ATOM      4  N   UNL     1      -3.155  -0.745   1.836  0.00  0.00    -0.299 N 
ATOM      5  C   UNL     1      -3.695  -0.565   3.195  0.00  0.00    +0.112 C 
ATOM      6  C   UNL     1      -4.845   0.443   3.115  0.00  0.00    +0.054 C 
ATOM      7  C   UNL     1      -5.747   0.118   1.962  0.00  0.00    -0.041 C 
ATOM      8  C   UNL     1      -5.407  -0.639   0.947  0.00  0.00    -0.004 C 
ATOM      9  C   UNL     1      -4.063  -1.291   0.816  0.00  0.00    +0.135 C 
BRANCH   7  10
ATOM     10  C   UNL     1      -7.111   0.688   1.971  0.00  0.00    -0.022 A 
ATOM     11  C   UNL     1      -7.293   2.068   1.880  0.00  0.00    +0.008 A 
ATOM     12  C   UNL     1      -8.569   2.595   1.888  0.00  0.00    +0.001 A 
ATOM     13  C   UNL     1      -9.665   1.757   1.987  0.00  0.00    +0.000 A 
ATOM     14  C   UNL     1      -9.491   0.387   2.077  0.00  0.00    +0.001 A 
ATOM     15  C   UNL     1      -8.221  -0.152   2.064  0.00  0.00    +0.008 A 
ENDBRANCH   7  10
ENDBRANCH   1   2
BRANCH   1  17
ATOM     16  C   UNL     1       0.124   1.263   0.323  0.00  0.00    -0.095 C 
ATOM     17  N   UNL     1       0.041  -0.182   0.071  0.00  0.00    +0.386 N 
ATOM     18  H   UNL     1       0.576  -0.676   0.770  0.00  0.00    -0.081 HD
BRANCH  17  19
ATOM     19  C   UNL     1       0.582  -0.479  -1.261  0.00  0.00    -0.041 C 
BRANCH  19  20
ATOM     20  C   UNL     1       2.056  -0.168  -1.286  0.00  0.00    -0.043 A 
ATOM     21  C   UNL     1       2.509   0.987  -1.894  0.00  0.00    +0.036 A 
ATOM     22  C   UNL     1       3.862   1.272  -1.917  0.00  0.00    +0.126 A 
ATOM     23  C   UNL     1       4.762   0.402  -1.331  0.00  0.00    +0.034 A 
ATOM     24  C   UNL     1       4.310  -0.753  -0.722  0.00  0.00    +0.022 A 
ATOM     25  C   UNL     1       2.956  -1.036  -0.694  0.00  0.00    +0.042 A 
ATOM     26 CL   UNL     1       2.387  -2.484   0.078  0.00  0.00    -0.083 Cl
BRANCH  22  27
ATOM     27  N   UNL     1       4.346   2.510  -2.569  0.00  0.00    +0.056 N 
ATOM     28  O   UNL     1       3.559   3.271  -3.082  0.00  0.00    -0.126 OA
ATOM     29  O   UNL     1       5.529   2.759  -2.589  0.00  0.00    -0.126 OA
ENDBRANCH  22  27
ENDBRANCH  19  20
ENDBRANCH  17  19
ENDBRANCH   1  17
TORSDOF 6
