REMARK  Name = ZINC05001583
REMARK  10 active torsions:
REMARK  status: ('A' for Active; 'I' for Inactive)
REMARK    1  A    between atoms: C_1  and  C_2
REMARK    2  A    between atoms: C_7  and  C_33
REMARK    3  A    between atoms: C_10  and  C_12
REMARK    4  A    between atoms: C_12  and  N_13
REMARK    5  A    between atoms: C_17  and  C_19
REMARK    6  A    between atoms: C_22  and  S_25
REMARK    7  A    between atoms: N_23  and  C_24
REMARK    8  A    between atoms: S_25  and  C_26
REMARK    9  A    between atoms: C_26  and  C_27
REMARK   10  A    between atoms: C_27  and  N_28
REMARK                            x       y       z     vdW  Elec       q    Type
REMARK                         _______ _______ _______ _____ _____    ______ ____
ROOT
ATOM      1  N   UNL     1       2.385   1.034   4.299  0.00  0.00    +0.392 N 
ATOM      2  C   UNL     1       1.262   1.542   5.115  0.00  0.00    -0.077 C 
ATOM      3  C   UNL     1       1.402   0.818   6.477  0.00  0.00    -0.020 C 
ATOM      4  C   UNL     1       2.943   0.771   6.649  0.00  0.00    -0.009 C 
ATOM      5  C   UNL     1       3.448   0.563   5.206  0.00  0.00    +0.002 C 
ATOM      6  H   UNL     1       2.741   1.775   3.715  0.00  0.00    -0.080 HD
ENDROOT
BRANCH   5   7
ATOM      7  C   UNL     1       4.705   1.364   4.982  0.00  0.00    +0.120 A 
ATOM      8  N   UNL     1       4.784   2.659   4.860  0.00  0.00    -0.135 NA
ATOM      9  N   UNL     1       6.006   3.012   4.680  0.00  0.00    -0.123 NA
ATOM     10  C   UNL     1       6.780   1.952   4.677  0.00  0.00    +0.191 A 
ATOM     11  N   UNL     1       5.974   0.867   4.875  0.00  0.00    -0.310 N 
ATOM     12  C   UNL     1       6.384  -0.537   4.953  0.00  0.00    +0.152 C 
BRANCH  10  13
ATOM     13  S   UNL     1       8.529   1.932   4.465  0.00  0.00    -0.088 S 
BRANCH  13  14
ATOM     14  C   UNL     1       8.966   3.681   4.261  0.00  0.00    +0.059 C 
BRANCH  14  15
ATOM     15  C   UNL     1      10.478   3.809   4.064  0.00  0.00    -0.068 C 
BRANCH  15  16
ATOM     16  N   UNL     1      10.832   5.226   3.899  0.00  0.00    +0.380 N 
ATOM     17  C   UNL     1      10.623   5.958   5.175  0.00  0.00    -0.079 C 
ATOM     18  C   UNL     1      11.530   7.204   5.020  0.00  0.00    -0.020 C 
ATOM     19  C   UNL     1      12.766   6.643   4.280  0.00  0.00    -0.020 C 
ATOM     20  C   UNL     1      12.272   5.359   3.589  0.00  0.00    -0.079 C 
ATOM     21  H   UNL     1      10.278   5.640   3.164  0.00  0.00    -0.082 HD
ENDBRANCH  15  16
ENDBRANCH  14  15
ENDBRANCH  13  14
ENDBRANCH  10  13
ENDBRANCH   5   7
BRANCH   1  22
ATOM     22  C   UNL     1       1.922  -0.080   3.460  0.00  0.00    +0.020 C 
BRANCH  22  30
ATOM     23  C   UNL     1      -0.340   1.748   0.480  0.00  0.00    +0.028 C 
ATOM     24  C   UNL     1      -0.031   0.276   0.204  0.00  0.00    +0.073 C 
ATOM     25  C   UNL     1      -1.331  -0.472  -0.111  0.00  0.00    +0.022 C 
ATOM     26  C   UNL     1      -1.034  -1.967  -0.249  0.00  0.00    +0.004 C 
ATOM     27  C   UNL     1      -0.478  -2.502   1.072  0.00  0.00    +0.022 C 
ATOM     28  C   UNL     1       0.831  -1.778   1.401  0.00  0.00    +0.073 C 
ATOM     29  N   UNL     1       0.589  -0.329   1.392  0.00  0.00    -0.297 N 
ATOM     30  C   UNL     1       0.925   0.431   2.453  0.00  0.00    +0.199 C 
ATOM     31  O   UNL     1       0.424   1.527   2.597  0.00  0.00    -0.278 OA
ATOM     32  C   UNL     1       1.322  -2.210   2.785  0.00  0.00    +0.028 C 
ENDBRANCH  22  30
ENDBRANCH   1  22
TORSDOF 7
