REMARK  Name = ZINC03216265
REMARK  8 active torsions:
REMARK  status: ('A' for Active; 'I' for Inactive)
REMARK    1  A    between atoms: C_1  and  C_2
REMARK    2  A    between atoms: C_2  and  O_3
REMARK    3  A    between atoms: O_3  and  C_4
REMARK    4  A    between atoms: C_4  and  C_6
REMARK    5  A    between atoms: C_7  and  C_31
REMARK    6  A    between atoms: C_14  and  C_29
REMARK    7  A    between atoms: C_14  and  C_30
REMARK    8  A    between atoms: C_20  and  C_22
REMARK                            x       y       z     vdW  Elec       q    Type
REMARK                         _______ _______ _______ _____ _____    ______ ____
ROOT
ATOM      1  C   UNL     1       3.887   1.280   3.518  0.00  0.00    +0.101 A 
ATOM      2  C   UNL     1       3.091   0.859   2.463  0.00  0.00    -0.024 A 
ATOM      3  C   UNL     1       3.300   1.421   1.221  0.00  0.00    -0.007 A 
ATOM      4  C   UNL     1       4.309   2.373   1.139  0.00  0.00    +0.074 A 
ATOM      5  S   UNL     1       4.943   2.486   2.732  0.00  0.00    -0.066 S 
ATOM      6  N   UNL     1       4.679   3.049  -0.004  0.00  0.00    -0.312 N 
ATOM      7  C   UNL     1       3.835   2.830  -1.113  0.00  0.00    +0.016 C 
ATOM      8  C   UNL     1       3.580   3.819  -1.924  0.00  0.00    -0.001 C 
ATOM      9  C   UNL     1       2.709   3.707  -3.142  0.00  0.00    -0.008 C 
ATOM     10  C   UNL     1       1.652   2.619  -2.917  0.00  0.00    +0.085 C 
ATOM     11  C   UNL     1       2.371   1.366  -2.470  0.00  0.00    +0.144 C 
ATOM     12  O   UNL     1       2.219   0.326  -3.064  0.00  0.00    -0.297 OA
ATOM     13  C   UNL     1       3.279   1.437  -1.271  0.00  0.00    +0.111 C 
ATOM     14  C   UNL     1       2.490   1.047  -0.017  0.00  0.00    +0.067 C 
ATOM     15  C   UNL     1       2.015   5.047  -3.397  0.00  0.00    +0.016 C 
ATOM     16  C   UNL     1       3.570   3.340  -4.352  0.00  0.00    +0.016 C 
ATOM     17  C   UNL     1       2.024  -0.185   2.669  0.00  0.00    +0.045 C 
ATOM     18  H   UNL     1       5.457   3.628  -0.042  0.00  0.00    +0.152 HD
ENDROOT
BRANCH  14  19
ATOM     19  C   UNL     1       1.175   1.783   0.000  0.00  0.00    -0.039 A 
ATOM     20  C   UNL     1      -0.013   1.076   0.008  0.00  0.00    +0.006 A 
ATOM     21  C   UNL     1      -1.219   1.750   0.017  0.00  0.00    +0.020 A 
ATOM     22  C   UNL     1      -1.237   3.134   0.031  0.00  0.00    +0.041 A 
ATOM     23  C   UNL     1      -0.048   3.841   0.023  0.00  0.00    +0.020 A 
ATOM     24  C   UNL     1       1.157   3.165   0.008  0.00  0.00    +0.006 A 
ATOM     25 CL   UNL     1      -2.752   3.982   0.050  0.00  0.00    -0.084 Cl
ENDBRANCH  14  19
BRANCH   1  26
ATOM     26  C   UNL     1       3.867   0.861   4.870  0.00  0.00    +0.346 C 
ATOM     27  O   UNL     1       3.069   0.017   5.234  0.00  0.00    -0.244 OA
BRANCH  26  28
ATOM     28  O   UNL     1       4.733   1.397   5.755  0.00  0.00    -0.461 OA
BRANCH  28  30
ATOM     29  C   UNL     1       5.707   1.645   7.953  0.00  0.00    +0.048 C 
ATOM     30  C   UNL     1       4.657   0.928   7.103  0.00  0.00    +0.229 C 
ENDBRANCH  28  30
ENDBRANCH  26  28
ENDBRANCH   1  26
TORSDOF 4
