REMARK  Name = ZINC38517777
REMARK  9 active torsions:
REMARK  status: ('A' for Active; 'I' for Inactive)
REMARK    1  A    between atoms: C_1  and  N_2
REMARK    2  A    between atoms: C_9  and  C_11
REMARK    3  A    between atoms: C_11  and  C_13
REMARK    4  A    between atoms: C_11  and  N_26
REMARK    5  A    between atoms: C_13  and  N_14
REMARK    6  A    between atoms: N_17  and  C_18
REMARK    7  A    between atoms: C_18  and  C_19
REMARK    8  A    between atoms: N_26  and  C_27
REMARK    9  A    between atoms: N_26  and  C_28
REMARK                            x       y       z     vdW  Elec       q    Type
REMARK                         _______ _______ _______ _____ _____    ______ ____
ROOT
ATOM      1  C   UNL     1       0.122  -3.794   4.205  0.00  0.00    -0.021 C 
ENDROOT
BRANCH   1  10
ATOM      2  C   UNL     1      -0.315   2.004   0.813  0.00  0.00    +0.129 C 
ATOM      3  N   UNL     1      -0.185   0.562   0.590  0.00  0.00    -0.332 N 
ATOM      4  C   UNL     1      -0.096  -0.080  -0.724  0.00  0.00    +0.109 C 
ATOM      5  C   UNL     1       0.027  -1.584  -0.430  0.00  0.00    +0.056 C 
ATOM      6  C   UNL     1      -0.003  -1.680   1.079  0.00  0.00    -0.025 A 
ATOM      7  C   UNL     1      -0.121  -0.401   1.599  0.00  0.00    +0.033 A 
ATOM      8  C   UNL     1      -0.165  -0.234   2.985  0.00  0.00    +0.023 A 
ATOM      9  C   UNL     1      -0.086  -1.329   3.819  0.00  0.00    +0.004 A 
ATOM     10  C   UNL     1       0.036  -2.600   3.290  0.00  0.00    -0.059 A 
ATOM     11  C   UNL     1       0.070  -2.774   1.919  0.00  0.00    +0.007 A 
ENDBRANCH   1  10
BRANCH   1  12
ATOM     12  N   UNL     1       0.964  -3.464   5.363  0.00  0.00    +0.382 N 
ATOM     13  C   UNL     1       1.062  -4.634   6.246  0.00  0.00    -0.096 C 
ATOM     14  C   UNL     1       2.306  -3.085   4.901  0.00  0.00    -0.096 C 
ATOM     15  H   UNL     1       0.553  -2.694   5.869  0.00  0.00    -0.082 HD
ENDBRANCH   1  12
BRANCH   1  16
ATOM     16  C   UNL     1      -1.281  -4.171   4.686  0.00  0.00    +0.095 C 
BRANCH  16  17
ATOM     17  N   UNL     1      -2.084  -4.616   3.545  0.00  0.00    -0.301 N 
ATOM     18  C   UNL     1      -3.392  -4.898   3.710  0.00  0.00    +0.300 C 
ATOM     19  O   UNL     1      -3.904  -4.783   4.807  0.00  0.00    -0.253 OA
ATOM     20  N   UNL     1      -4.131  -5.308   2.660  0.00  0.00    -0.295 N 
ATOM     21  H   UNL     1      -1.676  -4.708   2.670  0.00  0.00    +0.150 HD
ATOM     22  H   UNL     1      -3.723  -5.399   1.786  0.00  0.00    +0.151 HD
BRANCH  20  23
ATOM     23  C   UNL     1      -5.553  -5.614   2.841  0.00  0.00    +0.141 C 
BRANCH  23  24
ATOM     24  C   UNL     1      -6.144  -6.046   1.524  0.00  0.00    -0.030 A 
ATOM     25  C   UNL     1      -6.688  -5.105   0.669  0.00  0.00    +0.006 A 
ATOM     26  C   UNL     1      -7.230  -5.501  -0.539  0.00  0.00    +0.020 A 
ATOM     27  C   UNL     1      -7.230  -6.838  -0.893  0.00  0.00    +0.041 A 
ATOM     28  C   UNL     1      -6.686  -7.779  -0.037  0.00  0.00    +0.020 A 
ATOM     29  C   UNL     1      -6.138  -7.382   1.169  0.00  0.00    +0.006 A 
ATOM     30 CL   UNL     1      -7.912  -7.336  -2.410  0.00  0.00    -0.084 Cl
ENDBRANCH  23  24
ENDBRANCH  20  23
ENDBRANCH  16  17
ENDBRANCH   1  16
TORSDOF 6
