REMARK  Name = ZINC05162482
REMARK  6 active torsions:
REMARK  status: ('A' for Active; 'I' for Inactive)
REMARK    1  A    between atoms: C_1  and  O_2
REMARK    2  A    between atoms: O_2  and  C_3
REMARK    3  A    between atoms: C_3  and  C_5
REMARK    4  A    between atoms: C_5  and  C_6
REMARK    5  A    between atoms: C_13  and  N_27
REMARK    6  A    between atoms: C_14  and  C_25
REMARK                            x       y       z     vdW  Elec       q    Type
REMARK                         _______ _______ _______ _____ _____    ______ ____
ROOT
ATOM      1  C   UNL     1       1.419  -2.539   2.331  0.00  0.00    +0.082 A 
ATOM      2  C   UNL     1       2.787  -2.747   2.433  0.00  0.00    +0.062 A 
ATOM      3  C   UNL     1       3.064  -3.121   3.720  0.00  0.00    +0.223 A 
ATOM      4  N   UNL     1       1.903  -3.144   4.393  0.00  0.00    -0.246 N 
ATOM      5  H   UNL     1       1.790  -3.375   5.329  0.00  0.00    +0.192 HD
ATOM      6  N   UNL     1       0.882  -2.771   3.505  0.00  0.00    -0.175 NA
ATOM      7  O   UNL     1       4.322  -3.397   4.146  0.00  0.00    -0.423 OA
ATOM      8  C   UNL     1       5.351  -3.044   3.349  0.00  0.00    +0.201 C 
ATOM      9  C   UNL     1       5.205  -2.669   2.056  0.00  0.00    +0.110 C 
ATOM     10  C   UNL     1       3.859  -2.616   1.387  0.00  0.00    +0.145 C 
ATOM     11  C   UNL     1       3.729  -3.676   0.340  0.00  0.00    -0.002 A 
ATOM     12  C   UNL     1       3.788  -5.051   0.417  0.00  0.00    +0.007 A 
ATOM     13  C   UNL     1       3.622  -5.757  -0.769  0.00  0.00    +0.000 A 
ATOM     14  C   UNL     1       3.410  -5.107  -1.968  0.00  0.00    +0.002 A 
ATOM     15  C   UNL     1       3.351  -3.725  -2.054  0.00  0.00    +0.023 A 
ATOM     16  C   UNL     1       3.515  -3.004  -0.870  0.00  0.00    +0.038 A 
ATOM     17  N   UNL     1       3.504  -1.636  -0.666  0.00  0.00    -0.284 N 
ATOM     18  C   UNL     1       3.700  -1.316   0.631  0.00  0.00    +0.238 C 
ATOM     19  O   UNL     1       3.740  -0.199   1.101  0.00  0.00    -0.274 OA
ATOM     20  H   UNL     1       3.371  -0.983  -1.371  0.00  0.00    +0.155 HD
ENDROOT
BRANCH   8  21
ATOM     21  N   UNL     1       6.617  -3.065   3.878  0.00  0.00    -0.328 N 
ATOM     22  H   UNL     1       6.752  -3.329   4.802  0.00  0.00    +0.145 HD
ATOM     23  H   UNL     1       7.377  -2.816   3.329  0.00  0.00    +0.145 HD
ENDBRANCH   8  21
BRANCH   9  24
ATOM     24  C   UNL     1       6.369  -2.312   1.302  0.00  0.00    +0.102 C 
ATOM     25  N   UNL     1       7.292  -2.028   0.704  0.00  0.00    -0.191 NA
ENDBRANCH   9  24
BRANCH   1  26
ATOM     26  C   UNL     1       0.679  -2.115   1.088  0.00  0.00    +0.178 C 
BRANCH  26  27
ATOM     27  C   UNL     1       0.618  -0.611   1.029  0.00  0.00    +0.313 C 
ATOM     28  O   UNL     1       1.124   0.049   1.905  0.00  0.00    -0.250 OA
BRANCH  27  30
ATOM     29  C   UNL     1      -0.017   1.425   0.010  0.00  0.00    +0.280 C 
ATOM     30  O   UNL     1       0.002  -0.004   0.002  0.00  0.00    -0.468 OA
ENDBRANCH  27  30
ENDBRANCH  26  27
ENDBRANCH   1  26
TORSDOF 5
