REMARK  Name = ZINC39938722
REMARK  9 active torsions:
REMARK  status: ('A' for Active; 'I' for Inactive)
REMARK    1  A    between atoms: C_1  and  C_2
REMARK    2  A    between atoms: C_4  and  C_38
REMARK    3  A    between atoms: C_5  and  C_36
REMARK    4  A    between atoms: C_6  and  N_15
REMARK    5  A    between atoms: N_8  and  C_9
REMARK    6  A    between atoms: C_9  and  C_10
REMARK    7  A    between atoms: C_16  and  C_18
REMARK    8  A    between atoms: C_18  and  N_19
REMARK    9  A    between atoms: C_22  and  N_25
REMARK                            x       y       z     vdW  Elec       q    Type
REMARK                         _______ _______ _______ _____ _____    ______ ____
ROOT
ATOM      1  N   UNL     1       2.757  -1.857   1.352  0.00  0.00    -0.297 N 
ATOM      2  C   UNL     1       3.775  -1.679   2.217  0.00  0.00    +0.198 C 
ATOM      3  O   UNL     1       4.244  -0.573   2.382  0.00  0.00    -0.278 OA
ATOM      4  H   UNL     1       2.431  -2.751   1.164  0.00  0.00    +0.150 HD
ENDROOT
BRANCH   1   9
ATOM      5  C   UNL     1       0.095   1.568   0.004  0.00  0.00    +0.029 C 
ATOM      6  C   UNL     1       0.037   0.040   0.065  0.00  0.00    +0.083 C 
ATOM      7  C   UNL     1       0.731  -0.558  -1.137  0.00  0.00    -0.039 C 
ATOM      8  C   UNL     1       1.940  -0.983  -0.777  0.00  0.00    +0.065 C 
ATOM      9  C   UNL     1       2.145  -0.700   0.694  0.00  0.00    +0.186 C 
ATOM     10  N   UNL     1       0.788  -0.454   1.243  0.00  0.00    -0.269 NA
ATOM     11  C   UNL     1       0.147  -0.658  -2.523  0.00  0.00    +0.042 C 
BRANCH   8  12
ATOM     12  C   UNL     1       2.893  -1.607  -1.643  0.00  0.00    +0.098 C 
ATOM     13  N   UNL     1       3.649  -2.103  -2.331  0.00  0.00    -0.191 NA
ENDBRANCH   8  12
BRANCH  10  14
ATOM     14  C   UNL     1       0.825   0.558   2.307  0.00  0.00    +0.129 C 
BRANCH  14  15
ATOM     15  C   UNL     1      -0.510   0.600   3.006  0.00  0.00    +0.004 A 
ATOM     16  C   UNL     1      -0.901  -0.036   4.137  0.00  0.00    +0.012 A 
ATOM     17  C   UNL     1      -2.189   0.153   4.601  0.00  0.00    +0.008 A 
ATOM     18  C   UNL     1      -3.023   0.969   3.911  0.00  0.00    +0.045 A 
ATOM     19  S   UNL     1      -1.983   1.506   2.564  0.00  0.00    -0.100 S 
ENDBRANCH  14  15
ENDBRANCH  10  14
ENDBRANCH   1   9
BRANCH   2  20
ATOM     20  C   UNL     1       4.331  -2.855   2.979  0.00  0.00    +0.019 C 
BRANCH  20  21
ATOM     21  N   UNL     1       5.424  -2.402   3.849  0.00  0.00    +0.386 N 
ATOM     22  C   UNL     1       6.532  -1.906   3.023  0.00  0.00    -0.076 C 
ATOM     23  C   UNL     1       7.640  -1.358   3.924  0.00  0.00    +0.006 C 
ATOM     24  C   UNL     1       8.146  -2.477   4.839  0.00  0.00    +0.089 C 
ATOM     25  C   UNL     1       6.968  -3.038   5.642  0.00  0.00    +0.006 C 
ATOM     26  C   UNL     1       5.885  -3.523   4.677  0.00  0.00    -0.076 C 
ATOM     27  H   UNL     1       5.093  -1.659   4.445  0.00  0.00    -0.081 HD
BRANCH  24  28
ATOM     28  N   UNL     1       9.154  -1.941   5.757  0.00  0.00    -0.289 N 
ATOM     29  C   UNL     1      10.478  -2.363   5.849  0.00  0.00    +0.070 A 
ATOM     30  C   UNL     1      11.219  -3.326   5.181  0.00  0.00    +0.028 A 
ATOM     31  C   UNL     1      12.548  -3.517   5.504  0.00  0.00    +0.002 A 
ATOM     32  C   UNL     1      13.144  -2.751   6.491  0.00  0.00    +0.002 A 
ATOM     33  C   UNL     1      12.414  -1.790   7.162  0.00  0.00    +0.028 A 
ATOM     34  C   UNL     1      11.079  -1.590   6.845  0.00  0.00    +0.067 A 
ATOM     35  N   UNL     1      10.101  -0.723   7.327  0.00  0.00    -0.306 N 
ATOM     36  H   UNL     1      10.223  -0.063   8.027  0.00  0.00    +0.170 HD
ATOM     37  C   UNL     1       8.960  -0.954   6.652  0.00  0.00    +0.328 A 
ATOM     38  O   UNL     1       7.911  -0.362   6.825  0.00  0.00    -0.247 OA
ENDBRANCH  24  28
ENDBRANCH  20  21
ENDBRANCH   2  20
TORSDOF 7
