REMARK  Name = ZINC20884900
REMARK  9 active torsions:
REMARK  status: ('A' for Active; 'I' for Inactive)
REMARK    1  A    between atoms: C_1  and  C_2
REMARK    2  A    between atoms: C_2  and  C_3
REMARK    3  A    between atoms: C_2  and  C_4
REMARK    4  A    between atoms: C_2  and  C_5
REMARK    5  A    between atoms: C_8  and  C_11
REMARK    6  A    between atoms: C_16  and  C_26
REMARK    7  A    between atoms: C_29  and  O_34
REMARK    8  A    between atoms: C_30  and  O_32
REMARK    9  A    between atoms: O_32  and  C_33
REMARK                            x       y       z     vdW  Elec       q    Type
REMARK                         _______ _______ _______ _____ _____    ______ ____
ROOT
ATOM      1  C   UNL     1       2.968   4.253   4.255  0.00  0.00    +0.032 C 
ATOM      2  C   UNL     1       4.250   3.926   3.493  0.00  0.00    +0.059 C 
ATOM      3  C   UNL     1       3.924   3.587   2.049  0.00  0.00    +0.017 C 
ATOM      4  C   UNL     1       2.882   4.168   1.429  0.00  0.00    +0.036 C 
ATOM      5  C   UNL     1       2.458   3.932  -0.000  0.00  0.00    +0.136 C 
ATOM      6  N   UNL     1       3.416   3.201  -0.801  0.00  0.00    -0.331 N 
ATOM      7  C   UNL     1       3.737   1.877  -0.504  0.00  0.00    +0.049 A 
ATOM      8  C   UNL     1       3.433   0.845  -1.377  0.00  0.00    +0.025 A 
ATOM      9  C   UNL     1       3.729  -0.459  -1.017  0.00  0.00    +0.002 A 
ATOM     10  C   UNL     1       4.319  -0.732   0.204  0.00  0.00    +0.002 A 
ATOM     11  C   UNL     1       4.640   0.300   1.070  0.00  0.00    +0.025 A 
ATOM     12  C   UNL     1       4.366   1.605   0.702  0.00  0.00    +0.052 A 
ATOM     13  N   UNL     1       4.765   2.693   1.469  0.00  0.00    -0.316 N 
ATOM     14  C   UNL     1       2.066   5.092   2.124  0.00  0.00    +0.163 C 
ATOM     15  O   UNL     1       1.141   5.617   1.535  0.00  0.00    -0.292 OA
ATOM     16  C   UNL     1       2.303   5.448   3.561  0.00  0.00    +0.088 C 
ATOM     17  H   UNL     1       3.904   3.689  -1.658  0.00  0.00    +0.147 HD
ATOM     18  H   UNL     1       5.853   2.802   1.591  0.00  0.00    +0.152 HD
ENDROOT
BRANCH   1  22
ATOM     19  C   UNL     1       3.905   5.265   8.298  0.00  0.00    -0.042 A 
ATOM     20  C   UNL     1       3.079   4.190   8.029  0.00  0.00    +0.004 A 
ATOM     21  C   UNL     1       2.776   3.862   6.720  0.00  0.00    +0.004 A 
ATOM     22  C   UNL     1       3.298   4.610   5.682  0.00  0.00    -0.043 A 
ATOM     23  C   UNL     1       4.129   5.682   5.951  0.00  0.00    +0.004 A 
ATOM     24  C   UNL     1       4.428   6.012   7.260  0.00  0.00    +0.004 A 
BRANCH  19  26
ATOM     25  C   UNL     1       4.935   4.441  10.398  0.00  0.00    +0.015 C 
ATOM     26  C   UNL     1       4.235   5.623   9.725  0.00  0.00    -0.013 C 
ATOM     27  C   UNL     1       5.160   6.842   9.744  0.00  0.00    +0.015 C 
ATOM     28  C   UNL     1       2.945   5.949  10.480  0.00  0.00    +0.015 C 
ENDBRANCH  19  26
ENDBRANCH   1  22
BRANCH   5  29
ATOM     29  C   UNL     1       1.160   3.166   0.008  0.00  0.00    -0.019 A 
ATOM     30  C   UNL     1       1.123   1.877   0.508  0.00  0.00    +0.009 A 
ATOM     31  C   UNL     1      -0.065   1.170   0.518  0.00  0.00    +0.049 A 
ATOM     32  C   UNL     1      -1.221   1.751   0.021  0.00  0.00    +0.158 A 
ATOM     33  C   UNL     1      -1.185   3.049  -0.478  0.00  0.00    +0.162 A 
ATOM     34  C   UNL     1       0.009   3.752  -0.485  0.00  0.00    +0.055 A 
BRANCH  33  35
ATOM     35  O   UNL     1      -2.317   3.625  -0.963  0.00  0.00    -0.491 OA
ATOM     36  C   UNL     1      -2.204   4.958  -1.464  0.00  0.00    +0.277 C 
ENDBRANCH  33  35
BRANCH  32  37
ATOM     37  O   UNL     1      -2.389   1.054   0.024  0.00  0.00    -0.503 OA
ATOM     38  H   UNL     1      -3.306   1.516  -0.371  0.00  0.00    +0.292 HD
ENDBRANCH  32  37
ENDBRANCH   5  29
TORSDOF 5
