REMARK  Name = ZINC01066339
REMARK  8 active torsions:
REMARK  status: ('A' for Active; 'I' for Inactive)
REMARK    1  A    between atoms: C_1  and  N_2
REMARK    2  A    between atoms: N_2  and  C_3
REMARK    3  A    between atoms: N_6  and  C_7
REMARK    4  A    between atoms: C_7  and  C_8
REMARK    5  A    between atoms: C_7  and  C_12
REMARK    6  A    between atoms: C_7  and  N_16
REMARK    7  A    between atoms: N_16  and  C_17
REMARK    8  A    between atoms: C_18  and  C_26
REMARK                            x       y       z     vdW  Elec       q    Type
REMARK                         _______ _______ _______ _____ _____    ______ ____
ROOT
ATOM      1  C   UNL     1      -2.117   7.377  -3.006  0.00  0.00    +0.294 C 
ENDROOT
BRANCH   1   7
ATOM      2  C   UNL     1      -6.108   4.586  -3.149  0.00  0.00    +0.133 C 
ATOM      3  N   UNL     1      -4.771   4.917  -3.647  0.00  0.00    -0.292 N 
ATOM      4  C   UNL     1      -4.171   4.118  -4.719  0.00  0.00    +0.133 C 
ATOM      5  C   UNL     1      -4.093   5.955  -3.121  0.00  0.00    +0.304 C 
ATOM      6  O   UNL     1      -4.551   6.563  -2.173  0.00  0.00    -0.253 OA
ATOM      7  N   UNL     1      -2.906   6.321  -3.645  0.00  0.00    -0.264 N 
ATOM      8  H   UNL     1      -2.574   5.885  -4.446  0.00  0.00    +0.153 HD
ENDBRANCH   1   7
BRANCH   1   9
ATOM      9  C   UNL     1      -2.748   8.738  -3.307  0.00  0.00    +0.436 C 
ATOM     10  F   UNL     1      -1.929   9.754  -2.803  0.00  0.00    -0.166 F 
ATOM     11  F   UNL     1      -2.886   8.893  -4.691  0.00  0.00    -0.166 F 
ATOM     12  F   UNL     1      -4.008   8.811  -2.702  0.00  0.00    -0.166 F 
ENDBRANCH   1   9
BRANCH   1  13
ATOM     13  C   UNL     1      -0.688   7.346  -3.551  0.00  0.00    +0.436 C 
ATOM     14  F   UNL     1      -0.079   6.138  -3.196  0.00  0.00    -0.166 F 
ATOM     15  F   UNL     1      -0.718   7.461  -4.945  0.00  0.00    -0.166 F 
ATOM     16  F   UNL     1       0.040   8.412  -3.011  0.00  0.00    -0.166 F 
ENDBRANCH   1  13
BRANCH   1  17
ATOM     17  N   UNL     1      -2.092   7.160  -1.558  0.00  0.00    -0.303 N 
ATOM     18  H   UNL     1      -2.242   7.903  -0.953  0.00  0.00    +0.149 HD
BRANCH  17  19
ATOM     19  C   UNL     1      -1.856   5.895  -1.053  0.00  0.00    +0.080 A 
ATOM     20  C   UNL     1      -1.680   5.513   0.271  0.00  0.00    +0.068 A 
ATOM     21  C   UNL     1      -1.444   4.103   0.537  0.00  0.00    -0.023 A 
ATOM     22  C   UNL     1      -1.421   3.308  -0.554  0.00  0.00    -0.005 A 
ATOM     23  S   UNL     1      -1.708   4.401  -1.917  0.00  0.00    -0.078 S 
ATOM     24  C   UNL     1      -1.201   1.827  -0.588  0.00  0.00    +0.043 C 
ATOM     25  C   UNL     1      -0.630   1.392   0.769  0.00  0.00    +0.005 C 
ATOM     26  C   UNL     1      -1.472   2.018   1.885  0.00  0.00    +0.005 C 
ATOM     27  C   UNL     1      -1.234   3.527   1.932  0.00  0.00    +0.037 C 
BRANCH  20  28
ATOM     28  C   UNL     1      -1.731   6.493   1.358  0.00  0.00    +0.244 C 
ATOM     29  O   UNL     1      -2.791   6.744   1.902  0.00  0.00    -0.270 OA
ATOM     30  N   UNL     1      -0.604   7.117   1.756  0.00  0.00    -0.325 N 
ATOM     31  H   UNL     1       0.240   6.917   1.322  0.00  0.00    +0.145 HD
ATOM     32  H   UNL     1      -0.638   7.766   2.476  0.00  0.00    +0.145 HD
ENDBRANCH  20  28
ENDBRANCH  17  19
ENDBRANCH   1  17
TORSDOF 6
