REMARK  Name = ZINC42085668
REMARK  7 active torsions:
REMARK  status: ('A' for Active; 'I' for Inactive)
REMARK    1  A    between atoms: C_1  and  C_2
REMARK    2  A    between atoms: C_8  and  N_10
REMARK    3  A    between atoms: N_10  and  C_11
REMARK    4  A    between atoms: C_11  and  N_13
REMARK    5  A    between atoms: N_13  and  N_14
REMARK    6  A    between atoms: C_15  and  C_17
REMARK    7  A    between atoms: C_17  and  N_18
REMARK                            x       y       z     vdW  Elec       q    Type
REMARK                         _______ _______ _______ _____ _____    ______ ____
ROOT
ATOM      1  N   UNL     1       4.668   0.942   1.166  0.00  0.00    -0.234 N 
ATOM      2  C   UNL     1       5.933   1.409   1.156  0.00  0.00    +0.251 C 
ATOM      3  O   UNL     1       6.543   1.527   2.198  0.00  0.00    -0.272 OA
ATOM      4  H   UNL     1       4.180   0.848   0.333  0.00  0.00    +0.173 HD
ENDROOT
BRANCH   1   5
ATOM      5  N   UNL     1       4.059   0.594   2.379  0.00  0.00    -0.246 N 
ATOM      6  H   UNL     1       4.548   0.689   3.211  0.00  0.00    +0.172 HD
BRANCH   5   7
ATOM      7  C   UNL     1       2.795   0.128   2.388  0.00  0.00    +0.147 C 
ATOM      8  S   UNL     1       2.051  -0.298   3.870  0.00  0.00    -0.017 S 
BRANCH   7   9
ATOM      9  N   UNL     1       2.116  -0.004   1.231  0.00  0.00    -0.322 N 
ATOM     10  H   UNL     1       2.538   0.237   0.392  0.00  0.00    +0.148 HD
BRANCH   9  17
ATOM     11  C   UNL     1      -0.019   1.526   0.010  0.00  0.00    +0.009 C 
ATOM     12  C   UNL     1       0.002  -0.004   0.002  0.00  0.00    +0.006 C 
ATOM     13  C   UNL     1       0.718  -0.497  -1.257  0.00  0.00    +0.005 C 
ATOM     14  C   UNL     1       0.739  -2.027  -1.265  0.00  0.00    +0.000 C 
ATOM     15  C   UNL     1       1.479  -2.534  -0.026  0.00  0.00    +0.002 C 
ATOM     16  C   UNL     1       0.763  -2.041   1.233  0.00  0.00    +0.022 C 
ATOM     17  C   UNL     1       0.742  -0.511   1.242  0.00  0.00    +0.075 C 
ENDBRANCH   9  17
ENDBRANCH   7   9
ENDBRANCH   5   7
ENDBRANCH   1   5
BRANCH   2  18
ATOM     18  C   UNL     1       6.588   1.783  -0.148  0.00  0.00    +0.244 C 
BRANCH  18  19
ATOM     19  N   UNL     1       7.950   2.259   0.108  0.00  0.00    -0.216 N 
ATOM     20  C   UNL     1       8.966   1.371   0.105  0.00  0.00    +0.276 A 
ATOM     21  O   UNL     1       8.756   0.190  -0.108  0.00  0.00    -0.266 OA
ATOM     22  C   UNL     1      10.329   1.853   0.362  0.00  0.00    +0.053 A 
ATOM     23  C   UNL     1      11.426   0.993   0.374  0.00  0.00    +0.014 A 
ATOM     24  C   UNL     1      12.683   1.498   0.620  0.00  0.00    +0.001 A 
ATOM     25  C   UNL     1      12.868   2.854   0.857  0.00  0.00    +0.001 A 
ATOM     26  C   UNL     1      11.799   3.722   0.851  0.00  0.00    +0.014 A 
ATOM     27  C   UNL     1      10.516   3.233   0.603  0.00  0.00    +0.055 A 
ATOM     28  C   UNL     1       9.343   4.113   0.584  0.00  0.00    +0.295 A 
ATOM     29  O   UNL     1       9.488   5.444   0.811  0.00  0.00    -0.264 OA
ATOM     30  N   UNL     1       8.161   3.618   0.343  0.00  0.00    -0.125 NA
ENDBRANCH  18  19
ENDBRANCH   2  18
TORSDOF 6
