REMARK  Name = ZINC10341365
REMARK  10 active torsions:
REMARK  status: ('A' for Active; 'I' for Inactive)
REMARK    1  A    between atoms: C_1  and  C_2
REMARK    2  A    between atoms: C_2  and  C_3
REMARK    3  A    between atoms: C_3  and  C_4
REMARK    4  A    between atoms: C_4  and  N_5
REMARK    5  A    between atoms: N_5  and  C_6
REMARK    6  A    between atoms: C_7  and  N_22
REMARK    7  A    between atoms: N_8  and  C_15
REMARK    8  A    between atoms: C_15  and  C_16
REMARK    9  A    between atoms: C_23  and  C_25
REMARK   10  A    between atoms: C_25  and  N_62
REMARK                            x       y       z     vdW  Elec       q    Type
REMARK                         _______ _______ _______ _____ _____    ______ ____
ROOT
ATOM      1  C   UNL     1       0.470  -2.106  -1.194  0.00  0.00    +0.140 A 
ATOM      2  C   UNL     1       1.636  -2.281  -0.478  0.00  0.00    +0.128 A 
ATOM      3  N   UNL     1       1.860  -1.510   0.639  0.00  0.00    -0.276 N 
ATOM      4  C   UNL     1       0.957  -0.589   1.023  0.00  0.00    +0.331 A 
ATOM      5  O   UNL     1       1.176   0.085   2.011  0.00  0.00    -0.246 OA
ATOM      6  N   UNL     1      -0.182  -0.401   0.334  0.00  0.00    -0.273 N 
ATOM      7  H   UNL     1      -0.837   0.290   0.641  0.00  0.00    +0.173 HD
ATOM      8  C   UNL     1      -0.452  -1.133  -0.764  0.00  0.00    +0.277 A 
ATOM      9  O   UNL     1      -1.489  -0.954  -1.381  0.00  0.00    -0.266 OA
ENDROOT
BRANCH   1  10
ATOM     10  N   UNL     1       0.208  -2.884  -2.342  0.00  0.00    -0.266 N 
ATOM     11  C   UNL     1       0.144  -2.297  -3.555  0.00  0.00    +0.203 C 
ATOM     12  O   UNL     1       0.402  -1.117  -3.673  0.00  0.00    -0.277 OA
BRANCH  10  13
ATOM     13  C   UNL     1       0.007  -4.330  -2.216  0.00  0.00    +0.114 C 
BRANCH  13  14
ATOM     14  C   UNL     1      -1.464  -4.615  -1.908  0.00  0.00    +0.019 C 
BRANCH  14  16
ATOM     15  C   UNL     1      -3.146  -6.409  -1.469  0.00  0.00    +0.004 C 
ATOM     16  C   UNL     1      -1.675  -6.124  -1.777  0.00  0.00    -0.002 C 
ENDBRANCH  14  16
ENDBRANCH  13  14
ENDBRANCH  10  13
BRANCH  11  17
ATOM     17  C   UNL     1      -0.247  -3.107  -4.764  0.00  0.00    +0.020 C 
BRANCH  17  26
ATOM     18  C   UNL     1      -1.381  -1.240  -5.811  0.00  0.00    -0.073 C 
ATOM     19  C   UNL     1      -1.147  -0.115  -6.833  0.00  0.00    +0.024 C 
ATOM     20  C   UNL     1      -0.834  -0.753  -8.147  0.00  0.00    -0.011 A 
ATOM     21  C   UNL     1      -0.504  -2.058  -8.360  0.00  0.00    -0.054 A 
ATOM     22  C   UNL     1      -0.254  -2.429  -9.679  0.00  0.00    +0.009 A 
ATOM     23  C   UNL     1      -0.343  -1.510 -10.669  0.00  0.00    +0.045 A 
ATOM     24  S   UNL     1      -0.797  -0.037  -9.766  0.00  0.00    -0.101 S 
ATOM     25  C   UNL     1      -0.426  -3.018  -7.177  0.00  0.00    -0.042 C 
ATOM     26  N   UNL     1      -0.272  -2.216  -5.941  0.00  0.00    +0.388 N 
ATOM     27  H   UNL     1       0.616  -1.702  -5.988  0.00  0.00    -0.081 HD
ENDBRANCH  17  26
ENDBRANCH  11  17
ENDBRANCH   1  10
BRANCH   2  28
ATOM     28  N   UNL     1       2.560  -3.218  -0.873  0.00  0.00    -0.343 N 
ATOM     29  H   UNL     1       3.332  -3.403  -0.315  0.00  0.00    +0.144 HD
ATOM     30  H   UNL     1       2.441  -3.694  -1.709  0.00  0.00    +0.144 HD
ENDBRANCH   2  28
BRANCH   3  31
ATOM     31  C   UNL     1       3.091  -1.689   1.412  0.00  0.00    +0.163 C 
BRANCH  31  32
ATOM     32  C   UNL     1       2.865  -2.723   2.485  0.00  0.00    -0.028 A 
ATOM     33  C   UNL     1       2.418  -2.335   3.735  0.00  0.00    +0.005 A 
ATOM     34  C   UNL     1       2.206  -3.284   4.718  0.00  0.00    +0.000 A 
ATOM     35  C   UNL     1       2.451  -4.618   4.455  0.00  0.00    +0.000 A 
ATOM     36  C   UNL     1       2.904  -5.005   3.207  0.00  0.00    +0.000 A 
ATOM     37  C   UNL     1       3.111  -4.057   2.222  0.00  0.00    +0.005 A 
ENDBRANCH  31  32
ENDBRANCH   3  31
TORSDOF 9
