REMARK  Name = ZINC06908993
REMARK  7 active torsions:
REMARK  status: ('A' for Active; 'I' for Inactive)
REMARK    1  A    between atoms: C_1  and  C_2
REMARK    2  A    between atoms: C_6  and  N_8
REMARK    3  A    between atoms: C_12  and  C_13
REMARK    4  A    between atoms: C_12  and  N_14
REMARK    5  A    between atoms: N_14  and  C_15
REMARK    6  A    between atoms: C_15  and  C_16
REMARK    7  A    between atoms: C_16  and  C_17
REMARK                            x       y       z     vdW  Elec       q    Type
REMARK                         _______ _______ _______ _____ _____    ______ ____
ROOT
ATOM      1  N   UNL     1       1.106  -2.978   2.470  0.00  0.00    -0.190 N 
ATOM      2  C   UNL     1       0.622  -4.237   2.416  0.00  0.00    +0.265 C 
ATOM      3  O   UNL     1       0.372  -4.764   1.348  0.00  0.00    -0.269 OA
ATOM      4  C   UNL     1       0.406  -4.955   3.684  0.00  0.00    +0.116 C 
ATOM      5  C   UNL     1      -0.087  -6.247   3.706  0.00  0.00    +0.018 C 
ATOM      6  C   UNL     1      -0.316  -6.988   2.414  0.00  0.00    +0.061 C 
ATOM      7  C   UNL     1       0.738  -4.237   4.927  0.00  0.00    +0.258 C 
ATOM      8  O   UNL     1       0.586  -4.765   6.013  0.00  0.00    -0.270 OA
ATOM      9  N   UNL     1       1.215  -2.979   4.829  0.00  0.00    -0.235 N 
ATOM     10  C   UNL     1       1.392  -2.388   3.639  0.00  0.00    +0.320 C 
ATOM     11  O   UNL     1       1.830  -1.254   3.619  0.00  0.00    -0.251 OA
ATOM     12  H   UNL     1       1.438  -2.492   5.638  0.00  0.00    +0.159 HD
ENDROOT
BRANCH   1  18
ATOM     13  C   UNL     1      -0.666  -0.215  -1.192  0.00  0.00    +0.044 C 
ATOM     14  C   UNL     1       0.479  -0.927  -0.519  0.00  0.00    -0.049 A 
ATOM     15  C   UNL     1       1.743  -0.886  -1.078  0.00  0.00    +0.003 A 
ATOM     16  C   UNL     1       2.796  -1.538  -0.463  0.00  0.00    +0.002 A 
ATOM     17  C   UNL     1       2.588  -2.233   0.713  0.00  0.00    +0.024 A 
ATOM     18  C   UNL     1       1.320  -2.275   1.277  0.00  0.00    +0.046 A 
ATOM     19  C   UNL     1       0.266  -1.615   0.660  0.00  0.00    +0.027 A 
ENDBRANCH   1  18
BRANCH   5  20
ATOM     20  N   UNL     1      -0.362  -6.843   4.883  0.00  0.00    -0.346 N 
ATOM     21  H   UNL     1      -0.295  -6.339   5.710  0.00  0.00    +0.146 HD
BRANCH  20  22
ATOM     22  C   UNL     1      -0.762  -8.252   4.915  0.00  0.00    +0.107 C 
BRANCH  22  23
ATOM     23  C   UNL     1      -1.014  -8.678   6.363  0.00  0.00    +0.073 C 
BRANCH  23  24
ATOM     24  C   UNL     1      -1.426 -10.127   6.396  0.00  0.00    +0.037 A 
ATOM     25  C   UNL     1      -2.670 -10.612   6.219  0.00  0.00    +0.133 A 
ATOM     26  N   UNL     1      -2.613 -11.948   6.323  0.00  0.00    -0.244 NA
ATOM     27  C   UNL     1      -1.381 -12.310   6.557  0.00  0.00    +0.196 A 
ATOM     28  N   UNL     1      -0.607 -11.204   6.604  0.00  0.00    -0.348 N 
ATOM     29  H   UNL     1       0.350 -11.177   6.758  0.00  0.00    +0.166 HD
ENDBRANCH  23  24
ENDBRANCH  22  23
ENDBRANCH  20  22
ENDBRANCH   5  20
TORSDOF 5
