REMARK  Name = ZINC14746613
REMARK  9 active torsions:
REMARK  status: ('A' for Active; 'I' for Inactive)
REMARK    1  A    between atoms: C_1  and  C_2
REMARK    2  A    between atoms: C_2  and  C_3
REMARK    3  A    between atoms: C_3  and  C_4
REMARK    4  A    between atoms: C_4  and  N_62
REMARK    5  A    between atoms: C_5  and  N_62
REMARK    6  A    between atoms: C_6  and  N_62
REMARK    7  A    between atoms: C_12  and  C_17
REMARK    8  A    between atoms: N_14  and  C_15
REMARK    9  A    between atoms: C_15  and  C_16
REMARK                            x       y       z     vdW  Elec       q    Type
REMARK                         _______ _______ _______ _____ _____    ______ ____
ROOT
ATOM      1  C   UNL     1      -1.265   1.220  -1.199  0.00  0.00    -0.064 C 
ATOM      2  C   UNL     1      -1.395   2.745  -1.195  0.00  0.00    -0.009 C 
ATOM      3  C   UNL     1      -2.249   3.187   0.000  0.00  0.00    +0.054 C 
ATOM      4  C   UNL     1      -1.710   2.521   1.240  0.00  0.00    +0.043 A 
ATOM      5  C   UNL     1      -0.877   1.451   1.222  0.00  0.00    +0.004 A 
ATOM      6  C   UNL     1      -0.611   1.145   2.568  0.00  0.00    +0.151 A 
ATOM      7  N   UNL     1      -1.282   2.022   3.295  0.00  0.00    -0.166 NA
ATOM      8  N   UNL     1      -1.930   2.832   2.528  0.00  0.00    -0.268 N 
ATOM      9  C   UNL     1      -0.379   0.778  -0.027  0.00  0.00    +0.024 C 
ENDROOT
BRANCH   6  10
ATOM     10  C   UNL     1       0.250   0.055   3.071  0.00  0.00    +0.267 C 
ATOM     11  O   UNL     1       0.894  -0.619   2.292  0.00  0.00    -0.268 OA
ATOM     12  N   UNL     1       0.320  -0.191   4.394  0.00  0.00    -0.296 N 
ATOM     13  C   UNL     1      -0.546   0.549   5.284  0.00  0.00    +0.108 C 
ATOM     14  C   UNL     1       0.147   1.854   5.728  0.00  0.00    +0.019 C 
ATOM     15  C   UNL     1       1.251   1.556   6.654  0.00  0.00    +0.002 C 
ATOM     16  C   UNL     1       2.372   0.718   6.047  0.00  0.00    +0.002 C 
ATOM     17  C   UNL     1       2.015  -0.744   6.151  0.00  0.00    +0.019 C 
ATOM     18  C   UNL     1       1.282  -1.201   4.876  0.00  0.00    +0.108 C 
ENDBRANCH   6  10
BRANCH   1  20
ATOM     19  C   UNL     1       0.668   1.389  -2.647  0.00  0.00    -0.096 C 
ATOM     20  N   UNL     1      -0.655   0.755  -2.462  0.00  0.00    +0.380 N 
ATOM     21  H   UNL     1      -0.533  -0.263  -2.419  0.00  0.00    -0.082 HD
BRANCH  20  22
ATOM     22  C   UNL     1      -1.537   1.085  -3.601  0.00  0.00    -0.079 C 
BRANCH  22  23
ATOM     23  C   UNL     1      -0.996   0.402  -4.859  0.00  0.00    -0.019 C 
BRANCH  23  25
ATOM     24  C   UNL     1      -1.371   0.033  -7.301  0.00  0.00    +0.004 C 
ATOM     25  C   UNL     1      -1.912   0.716  -6.044  0.00  0.00    -0.005 C 
ENDBRANCH  23  25
ENDBRANCH  22  23
ENDBRANCH  20  22
ENDBRANCH   1  20
BRANCH   8  26
ATOM     26  C   UNL     1      -2.780   3.930   2.994  0.00  0.00    +0.140 C 
ATOM     27  C   UNL     1      -4.213   3.425   3.175  0.00  0.00    +0.029 C 
ENDBRANCH   8  26
TORSDOF 6
