REMARK  Name = ZINC34748985
REMARK  9 active torsions:
REMARK  status: ('A' for Active; 'I' for Inactive)
REMARK    1  A    between atoms: C_1  and  C_2
REMARK    2  A    between atoms: C_2  and  C_3
REMARK    3  A    between atoms: C_3  and  C_4
REMARK    4  A    between atoms: C_4  and  N_5
REMARK    5  A    between atoms: C_9  and  C_25
REMARK    6  A    between atoms: C_10  and  C_24
REMARK    7  A    between atoms: N_18  and  C_21
REMARK    8  A    between atoms: C_21  and  C_22
REMARK    9  A    between atoms: C_25  and  C_26
REMARK                            x       y       z     vdW  Elec       q    Type
REMARK                         _______ _______ _______ _____ _____    ______ ____
ROOT
ATOM      1  N   UNL     1       1.421  -2.614  -2.434  0.00  0.00    -0.280 N 
ATOM      2  C   UNL     1       0.697  -2.933  -3.523  0.00  0.00    +0.264 A 
ATOM      3  O   UNL     1      -0.521  -2.929  -3.477  0.00  0.00    -0.267 OA
ATOM      4  C   UNL     1       1.376  -3.275  -4.735  0.00  0.00    +0.076 A 
ATOM      5  C   UNL     1       0.822  -3.650  -6.024  0.00  0.00    -0.023 A 
ATOM      6  C   UNL     1       1.655  -3.934  -7.037  0.00  0.00    -0.007 A 
ATOM      7  S   UNL     1       3.271  -3.714  -6.318  0.00  0.00    -0.073 S 
ATOM      8  C   UNL     1       2.782  -3.247  -4.678  0.00  0.00    +0.117 A 
ATOM      9  N   UNL     1       3.435  -2.923  -3.568  0.00  0.00    -0.208 NA
ATOM     10  C   UNL     1       2.784  -2.607  -2.468  0.00  0.00    +0.202 A 
ATOM     11  N   UNL     1       3.487  -2.270  -1.338  0.00  0.00    -0.304 N 
ATOM     12  C   UNL     1       3.874  -0.875  -1.076  0.00  0.00    +0.089 C 
ATOM     13  C   UNL     1       5.371  -0.839  -0.749  0.00  0.00    -0.059 C 
ATOM     14  N   UNL     1       5.652  -1.764   0.356  0.00  0.00    +0.384 N 
ATOM     15  C   UNL     1       5.372  -3.144  -0.063  0.00  0.00    -0.059 C 
ATOM     16  C   UNL     1       3.871  -3.293  -0.353  0.00  0.00    +0.089 C 
ATOM     17  C   UNL     1       1.307  -4.342  -8.445  0.00  0.00    +0.052 C 
ATOM     18  H   UNL     1       5.070  -1.530   1.146  0.00  0.00    -0.081 HD
ENDROOT
BRANCH   5  19
ATOM     19  C   UNL     1      -0.670  -3.720  -6.222  0.00  0.00    +0.033 C 
ATOM     20  C   UNL     1      -1.187  -2.357  -6.687  0.00  0.00    +0.009 C 
ENDBRANCH   5  19
BRANCH   1  21
ATOM     21  C   UNL     1       0.731  -2.262  -1.190  0.00  0.00    +0.128 C 
BRANCH  21  22
ATOM     22  C   UNL     1       0.357  -0.779  -1.216  0.00  0.00    +0.021 C 
BRANCH  22  24
ATOM     23  C   UNL     1      -0.737   1.072   0.057  0.00  0.00    +0.004 C 
ATOM     24  C   UNL     1      -0.363  -0.412   0.083  0.00  0.00    -0.002 C 
ENDBRANCH  22  24
ENDBRANCH  21  22
ENDBRANCH   1  21
BRANCH  14  25
ATOM     25  C   UNL     1       7.065  -1.649   0.741  0.00  0.00    -0.052 C 
BRANCH  25  26
ATOM     26  C   UNL     1       7.327  -2.506   1.953  0.00  0.00    -0.053 C 
ATOM     27  C   UNL     1       8.274  -3.411   1.923  0.00  0.00    +0.002 C 
ENDBRANCH  25  26
ENDBRANCH  14  25
TORSDOF 6
