REMARK  Name = ZINC39526821
REMARK  4 active torsions:
REMARK  status: ('A' for Active; 'I' for Inactive)
REMARK    1  A    between atoms: C_4  and  S_7
REMARK    2  A    between atoms: S_7  and  N_10
REMARK    3  A    between atoms: C_20  and  C_23
REMARK    4  A    between atoms: C_28  and  O_29
REMARK                            x       y       z     vdW  Elec       q    Type
REMARK                         _______ _______ _______ _____ _____    ______ ____
ROOT
ATOM      1  N   UNL     1       4.373  -1.214   1.510  0.00  0.00    -0.153 NA
ATOM      2  C   UNL     1       5.144  -0.265   2.325  0.00  0.00    +0.171 C 
ATOM      3  C   UNL     1       6.393  -0.974   2.857  0.00  0.00    +0.037 C 
ATOM      4  C   UNL     1       5.977  -2.246   3.599  0.00  0.00    +0.005 C 
ATOM      5  C   UNL     1       5.261  -3.192   2.632  0.00  0.00    +0.024 C 
ATOM      6  C   UNL     1       3.996  -2.505   2.098  0.00  0.00    +0.045 C 
ATOM      7  C   UNL     1       3.009  -2.274   3.243  0.00  0.00    +0.024 C 
ATOM      8  C   UNL     1       1.757  -1.579   2.705  0.00  0.00    +0.002 C 
ATOM      9  C   UNL     1       1.105  -2.459   1.637  0.00  0.00    +0.008 C 
ATOM     10  C   UNL     1       2.092  -2.688   0.491  0.00  0.00    +0.024 C 
ATOM     11  C   UNL     1       3.345  -3.382   1.028  0.00  0.00    +0.032 C 
ATOM     12 CL   UNL     1       5.630   1.146   1.314  0.00  0.00    -0.103 Cl
ENDROOT
BRANCH  10  13
ATOM     13  C   UNL     1       1.449  -3.554  -0.561  0.00  0.00    -0.003 A 
ATOM     14  C   UNL     1       1.008  -4.823  -0.237  0.00  0.00    +0.007 A 
ATOM     15  C   UNL     1       0.419  -5.618  -1.202  0.00  0.00    +0.001 A 
ATOM     16  C   UNL     1       0.269  -5.147  -2.493  0.00  0.00    +0.004 A 
ATOM     17  C   UNL     1       0.708  -3.879  -2.822  0.00  0.00    +0.046 A 
ATOM     18  C   UNL     1       1.295  -3.077  -1.855  0.00  0.00    +0.120 A 
BRANCH  18  19
ATOM     19  O   UNL     1       1.722  -1.827  -2.174  0.00  0.00    -0.506 OA
ATOM     20  H   UNL     1       2.639  -1.791  -2.482  0.00  0.00    +0.292 HD
ENDBRANCH  18  19
ENDBRANCH  10  13
BRANCH   1  21
ATOM     21  S   UNL     1       3.934  -0.832  -0.041  0.00  0.00    +0.063 S 
ATOM     22  O   UNL     1       2.861   0.096   0.058  0.00  0.00    -0.153 OA
ATOM     23  O   UNL     1       3.816  -2.061  -0.744  0.00  0.00    -0.153 OA
BRANCH  21  27
ATOM     24  C   UNL     1       7.404   1.398  -1.907  0.00  0.00    +0.000 A 
ATOM     25  C   UNL     1       7.562   0.085  -1.504  0.00  0.00    +0.002 A 
ATOM     26  C   UNL     1       6.502  -0.596  -0.934  0.00  0.00    +0.028 A 
ATOM     27  C   UNL     1       5.285   0.036  -0.766  0.00  0.00    +0.106 A 
ATOM     28  C   UNL     1       5.127   1.350  -1.168  0.00  0.00    +0.028 A 
ATOM     29  C   UNL     1       6.186   2.030  -1.739  0.00  0.00    +0.002 A 
ENDBRANCH  21  27
ENDBRANCH   1  21
TORSDOF 4
