REMARK  Name = ZINC25413815
REMARK  7 active torsions:
REMARK  status: ('A' for Active; 'I' for Inactive)
REMARK    1  A    between atoms: C_1  and  C_2
REMARK    2  A    between atoms: C_2  and  C_4
REMARK    3  A    between atoms: C_2  and  N_11
REMARK    4  A    between atoms: C_12  and  C_14
REMARK    5  A    between atoms: C_14  and  N_15
REMARK    6  A    between atoms: N_18  and  S_21
REMARK    7  A    between atoms: S_21  and  C_24
REMARK                            x       y       z     vdW  Elec       q    Type
REMARK                         _______ _______ _______ _____ _____    ______ ____
ROOT
ATOM      1  N   UNL     1      -1.007   3.270  -1.025  0.00  0.00    +0.387 N 
ATOM      2  C   UNL     1      -0.898   1.815  -0.852  0.00  0.00    -0.061 C 
ATOM      3  C   UNL     1      -0.242   1.513   0.499  0.00  0.00    +0.091 C 
ATOM      4  N   UNL     1      -0.993   2.209   1.554  0.00  0.00    -0.180 NA
ATOM      5  C   UNL     1      -1.266   3.645   1.381  0.00  0.00    +0.091 C 
ATOM      6  C   UNL     1      -1.882   3.863  -0.005  0.00  0.00    -0.061 C 
ATOM      7  H   UNL     1      -0.002   3.699  -0.895  0.00  0.00    -0.081 HD
ENDROOT
BRANCH   4   8
ATOM      8  S   UNL     1      -1.523   1.398   2.897  0.00  0.00    +0.064 S 
ATOM      9  O   UNL     1      -2.628   2.132   3.406  0.00  0.00    -0.153 OA
ATOM     10  O   UNL     1      -1.622   0.028   2.532  0.00  0.00    -0.153 OA
BRANCH   8  11
ATOM     11  C   UNL     1      -0.247   1.505   4.108  0.00  0.00    +0.142 A 
ATOM     12  C   UNL     1       0.735   0.533   4.167  0.00  0.00    +0.069 A 
ATOM     13  C   UNL     1       1.739   0.620   5.115  0.00  0.00    +0.022 A 
ATOM     14  C   UNL     1       1.755   1.674   6.009  0.00  0.00    +0.003 A 
ATOM     15  C   UNL     1       0.771   2.643   5.954  0.00  0.00    +0.022 A 
ATOM     16  C   UNL     1      -0.230   2.559   5.004  0.00  0.00    +0.069 A 
ATOM     17 CL   UNL     1      -1.466   3.777   4.935  0.00  0.00    -0.081 Cl
ATOM     18 CL   UNL     1       0.710  -0.794   3.048  0.00  0.00    -0.081 Cl
ENDBRANCH   8  11
ENDBRANCH   4   8
BRANCH   1  19
ATOM     19  C   UNL     1      -1.472   3.606  -2.377  0.00  0.00    +0.019 C 
BRANCH  19  21
ATOM     20  N   UNL     1      -3.552   3.382  -3.697  0.00  0.00    -0.310 N 
ATOM     21  C   UNL     1      -2.874   3.090  -2.569  0.00  0.00    +0.197 C 
ATOM     22  O   UNL     1      -3.393   2.410  -1.709  0.00  0.00    -0.278 OA
ATOM     23  H   UNL     1      -3.081   3.998  -4.477  0.00  0.00    +0.149 HD
BRANCH  20  25
ATOM     24  C   UNL     1      -4.862   1.462  -4.458  0.00  0.00    +0.033 C 
ATOM     25  C   UNL     1      -4.915   2.880  -3.884  0.00  0.00    +0.100 C 
BRANCH  25  26
ATOM     26  C   UNL     1      -5.656   3.781  -4.838  0.00  0.00    -0.027 A 
ATOM     27  C   UNL     1      -5.009   4.296  -5.945  0.00  0.00    +0.008 A 
ATOM     28  C   UNL     1      -5.689   5.118  -6.824  0.00  0.00    +0.038 A 
ATOM     29  C   UNL     1      -7.016   5.434  -6.588  0.00  0.00    +0.123 A 
ATOM     30  C   UNL     1      -7.662   4.923  -5.476  0.00  0.00    +0.038 A 
ATOM     31  C   UNL     1      -6.981   4.096  -4.602  0.00  0.00    +0.008 A 
ATOM     32  F   UNL     1      -7.680   6.243  -7.443  0.00  0.00    -0.205 F 
ENDBRANCH  25  26
ENDBRANCH  20  25
ENDBRANCH  19  21
ENDBRANCH   1  19
TORSDOF 6
