REMARK  Name = ZINC63270604
REMARK  9 active torsions:
REMARK  status: ('A' for Active; 'I' for Inactive)
REMARK    1  A    between atoms: C_1  and  C_2
REMARK    2  A    between atoms: C_2  and  C_4
REMARK    3  A    between atoms: C_2  and  N_14
REMARK    4  A    between atoms: C_4  and  C_5
REMARK    5  A    between atoms: C_15  and  C_17
REMARK    6  A    between atoms: C_20  and  O_23
REMARK    7  A    between atoms: O_23  and  C_24
REMARK    8  A    between atoms: C_29  and  O_35
REMARK    9  A    between atoms: O_35  and  C_36
REMARK                            x       y       z     vdW  Elec       q    Type
REMARK                         _______ _______ _______ _____ _____    ______ ____
ROOT
ATOM      1  C   UNL     1       0.896  -0.725   3.664  0.00  0.00    +0.037 A 
ATOM      2  C   UNL     1       2.258  -1.033   3.604  0.00  0.00    +0.016 A 
ATOM      3  C   UNL     1       2.876  -1.622   4.684  0.00  0.00    +0.047 A 
ATOM      4  C   UNL     1       2.148  -1.910   5.833  0.00  0.00    +0.129 A 
ATOM      5  C   UNL     1       0.793  -1.605   5.896  0.00  0.00    +0.047 A 
ATOM      6  C   UNL     1       0.168  -1.011   4.822  0.00  0.00    +0.016 A 
ENDROOT
BRANCH   1   8
ATOM      7  N   UNL     1       0.932   0.181   1.392  0.00  0.00    -0.308 N 
ATOM      8  C   UNL     1       0.229  -0.094   2.508  0.00  0.00    +0.244 C 
ATOM      9  O   UNL     1      -0.955   0.178   2.564  0.00  0.00    -0.270 OA
ATOM     10  H   UNL     1       1.876  -0.036   1.347  0.00  0.00    +0.149 HD
BRANCH   7  12
ATOM     11  C   UNL     1       0.253   2.326   0.432  0.00  0.00    +0.028 C 
ATOM     12  C   UNL     1       0.270   0.807   0.245  0.00  0.00    +0.074 C 
BRANCH  12  13
ATOM     13  C   UNL     1       1.031   0.460  -1.036  0.00  0.00    +0.055 C 
BRANCH  13  14
ATOM     14  C   UNL     1       0.942  -1.024  -1.286  0.00  0.00    -0.040 C 
ATOM     15  C   UNL     1       0.051  -1.663  -2.078  0.00  0.00    -0.001 A 
ATOM     16  C   UNL     1      -1.060  -1.188  -2.910  0.00  0.00    +0.010 A 
ATOM     17  C   UNL     1      -1.791  -2.089  -3.605  0.00  0.00    +0.001 A 
ATOM     18  C   UNL     1      -1.516  -3.462  -3.550  0.00  0.00    +0.002 A 
ATOM     19  C   UNL     1      -0.511  -3.975  -2.807  0.00  0.00    +0.026 A 
ATOM     20  C   UNL     1       0.322  -3.118  -2.037  0.00  0.00    +0.043 A 
ATOM     21  N   UNL     1       1.341  -3.368  -1.250  0.00  0.00    -0.380 N 
ATOM     22  C   UNL     1       1.836  -2.098  -0.707  0.00  0.00    +0.144 C 
ATOM     23  H   UNL     1       1.708  -4.246  -1.061  0.00  0.00    +0.160 HD
ENDBRANCH  13  14
ENDBRANCH  12  13
ENDBRANCH   7  12
ENDBRANCH   1   8
BRANCH   4  24
ATOM     24  O   UNL     1       2.761  -2.490   6.895  0.00  0.00    -0.449 OA
BRANCH  24  25
ATOM     25  C   UNL     1       4.059  -2.876   6.751  0.00  0.00    +0.210 A 
ATOM     26  C   UNL     1       5.032  -2.259   7.451  0.00  0.00    +0.245 A 
ATOM     27  O   UNL     1       6.324  -2.597   7.348  0.00  0.00    -0.459 OA
ATOM     28  C   UNL     1       6.750  -3.585   6.535  0.00  0.00    +0.142 A 
ATOM     29  C   UNL     1       8.096  -3.911   6.453  0.00  0.00    +0.092 A 
ATOM     30  C   UNL     1       8.506  -4.930   5.610  0.00  0.00    +0.124 A 
ATOM     31  C   UNL     1       7.578  -5.631   4.842  0.00  0.00    +0.046 A 
ATOM     32  C   UNL     1       6.250  -5.322   4.912  0.00  0.00    +0.019 A 
ATOM     33  C   UNL     1       5.821  -4.298   5.757  0.00  0.00    +0.068 A 
ATOM     34  C   UNL     1       4.396  -3.938   5.866  0.00  0.00    +0.234 A 
ATOM     35  O   UNL     1       3.543  -4.524   5.221  0.00  0.00    -0.283 OA
BRANCH  30  36
ATOM     36  O   UNL     1       9.823  -5.248   5.531  0.00  0.00    -0.495 OA
ATOM     37  C   UNL     1      10.181  -6.309   4.643  0.00  0.00    +0.277 C 
ENDBRANCH  30  36
ENDBRANCH  24  25
ENDBRANCH   4  24
TORSDOF 7
