REMARK  Name = ZINC42912477
REMARK  8 active torsions:
REMARK  status: ('A' for Active; 'I' for Inactive)
REMARK    1  A    between atoms: C_1  and  C_2
REMARK    2  A    between atoms: C_5  and  C_8
REMARK    3  A    between atoms: C_8  and  C_10
REMARK    4  A    between atoms: C_8  and  S_14
REMARK    5  A    between atoms: C_10  and  C_12
REMARK    6  A    between atoms: C_10  and  N_13
REMARK    7  A    between atoms: S_14  and  C_15
REMARK    8  A    between atoms: C_19  and  N_21
REMARK                            x       y       z     vdW  Elec       q    Type
REMARK                         _______ _______ _______ _____ _____    ______ ____
ROOT
ATOM      1  C   UNL     1      -0.038  -4.181  -0.113  0.00  0.00    +0.069 C 
ENDROOT
BRANCH   1   6
ATOM      2  C   UNL     1      -0.460   1.513   0.775  0.00  0.00    +0.044 C 
ATOM      3  C   UNL     1      -0.350   0.028   0.543  0.00  0.00    -0.050 A 
ATOM      4  C   UNL     1      -0.227  -0.464  -0.743  0.00  0.00    +0.003 A 
ATOM      5  C   UNL     1      -0.126  -1.826  -0.955  0.00  0.00    +0.005 A 
ATOM      6  C   UNL     1      -0.147  -2.696   0.118  0.00  0.00    -0.036 A 
ATOM      7  C   UNL     1      -0.270  -2.204   1.405  0.00  0.00    +0.005 A 
ATOM      8  C   UNL     1      -0.366  -0.842   1.617  0.00  0.00    +0.003 A 
ENDBRANCH   1   6
BRANCH   1   9
ATOM      9  C   UNL     1      -1.288  -4.876   0.431  0.00  0.00    -0.060 C 
ATOM     10  C   UNL     1      -2.522  -4.358  -0.310  0.00  0.00    -0.013 C 
BRANCH   9  11
ATOM     11  N   UNL     1      -1.169  -6.326   0.231  0.00  0.00    +0.381 N 
ATOM     12  H   UNL     1      -0.405  -6.681   0.787  0.00  0.00    -0.090 HD
ATOM     13  H   UNL     1      -2.027  -6.776   0.512  0.00  0.00    -0.090 HD
ATOM     14  H   UNL     1      -0.992  -6.518  -0.744  0.00  0.00    -0.090 HD
ENDBRANCH   9  11
ENDBRANCH   1   9
BRANCH   1  15
ATOM     15  S   UNL     1       1.429  -4.820   0.741  0.00  0.00    -0.080 S 
BRANCH  15  16
ATOM     16  C   UNL     1       2.779  -4.122  -0.150  0.00  0.00    +0.192 A 
ATOM     17  N   UNL     1       2.534  -3.410  -1.240  0.00  0.00    -0.207 NA
ATOM     18  C   UNL     1       3.529  -2.867  -1.938  0.00  0.00    +0.122 A 
ATOM     19  C   UNL     1       4.839  -3.055  -1.508  0.00  0.00    +0.086 A 
ATOM     20  C   UNL     1       5.058  -3.809  -0.359  0.00  0.00    +0.122 A 
ATOM     21  N   UNL     1       4.013  -4.317   0.291  0.00  0.00    -0.207 NA
ATOM     22  N   UNL     1       3.263  -2.125  -3.078  0.00  0.00    -0.343 N 
ATOM     23  H   UNL     1       2.347  -1.998  -3.372  0.00  0.00    +0.144 HD
ATOM     24  H   UNL     1       3.993  -1.732  -3.582  0.00  0.00    +0.144 HD
BRANCH  20  25
ATOM     25  N   UNL     1       6.346  -4.022   0.106  0.00  0.00    -0.343 N 
ATOM     26  H   UNL     1       7.102  -3.646  -0.370  0.00  0.00    +0.144 HD
ATOM     27  H   UNL     1       6.491  -4.548   0.908  0.00  0.00    +0.144 HD
ENDBRANCH  20  25
ENDBRANCH  15  16
ENDBRANCH   1  15
TORSDOF 6
