REMARK  Name = ZINC49509605
REMARK  5 active torsions:
REMARK  status: ('A' for Active; 'I' for Inactive)
REMARK    1  A    between atoms: C_1  and  C_2
REMARK    2  A    between atoms: C_2  and  C_4
REMARK    3  A    between atoms: C_2  and  N_11
REMARK    4  A    between atoms: N_11  and  C_12
REMARK    5  A    between atoms: C_14  and  N_19
REMARK                            x       y       z     vdW  Elec       q    Type
REMARK                         _______ _______ _______ _____ _____    ______ ____
ROOT
ATOM      1  N   UNL     1       0.811  -0.457  -1.133  0.00  0.00    -0.337 N 
ATOM      2  H   UNL     1       0.389  -0.641  -1.986  0.00  0.00    +0.147 HD
ENDROOT
BRANCH   1   3
ATOM      3  C   UNL     1       2.190  -0.622  -0.985  0.00  0.00    +0.032 A 
ATOM      4  C   UNL     1       2.959  -1.046  -2.062  0.00  0.00    +0.055 A 
ATOM      5  C   UNL     1       4.322  -1.209  -1.915  0.00  0.00    +0.131 A 
ATOM      6  C   UNL     1       4.923  -0.951  -0.697  0.00  0.00    +0.071 A 
ATOM      7  C   UNL     1       4.161  -0.529   0.379  0.00  0.00    +0.127 A 
ATOM      8  C   UNL     1       2.796  -0.358   0.236  0.00  0.00    +0.061 A 
ATOM      9  F   UNL     1       4.751  -0.278   1.568  0.00  0.00    -0.205 F 
BRANCH   5  10
ATOM     10  N   UNL     1       5.141  -1.660  -3.062  0.00  0.00    +0.057 N 
ATOM     11  O   UNL     1       4.616  -1.886  -4.128  0.00  0.00    -0.126 OA
ATOM     12  O   UNL     1       6.334  -1.803  -2.934  0.00  0.00    -0.126 OA
ENDBRANCH   5  10
ENDBRANCH   1   3
BRANCH   1  14
ATOM     13  C   UNL     1       0.019   1.525   0.062  0.00  0.00    +0.033 C 
ATOM     14  C   UNL     1       0.002  -0.004   0.002  0.00  0.00    +0.099 C 
BRANCH  14  15
ATOM     15  C   UNL     1      -1.416  -0.485  -0.168  0.00  0.00    -0.009 A 
ATOM     16  C   UNL     1      -1.921  -0.714  -1.435  0.00  0.00    +0.007 A 
ATOM     17  C   UNL     1      -3.221  -1.155  -1.591  0.00  0.00    +0.000 A 
ATOM     18  C   UNL     1      -4.019  -1.366  -0.481  0.00  0.00    +0.001 A 
ATOM     19  C   UNL     1      -3.515  -1.137   0.785  0.00  0.00    +0.020 A 
ATOM     20  C   UNL     1      -2.211  -0.701   0.943  0.00  0.00    +0.046 A 
ATOM     21 CL   UNL     1      -1.576  -0.420   2.533  0.00  0.00    -0.083 Cl
ENDBRANCH  14  15
ENDBRANCH   1  14
TORSDOF 4
