REMARK  Name = ZINC60015864
REMARK  9 active torsions:
REMARK  status: ('A' for Active; 'I' for Inactive)
REMARK    1  A    between atoms: C_1  and  C_2
REMARK    2  A    between atoms: C_5  and  C_33
REMARK    3  A    between atoms: N_8  and  C_10
REMARK    4  A    between atoms: C_10  and  C_11
REMARK    5  A    between atoms: C_11  and  C_13
REMARK    6  A    between atoms: C_11  and  N_14
REMARK    7  A    between atoms: C_15  and  C_17
REMARK    8  A    between atoms: C_21  and  S_23
REMARK    9  A    between atoms: S_23  and  N_26
REMARK                            x       y       z     vdW  Elec       q    Type
REMARK                         _______ _______ _______ _____ _____    ______ ____
ROOT
ATOM      1  N   UNL     1       3.510  -2.495   0.951  0.00  0.00    -0.311 N 
ATOM      2  C   UNL     1       4.540  -1.852   0.365  0.00  0.00    +0.244 C 
ATOM      3  O   UNL     1       5.039  -0.884   0.906  0.00  0.00    -0.270 OA
ATOM      4  H   UNL     1       3.112  -3.266   0.519  0.00  0.00    +0.149 HD
ENDROOT
BRANCH   2   5
ATOM      5  C   UNL     1       5.062  -2.323  -0.936  0.00  0.00    +0.039 A 
ATOM      6  C   UNL     1       4.487  -3.429  -1.563  0.00  0.00    +0.013 A 
ATOM      7  C   UNL     1       4.978  -3.864  -2.776  0.00  0.00    +0.003 A 
ATOM      8  C   UNL     1       6.039  -3.205  -3.372  0.00  0.00    +0.028 A 
ATOM      9  C   UNL     1       6.614  -2.107  -2.756  0.00  0.00    +0.106 A 
ATOM     10  C   UNL     1       6.128  -1.659  -1.545  0.00  0.00    +0.041 A 
BRANCH   9  11
ATOM     11  S   UNL     1       7.965  -1.276  -3.523  0.00  0.00    +0.061 S 
ATOM     12  O   UNL     1       8.676  -0.614  -2.486  0.00  0.00    -0.153 OA
ATOM     13  O   UNL     1       8.582  -2.217  -4.390  0.00  0.00    -0.153 OA
BRANCH  11  14
ATOM     14  N   UNL     1       7.326  -0.091  -4.489  0.00  0.00    -0.177 NA
ATOM     15  C   UNL     1       7.005  -0.414  -5.861  0.00  0.00    +0.109 C 
ATOM     16  C   UNL     1       8.241  -0.154  -6.758  0.00  0.00    +0.017 C 
ATOM     17  C   UNL     1       8.478   1.291  -6.895  0.00  0.00    +0.001 C 
ATOM     18  C   UNL     1       8.806   2.000  -5.585  0.00  0.00    +0.001 C 
ATOM     19  C   UNL     1       7.524   2.372  -4.882  0.00  0.00    +0.017 C 
ATOM     20  C   UNL     1       7.102   1.248  -3.912  0.00  0.00    +0.109 C 
ENDBRANCH  11  14
ENDBRANCH   9  11
ENDBRANCH   2   5
BRANCH   1  21
ATOM     21  C   UNL     1       2.993  -2.028   2.239  0.00  0.00    +0.054 C 
ATOM     22  C   UNL     1       3.825  -2.634   3.372  0.00  0.00    +0.026 C 
BRANCH  21  23
ATOM     23  C   UNL     1       1.534  -2.461   2.390  0.00  0.00    -0.057 C 
BRANCH  23  29
ATOM     24  C   UNL     1      -0.019   1.526   0.010  0.00  0.00    +0.005 C 
ATOM     25  C   UNL     1       0.002  -0.004   0.002  0.00  0.00    -0.031 C 
ATOM     26  C   UNL     1      -1.434  -0.535   0.015  0.00  0.00    +0.003 C 
ATOM     27  C   UNL     1      -1.402  -2.064   0.086  0.00  0.00    -0.031 C 
ATOM     28  C   UNL     1      -0.613  -2.496   1.324  0.00  0.00    -0.076 C 
ATOM     29  N   UNL     1       0.758  -1.980   1.239  0.00  0.00    +0.381 N 
ATOM     30  C   UNL     1       0.740  -0.512   1.242  0.00  0.00    -0.076 C 
ATOM     31  C   UNL     1      -2.832  -2.602   0.177  0.00  0.00    +0.005 C 
ATOM     32  H   UNL     1       1.188  -2.307   0.386  0.00  0.00    -0.082 HD
ENDBRANCH  23  29
ENDBRANCH  21  23
ENDBRANCH   1  21
TORSDOF 6
