REMARK  Name = ZINC66500158
REMARK  7 active torsions:
REMARK  status: ('A' for Active; 'I' for Inactive)
REMARK    1  A    between atoms: C_1  and  C_2
REMARK    2  A    between atoms: C_2  and  C_3
REMARK    3  A    between atoms: C_2  and  C_4
REMARK    4  A    between atoms: N_11  and  C_12
REMARK    5  A    between atoms: C_12  and  C_13
REMARK    6  A    between atoms: N_15  and  C_16
REMARK    7  A    between atoms: N_15  and  C_24
REMARK                            x       y       z     vdW  Elec       q    Type
REMARK                         _______ _______ _______ _____ _____    ______ ____
ROOT
ATOM      1  C   UNL     1      -0.424  -4.206   0.652  0.00  0.00    +0.200 C 
ATOM      2  O   UNL     1      -0.512  -2.997   0.667  0.00  0.00    -0.278 OA
ATOM      3  N   UNL     1       0.333  -4.838   1.571  0.00  0.00    -0.295 N 
ENDROOT
BRANCH   3   4
ATOM      4  C   UNL     1       0.939  -4.080   2.668  0.00  0.00    +0.099 C 
ATOM      5  C   UNL     1      -0.162  -3.419   3.514  0.00  0.00    +0.046 C 
ATOM      6  C   UNL     1       0.461  -2.370   4.466  0.00  0.00    +0.168 C 
ATOM      7  S   UNL     1       1.963  -1.835   3.549  0.00  0.00    -0.029 S 
ATOM      8  O   UNL     1       1.786  -0.493   3.116  0.00  0.00    -0.174 OA
ATOM      9  O   UNL     1       3.114  -2.179   4.307  0.00  0.00    -0.174 OA
ATOM     10  C   UNL     1       1.846  -2.955   2.091  0.00  0.00    +0.188 C 
ENDBRANCH   3   4
BRANCH   3  11
ATOM     11  C   UNL     1       0.549  -6.284   1.473  0.00  0.00    +0.076 C 
ATOM     12  C   UNL     1       1.389  -6.590   0.231  0.00  0.00    +0.022 C 
ATOM     13  C   UNL     1       1.615  -8.100   0.129  0.00  0.00    +0.002 C 
ATOM     14  C   UNL     1       0.265  -8.812   0.020  0.00  0.00    +0.000 C 
ATOM     15  C   UNL     1      -0.574  -8.505   1.261  0.00  0.00    +0.002 C 
ATOM     16  C   UNL     1      -0.801  -6.995   1.364  0.00  0.00    +0.022 C 
ENDBRANCH   3  11
BRANCH   1  17
ATOM     17  C   UNL     1      -1.161  -5.002  -0.393  0.00  0.00    +0.020 C 
BRANCH  17  24
ATOM     18  C   UNL     1      -2.422  -4.857  -2.430  0.00  0.00    +0.023 C 
ATOM     19  C   UNL     1      -2.709  -4.008  -3.636  0.00  0.00    +0.200 C 
ATOM     20  O   UNL     1      -3.624  -4.325  -4.366  0.00  0.00    -0.278 OA
ATOM     21  N   UNL     1      -1.996  -2.917  -3.937  0.00  0.00    -0.318 N 
ATOM     22  C   UNL     1      -0.894  -2.442  -3.104  0.00  0.00    +0.085 C 
ATOM     23  C   UNL     1      -0.431  -3.559  -2.166  0.00  0.00    -0.058 C 
ATOM     24  N   UNL     1      -1.605  -4.106  -1.469  0.00  0.00    +0.394 N 
ATOM     25  H   UNL     1      -2.219  -2.422  -4.741  0.00  0.00    +0.149 HD
ATOM     26  H   UNL     1      -2.150  -3.351  -1.079  0.00  0.00    -0.080 HD
BRANCH  18  28
ATOM     27  C   UNL     1      -4.576  -4.007  -1.490  0.00  0.00    +0.006 C 
ATOM     28  C   UNL     1      -3.742  -5.259  -1.768  0.00  0.00    -0.022 C 
ATOM     29  C   UNL     1      -4.517  -6.192  -2.700  0.00  0.00    +0.006 C 
ENDBRANCH  18  28
ENDBRANCH  17  24
ENDBRANCH   1  17
TORSDOF 5
