REMARK  Name = ZINC43618800
REMARK  10 active torsions:
REMARK  status: ('A' for Active; 'I' for Inactive)
REMARK    1  A    between atoms: C_1  and  C_2
REMARK    2  A    between atoms: C_11  and  C_28
REMARK    3  A    between atoms: C_11  and  O_35
REMARK    4  A    between atoms: C_12  and  C_27
REMARK    5  A    between atoms: C_14  and  O_26
REMARK    6  A    between atoms: C_18  and  C_25
REMARK    7  A    between atoms: C_28  and  C_30
REMARK    8  A    between atoms: C_30  and  O_31
REMARK    9  A    between atoms: O_31  and  C_32
REMARK   10  A    between atoms: C_32  and  C_34
REMARK                            x       y       z     vdW  Elec       q    Type
REMARK                         _______ _______ _______ _____ _____    ______ ____
ROOT
ATOM      1  C   UNL     1      -1.001   1.264   0.029  0.00  0.00    +0.012 C 
ATOM      2  C   UNL     1      -0.949  -0.249  -0.193  0.00  0.00    +0.013 C 
ATOM      3  C   UNL     1      -0.526  -0.542  -1.634  0.00  0.00    +0.011 C 
ATOM      4  C   UNL     1       0.906  -0.041  -1.849  0.00  0.00    -0.000 C 
ATOM      5  C   UNL     1       1.308  -0.246  -3.299  0.00  0.00    +0.002 C 
ATOM      6  C   UNL     1       0.507   0.556  -4.331  0.00  0.00    +0.008 C 
ATOM      7  C   UNL     1       1.470   0.616  -5.548  0.00  0.00    +0.043 C 
ATOM      8  C   UNL     1       2.900   0.426  -4.983  0.00  0.00    +0.133 C 
ATOM      9  C   UNL     1       2.738   0.333  -3.464  0.00  0.00    +0.009 C 
ATOM     10  C   UNL     1       3.683  -0.591  -2.720  0.00  0.00    +0.041 C 
ATOM     11  C   UNL     1       3.321  -0.503  -1.229  0.00  0.00    +0.119 C 
ATOM     12  C   UNL     1       1.859  -0.860  -0.967  0.00  0.00    +0.031 C 
ATOM     13  C   UNL     1       1.522  -0.614   0.509  0.00  0.00    -0.005 C 
ATOM     14  C   UNL     1       0.064  -0.867   0.753  0.00  0.00    -0.057 C 
ATOM     15  C   UNL     1      -0.400  -1.601   1.765  0.00  0.00    +0.046 C 
ATOM     16  C   UNL     1       0.533  -2.208   2.720  0.00  0.00    +0.156 C 
ATOM     17  O   UNL     1       0.219  -3.162   3.401  0.00  0.00    -0.293 OA
ATOM     18  C   UNL     1       1.911  -1.582   2.810  0.00  0.00    +0.080 C 
ATOM     19  C   UNL     1       2.449  -1.446   1.377  0.00  0.00    +0.019 C 
ATOM     20  C   UNL     1       1.788   0.862   0.813  0.00  0.00    +0.016 C 
ATOM     21  C   UNL     1       2.802   1.738  -2.863  0.00  0.00    +0.015 C 
ENDROOT
BRANCH  11  22
ATOM     22  O   UNL     1       4.157  -1.397  -0.492  0.00  0.00    -0.391 OA
ATOM     23  H   UNL     1       5.102  -1.208  -0.572  0.00  0.00    +0.210 HD
ENDBRANCH  11  22
BRANCH   8  24
ATOM     24  C   UNL     1       3.501  -0.854  -5.504  0.00  0.00    +0.202 C 
ATOM     25  O   UNL     1       2.790  -1.797  -5.753  0.00  0.00    -0.291 OA
BRANCH  24  26
ATOM     26  C   UNL     1       4.990  -0.956  -5.713  0.00  0.00    +0.309 C 
BRANCH  26  27
ATOM     27  O   UNL     1       5.313  -2.257  -6.208  0.00  0.00    -0.457 OA
BRANCH  27  28
ATOM     28  C   UNL     1       6.609  -2.514  -6.448  0.00  0.00    +0.304 C 
ATOM     29  O   UNL     1       7.441  -1.661  -6.245  0.00  0.00    -0.251 OA
ATOM     30  C   UNL     1       7.025  -3.864  -6.972  0.00  0.00    +0.136 C 
ENDBRANCH  27  28
ENDBRANCH  26  27
ENDBRANCH  24  26
ENDBRANCH   8  24
BRANCH   8  31
ATOM     31  O   UNL     1       3.723   1.540  -5.335  0.00  0.00    -0.380 OA
ATOM     32  H   UNL     1       3.834   1.662  -6.288  0.00  0.00    +0.211 HD
ENDBRANCH   8  31
TORSDOF 6
