REMARK  Name = ZINC09078298
REMARK  11 active torsions:
REMARK  status: ('A' for Active; 'I' for Inactive)
REMARK    1  A    between atoms: C_1  and  C_2
REMARK    2  A    between atoms: C_2  and  O_3
REMARK    3  A    between atoms: O_3  and  C_4
REMARK    4  A    between atoms: C_4  and  C_6
REMARK    5  A    between atoms: C_6  and  N_7
REMARK    6  A    between atoms: C_11  and  S_32
REMARK    7  A    between atoms: N_16  and  C_17
REMARK    8  A    between atoms: C_17  and  C_19
REMARK    9  A    between atoms: C_19  and  C_20
REMARK   10  A    between atoms: C_19  and  C_26
REMARK   11  A    between atoms: S_32  and  N_35
REMARK                            x       y       z     vdW  Elec       q    Type
REMARK                         _______ _______ _______ _____ _____    ______ ____
ROOT
ATOM      1  N   UNL     1      -0.483   1.740   0.066  0.00  0.00    -0.310 N 
ATOM      2  C   UNL     1       0.207   2.192   1.175  0.00  0.00    +0.058 A 
ATOM      3  C   UNL     1       1.544   2.614   1.256  0.00  0.00    +0.029 A 
ATOM      4  C   UNL     1       2.076   3.038   2.451  0.00  0.00    +0.030 A 
ATOM      5  C   UNL     1       1.314   3.063   3.607  0.00  0.00    +0.106 A 
ATOM      6  C   UNL     1      -0.007   2.653   3.555  0.00  0.00    +0.045 A 
ATOM      7  C   UNL     1      -0.539   2.229   2.361  0.00  0.00    +0.041 A 
ATOM      8  S   UNL     1      -2.135   1.636   1.856  0.00  0.00    -0.052 S 
ATOM      9  C   UNL     1      -1.788   1.376   0.177  0.00  0.00    +0.167 A 
ATOM     10  N   UNL     1      -2.604   0.926  -0.774  0.00  0.00    -0.156 NA
ENDROOT
BRANCH   5  11
ATOM     11  S   UNL     1       2.018   3.610   5.127  0.00  0.00    +0.056 S 
ATOM     12  O   UNL     1       1.250   3.019   6.166  0.00  0.00    -0.153 OA
ATOM     13  O   UNL     1       3.422   3.420   5.015  0.00  0.00    -0.153 OA
BRANCH  11  14
ATOM     14  N   UNL     1       1.768   5.244   5.223  0.00  0.00    -0.204 NA
ATOM     15  H   UNL     1       1.667   5.669   6.089  0.00  0.00    +0.144 HD
ATOM     16  H   UNL     1       1.722   5.776   4.413  0.00  0.00    +0.144 HD
ENDBRANCH  11  14
ENDBRANCH   5  11
BRANCH  10  17
ATOM     17  C   UNL     1      -3.862   0.617  -0.479  0.00  0.00    +0.250 C 
ATOM     18  O   UNL     1      -4.268   0.745   0.660  0.00  0.00    -0.273 OA
BRANCH  17  19
ATOM     19  C   UNL     1      -4.785   0.108  -1.556  0.00  0.00    +0.137 C 
BRANCH  19  20
ATOM     20  C   UNL     1      -4.224  -1.164  -2.138  0.00  0.00    -0.031 A 
ATOM     21  C   UNL     1      -3.795  -2.177  -1.301  0.00  0.00    +0.005 A 
ATOM     22  C   UNL     1      -3.285  -3.346  -1.835  0.00  0.00    +0.000 A 
ATOM     23  C   UNL     1      -3.195  -3.497  -3.206  0.00  0.00    +0.000 A 
ATOM     24  C   UNL     1      -3.619  -2.482  -4.043  0.00  0.00    +0.000 A 
ATOM     25  C   UNL     1      -4.134  -1.316  -3.509  0.00  0.00    +0.005 A 
ENDBRANCH  19  20
BRANCH  19  26
ATOM     26  C   UNL     1      -6.143  -0.167  -0.964  0.00  0.00    -0.031 A 
ATOM     27  C   UNL     1      -6.287  -1.123   0.023  0.00  0.00    +0.005 A 
ATOM     28  C   UNL     1      -7.532  -1.372   0.569  0.00  0.00    +0.000 A 
ATOM     29  C   UNL     1      -8.636  -0.671   0.121  0.00  0.00    +0.000 A 
ATOM     30  C   UNL     1      -8.493   0.282  -0.871  0.00  0.00    +0.000 A 
ATOM     31  C   UNL     1      -7.247   0.534  -1.413  0.00  0.00    +0.005 A 
ENDBRANCH  19  26
ENDBRANCH  17  19
ENDBRANCH  10  17
BRANCH   1  32
ATOM     32  C   UNL     1       0.191   1.657  -1.232  0.00  0.00    +0.244 C 
BRANCH  32  33
ATOM     33  C   UNL     1      -0.750   2.114  -2.317  0.00  0.00    +0.327 C 
ATOM     34  O   UNL     1      -1.798   2.640  -2.025  0.00  0.00    -0.249 OA
BRANCH  33  35
ATOM     35  O   UNL     1      -0.424   1.936  -3.607  0.00  0.00    -0.464 OA
BRANCH  35  37
ATOM     36  C   UNL     1      -0.838   2.114  -6.000  0.00  0.00    +0.048 C 
ATOM     37  C   UNL     1      -1.379   2.400  -4.598  0.00  0.00    +0.229 C 
ENDBRANCH  35  37
ENDBRANCH  33  35
ENDBRANCH  32  33
ENDBRANCH   1  32
TORSDOF 10
