REMARK  Name = ZINC09564329
REMARK  9 active torsions:
REMARK  status: ('A' for Active; 'I' for Inactive)
REMARK    1  A    between atoms: C_1  and  S_2
REMARK    2  A    between atoms: S_2  and  C_3
REMARK    3  A    between atoms: C_3  and  C_4
REMARK    4  A    between atoms: C_4  and  N_5
REMARK    5  A    between atoms: C_9  and  S_25
REMARK    6  A    between atoms: N_14  and  C_15
REMARK    7  A    between atoms: C_15  and  C_17
REMARK    8  A    between atoms: C_17  and  N_18
REMARK    9  A    between atoms: S_25  and  C_28
REMARK                            x       y       z     vdW  Elec       q    Type
REMARK                         _______ _______ _______ _____ _____    ______ ____
ROOT
ATOM      1  N   UNL     1       2.406   6.833   3.383  0.00  0.00    -0.320 N 
ATOM      2  C   UNL     1       2.516   7.095   4.736  0.00  0.00    +0.058 A 
ATOM      3  C   UNL     1       2.825   8.310   5.366  0.00  0.00    +0.029 A 
ATOM      4  C   UNL     1       2.899   8.393   6.736  0.00  0.00    +0.029 A 
ATOM      5  C   UNL     1       2.672   7.285   7.536  0.00  0.00    +0.089 A 
ATOM      6  C   UNL     1       2.366   6.074   6.941  0.00  0.00    +0.044 A 
ATOM      7  C   UNL     1       2.291   5.990   5.571  0.00  0.00    +0.041 A 
ATOM      8  S   UNL     1       1.939   4.680   4.427  0.00  0.00    -0.052 S 
ATOM      9  C   UNL     1       2.091   5.582   2.954  0.00  0.00    +0.166 A 
ATOM     10  N   UNL     1       1.940   5.152   1.703  0.00  0.00    -0.155 NA
ENDROOT
BRANCH   5  11
ATOM     11  S   UNL     1       2.773   7.417   9.290  0.00  0.00    -0.006 S 
ATOM     12  O   UNL     1       3.105   6.108   9.733  0.00  0.00    -0.170 OA
ATOM     13  O   UNL     1       3.656   8.506   9.522  0.00  0.00    -0.170 OA
ATOM     14  C   UNL     1       1.094   7.850   9.822  0.00  0.00    +0.200 C 
ENDBRANCH   5  11
BRANCH  10  15
ATOM     15  C   UNL     1       1.634   3.881   1.470  0.00  0.00    +0.256 C 
ATOM     16  O   UNL     1       1.491   3.110   2.399  0.00  0.00    -0.272 OA
BRANCH  15  17
ATOM     17  C   UNL     1       1.464   3.394   0.054  0.00  0.00    +0.214 C 
BRANCH  17  18
ATOM     18  N   UNL     1       1.131   1.968   0.064  0.00  0.00    -0.233 N 
ATOM     19  C   UNL     1      -0.130   1.518   0.113  0.00  0.00    +0.223 C 
ATOM     20  O   UNL     1      -1.122   2.213   0.150  0.00  0.00    -0.275 OA
ATOM     21  C   UNL     1      -0.119   0.005   0.110  0.00  0.00    +0.105 C 
ATOM     22  C   UNL     1       1.382  -0.346   0.050  0.00  0.00    +0.105 C 
ATOM     23  C   UNL     1       2.061   1.006   0.025  0.00  0.00    +0.223 C 
ATOM     24  O   UNL     1       3.259   1.189  -0.022  0.00  0.00    -0.275 OA
ENDBRANCH  17  18
ENDBRANCH  15  17
ENDBRANCH  10  15
BRANCH   1  25
ATOM     25  C   UNL     1       2.624   7.907   2.411  0.00  0.00    +0.135 C 
BRANCH  25  26
ATOM     26  C   UNL     1       3.332   7.341   1.177  0.00  0.00    +0.090 C 
BRANCH  26  28
ATOM     27  C   UNL     1       4.581   7.870  -1.339  0.00  0.00    +0.084 C 
ATOM     28  S   UNL     1       3.762   8.697   0.052  0.00  0.00    -0.162 S 
ENDBRANCH  26  28
ENDBRANCH  25  26
ENDBRANCH   1  25
TORSDOF 7
