REMARK  Name = ZINC14544898
REMARK  6 active torsions:
REMARK  status: ('A' for Active; 'I' for Inactive)
REMARK    1  A    between atoms: C_1  and  C_2
REMARK    2  A    between atoms: C_6  and  C_38
REMARK    3  A    between atoms: C_7  and  N_8
REMARK    4  A    between atoms: N_8  and  S_9
REMARK    5  A    between atoms: S_9  and  C_12
REMARK    6  A    between atoms: C_25  and  C_28
REMARK                            x       y       z     vdW  Elec       q    Type
REMARK                         _______ _______ _______ _____ _____    ______ ____
ROOT
ATOM      1  C   UNL     1      -1.395  11.006  -0.567  0.00  0.00    +0.109 A 
ATOM      2  C   UNL     1      -0.307  11.043  -1.421  0.00  0.00    +0.030 A 
ATOM      3  C   UNL     1       0.564   9.973  -1.465  0.00  0.00    +0.025 A 
ATOM      4  C   UNL     1       0.349   8.867  -0.652  0.00  0.00    +0.031 A 
ATOM      5  C   UNL     1      -0.738   8.827   0.207  0.00  0.00    -0.018 A 
ATOM      6  C   UNL     1      -1.608   9.908   0.241  0.00  0.00    +0.034 A 
ATOM      7  C   UNL     1      -1.008   7.660   1.103  0.00  0.00    +0.049 C 
ATOM      8  C   UNL     1      -2.157   6.825   0.589  0.00  0.00    -0.023 C 
ATOM      9  C   UNL     1      -1.932   5.555   0.818  0.00  0.00    -0.030 C 
ATOM     10  C   UNL     1      -0.603   5.369   1.523  0.00  0.00    +0.033 C 
ATOM     11  C   UNL     1       0.174   6.674   1.180  0.00  0.00    +0.029 C 
ATOM     12  C   UNL     1       0.789   6.487  -0.209  0.00  0.00    +0.107 C 
ATOM     13  N   UNL     1       1.240   7.790  -0.708  0.00  0.00    -0.336 N 
ATOM     14  H   UNL     1       2.134   7.903  -1.069  0.00  0.00    +0.147 HD
ENDROOT
BRANCH  12  15
ATOM     15  C   UNL     1       1.964   5.547  -0.118  0.00  0.00    -0.002 A 
ATOM     16  C   UNL     1       3.253   5.893   0.026  0.00  0.00    +0.089 A 
ATOM     17  N   UNL     1       4.035   4.770   0.071  0.00  0.00    -0.360 N 
ATOM     18  H   UNL     1       5.000   4.766   0.171  0.00  0.00    +0.165 HD
ATOM     19  C   UNL     1       3.247   3.647  -0.045  0.00  0.00    +0.047 A 
ATOM     20  C   UNL     1       1.916   4.084  -0.169  0.00  0.00    +0.005 A 
ATOM     21  C   UNL     1       0.886   3.152  -0.305  0.00  0.00    +0.010 A 
ATOM     22  C   UNL     1       1.177   1.817  -0.323  0.00  0.00    +0.001 A 
ATOM     23  C   UNL     1       2.488   1.380  -0.195  0.00  0.00    +0.002 A 
ATOM     24  C   UNL     1       3.520   2.283  -0.060  0.00  0.00    +0.026 A 
ENDBRANCH  12  15
BRANCH   1  25
ATOM     25  S   UNL     1      -2.511  12.368  -0.510  0.00  0.00    +0.072 S 
ATOM     26  O   UNL     1      -2.313  13.107  -1.708  0.00  0.00    -0.150 OA
ATOM     27  O   UNL     1      -3.778  11.840  -0.141  0.00  0.00    -0.150 OA
BRANCH  25  28
ATOM     28  N   UNL     1      -2.026  13.347   0.735  0.00  0.00    -0.216 N 
ATOM     29  H   UNL     1      -2.594  13.458   1.514  0.00  0.00    +0.174 HD
BRANCH  28  36
ATOM     30  C   UNL     1       0.138  12.340   2.283  0.00  0.00    +0.046 C 
ATOM     31  C   UNL     1       0.284  13.554   1.403  0.00  0.00    -0.028 A 
ATOM     32  C   UNL     1       1.496  14.211   1.327  0.00  0.00    +0.005 A 
ATOM     33  C   UNL     1       1.629  15.329   0.524  0.00  0.00    +0.001 A 
ATOM     34  C   UNL     1       0.551  15.790  -0.209  0.00  0.00    +0.005 A 
ATOM     35  C   UNL     1      -0.663  15.135  -0.141  0.00  0.00    -0.028 A 
ATOM     36  C   UNL     1      -0.800  14.012   0.664  0.00  0.00    +0.054 A 
ATOM     37  C   UNL     1      -1.837  15.638  -0.940  0.00  0.00    +0.046 C 
ENDBRANCH  28  36
ENDBRANCH  25  28
ENDBRANCH   1  25
TORSDOF 4
