REMARK  Name = ZINC66991807
REMARK  10 active torsions:
REMARK  status: ('A' for Active; 'I' for Inactive)
REMARK    1  A    between atoms: C_1  and  C_2
REMARK    2  A    between atoms: N_8  and  C_9
REMARK    3  A    between atoms: C_12  and  C_15
REMARK    4  A    between atoms: C_15  and  C_17
REMARK    5  A    between atoms: C_15  and  N_18
REMARK    6  A    between atoms: N_18  and  C_19
REMARK    7  A    between atoms: C_19  and  C_20
REMARK    8  A    between atoms: C_23  and  O_27
REMARK    9  A    between atoms: O_27  and  C_28
REMARK   10  A    between atoms: C_28  and  C_29
REMARK                            x       y       z     vdW  Elec       q    Type
REMARK                         _______ _______ _______ _____ _____    ______ ____
ROOT
ATOM      1  C   UNL     1      -0.612   0.353   6.598  0.00  0.00    -0.044 C 
ATOM      2  C   UNL     1       0.253   1.480   7.167  0.00  0.00    -0.009 C 
ENDROOT
BRANCH   1   6
ATOM      3  C   UNL     1       0.414  -0.302   2.502  0.00  0.00    +0.038 A 
ATOM      4  C   UNL     1      -0.711   0.445   2.826  0.00  0.00    +0.024 A 
ATOM      5  C   UNL     1      -1.039   0.655   4.151  0.00  0.00    +0.004 A 
ATOM      6  C   UNL     1      -0.250   0.122   5.154  0.00  0.00    -0.062 A 
ATOM      7  C   UNL     1       0.871  -0.622   4.834  0.00  0.00    +0.004 A 
ATOM      8  C   UNL     1       1.202  -0.840   3.510  0.00  0.00    +0.024 A 
BRANCH   3  15
ATOM      9  C   UNL     1      -0.019   1.526   0.010  0.00  0.00    +0.030 C 
ATOM     10  C   UNL     1       0.002  -0.004   0.002  0.00  0.00    +0.097 C 
ATOM     11  C   UNL     1       0.792  -0.528  -1.213  0.00  0.00    +0.128 C 
ATOM     12  N   UNL     1       1.904  -1.279  -0.613  0.00  0.00    -0.297 N 
ATOM     13  C   UNL     1       1.805  -1.221   0.722  0.00  0.00    +0.307 C 
ATOM     14  O   UNL     1       2.598  -1.760   1.470  0.00  0.00    -0.252 OA
ATOM     15  N   UNL     1       0.750  -0.516   1.160  0.00  0.00    -0.251 N 
ATOM     16  H   UNL     1       2.599  -1.744  -1.105  0.00  0.00    +0.150 HD
ENDBRANCH   3  15
ENDBRANCH   1   6
BRANCH   1  17
ATOM     17  N   UNL     1      -0.377  -0.879   7.365  0.00  0.00    +0.386 N 
ATOM     18  H   UNL     1      -0.884  -1.641   6.940  0.00  0.00    -0.085 HD
ATOM     19  H   UNL     1       0.609  -1.091   7.367  0.00  0.00    -0.085 HD
BRANCH  17  20
ATOM     20  C   UNL     1      -0.841  -0.692   8.746  0.00  0.00    -0.046 C 
BRANCH  20  21
ATOM     21  C   UNL     1      -0.601  -1.955   9.532  0.00  0.00    -0.063 A 
ATOM     22  C   UNL     1      -1.574  -2.936   9.576  0.00  0.00    +0.005 A 
ATOM     23  C   UNL     1      -1.357  -4.095  10.297  0.00  0.00    +0.047 A 
ATOM     24  C   UNL     1      -0.160  -4.274  10.975  0.00  0.00    +0.139 A 
ATOM     25  C   UNL     1       0.816  -3.288  10.929  0.00  0.00    +0.083 A 
ATOM     26  C   UNL     1       0.595  -2.133  10.202  0.00  0.00    +0.025 A 
ATOM     27 CL   UNL     1       2.315  -3.509  11.776  0.00  0.00    -0.080 Cl
BRANCH  24  28
ATOM     28  O   UNL     1       0.056  -5.413  11.685  0.00  0.00    -0.487 OA
BRANCH  28  29
ATOM     29  C   UNL     1      -0.993  -6.384  11.688  0.00  0.00    +0.256 C 
BRANCH  29  30
ATOM     30  C   UNL     1      -0.577  -7.570  12.520  0.00  0.00    +0.006 C 
ATOM     31  C   UNL     1      -1.416  -8.095  13.378  0.00  0.00    +0.007 C 
ENDBRANCH  29  30
ENDBRANCH  28  29
ENDBRANCH  24  28
ENDBRANCH  20  21
ENDBRANCH  17  20
ENDBRANCH   1  17
TORSDOF 8
