REMARK  Name = ZINC24079857
REMARK  4 active torsions:
REMARK  status: ('A' for Active; 'I' for Inactive)
REMARK    1  A    between atoms: N_9  and  C_23
REMARK    2  A    between atoms: C_10  and  C_13
REMARK    3  A    between atoms: C_16  and  O_22
REMARK    4  A    between atoms: C_17  and  N_19
REMARK                            x       y       z     vdW  Elec       q    Type
REMARK                         _______ _______ _______ _____ _____    ______ ____
ROOT
ATOM      1  C   UNL     1       0.022   1.389   0.123  0.00  0.00    +0.001 A 
ATOM      2  C   UNL     1       1.208   2.103   0.051  0.00  0.00    +0.002 A 
ATOM      3  C   UNL     1       2.421   1.444  -0.021  0.00  0.00    +0.024 A 
ATOM      4  C   UNL     1       2.450   0.060  -0.022  0.00  0.00    +0.041 A 
ATOM      5  C   UNL     1       1.248  -0.667   0.043  0.00  0.00    +0.058 A 
ATOM      6  C   UNL     1       0.033   0.010   0.120  0.00  0.00    +0.015 A 
ATOM      7  C   UNL     1       1.312  -2.139   0.011  0.00  0.00    +0.254 C 
ATOM      8  O   UNL     1       0.314  -2.800   0.228  0.00  0.00    -0.270 OA
ATOM      9  N   UNL     1       2.484  -2.745  -0.260  0.00  0.00    -0.244 N 
ATOM     10  C   UNL     1       3.651  -1.978  -0.697  0.00  0.00    +0.198 C 
ATOM     11  N   UNL     1       3.646  -0.647  -0.079  0.00  0.00    -0.321 N 
ATOM     12  H   UNL     1       4.461  -0.268   0.284  0.00  0.00    +0.148 HD
ENDROOT
BRANCH   9  13
ATOM     13  C   UNL     1       2.588  -4.134  -0.120  0.00  0.00    +0.039 A 
ATOM     14  C   UNL     1       3.531  -4.678   0.742  0.00  0.00    +0.026 A 
ATOM     15  C   UNL     1       3.632  -6.048   0.878  0.00  0.00    +0.040 A 
ATOM     16  C   UNL     1       2.793  -6.880   0.156  0.00  0.00    +0.124 A 
ATOM     17  C   UNL     1       1.852  -6.340  -0.704  0.00  0.00    +0.040 A 
ATOM     18  C   UNL     1       1.744  -4.970  -0.839  0.00  0.00    +0.026 A 
ATOM     19  F   UNL     1       2.894  -8.221   0.290  0.00  0.00    -0.205 F 
ENDBRANCH   9  13
BRANCH  10  20
ATOM     20  C   UNL     1       3.616  -1.828  -2.196  0.00  0.00    -0.007 A 
ATOM     21  C   UNL     1       3.023  -2.805  -2.974  0.00  0.00    +0.011 A 
ATOM     22  C   UNL     1       2.990  -2.671  -4.348  0.00  0.00    +0.048 A 
ATOM     23  C   UNL     1       3.553  -1.553  -4.948  0.00  0.00    +0.147 A 
ATOM     24  C   UNL     1       4.147  -0.574  -4.165  0.00  0.00    +0.168 A 
ATOM     25  C   UNL     1       4.173  -0.711  -2.791  0.00  0.00    +0.043 A 
BRANCH  24  26
ATOM     26  N   UNL     1       4.749   0.619  -4.802  0.00  0.00    +0.060 N 
ATOM     27  O   UNL     1       5.267   1.472  -4.119  0.00  0.00    -0.126 OA
ATOM     28  O   UNL     1       4.723   0.740  -6.004  0.00  0.00    -0.126 OA
ENDBRANCH  24  26
BRANCH  23  29
ATOM     29  O   UNL     1       3.522  -1.418  -6.300  0.00  0.00    -0.504 OA
ATOM     30  H   UNL     1       2.740  -0.957  -6.631  0.00  0.00    +0.292 HD
ENDBRANCH  23  29
ENDBRANCH  10  20
TORSDOF 4
