REMARK  Name = ZINC46842773
REMARK  10 active torsions:
REMARK  status: ('A' for Active; 'I' for Inactive)
REMARK    1  A    between atoms: C_1  and  C_2
REMARK    2  A    between atoms: C_5  and  C_8
REMARK    3  A    between atoms: C_8  and  C_34
REMARK    4  A    between atoms: N_11  and  C_15
REMARK    5  A    between atoms: C_15  and  C_16
REMARK    6  A    between atoms: N_18  and  C_19
REMARK    7  A    between atoms: C_19  and  C_20
REMARK    8  A    between atoms: C_25  and  C_26
REMARK    9  A    between atoms: C_26  and  N_27
REMARK   10  A    between atoms: C_30  and  C_33
REMARK                            x       y       z     vdW  Elec       q    Type
REMARK                         _______ _______ _______ _____ _____    ______ ____
ROOT
ATOM      1  C   UNL     1       2.495  -7.598   1.643  0.00  0.00    +0.231 C 
ATOM      2  O   UNL     1       1.421  -7.994   1.242  0.00  0.00    -0.274 OA
ATOM      3  N   UNL     1       3.299  -8.424   2.342  0.00  0.00    -0.310 N 
ATOM      4  H   UNL     1       4.158  -8.107   2.663  0.00  0.00    +0.149 HD
ENDROOT
BRANCH   1   5
ATOM      5  C   UNL     1       2.931  -6.184   1.360  0.00  0.00    +0.213 C 
BRANCH   5   9
ATOM      6  C   UNL     1       0.059  -4.275  -0.021  0.00  0.00    +0.135 C 
ATOM      7  C   UNL     1       0.874  -4.805   1.142  0.00  0.00    +0.251 C 
ATOM      8  O   UNL     1       0.656  -4.640   2.324  0.00  0.00    -0.272 OA
ATOM      9  N   UNL     1       1.890  -5.497   0.591  0.00  0.00    -0.215 N 
ATOM     10  C   UNL     1       1.832  -5.479  -0.746  0.00  0.00    +0.310 C 
ATOM     11  O   UNL     1       2.639  -6.033  -1.465  0.00  0.00    -0.252 OA
ATOM     12  N   UNL     1       0.779  -4.778  -1.205  0.00  0.00    -0.281 N 
ATOM     13  C   UNL     1      -1.366  -4.831   0.018  0.00  0.00    +0.047 C 
ATOM     14  H   UNL     1       0.540  -4.632  -2.133  0.00  0.00    +0.152 HD
BRANCH   6  19
ATOM     15  C   UNL     1      -0.018   1.503   0.010  0.00  0.00    +0.044 C 
ATOM     16  C   UNL     1       0.002  -0.004   0.002  0.00  0.00    -0.050 A 
ATOM     17  C   UNL     1       0.006  -0.689  -1.199  0.00  0.00    +0.004 A 
ATOM     18  C   UNL     1       0.025  -2.071  -1.206  0.00  0.00    +0.006 A 
ATOM     19  C   UNL     1       0.040  -2.768  -0.013  0.00  0.00    -0.015 A 
ATOM     20  C   UNL     1       0.037  -2.084   1.188  0.00  0.00    +0.006 A 
ATOM     21  C   UNL     1       0.023  -0.702   1.195  0.00  0.00    +0.004 A 
ENDBRANCH   6  19
ENDBRANCH   5   9
ENDBRANCH   1   5
BRANCH   3  22
ATOM     22  C   UNL     1       2.876  -9.799   2.617  0.00  0.00    +0.139 C 
BRANCH  22  23
ATOM     23  C   UNL     1       3.947 -10.505   3.408  0.00  0.00    -0.029 A 
ATOM     24  C   UNL     1       4.831 -11.354   2.769  0.00  0.00    +0.005 A 
ATOM     25  C   UNL     1       5.813 -12.002   3.495  0.00  0.00    +0.000 A 
ATOM     26  C   UNL     1       5.911 -11.801   4.859  0.00  0.00    +0.000 A 
ATOM     27  C   UNL     1       5.027 -10.952   5.498  0.00  0.00    +0.002 A 
ATOM     28  C   UNL     1       4.048 -10.300   4.771  0.00  0.00    -0.059 A 
BRANCH  28  29
ATOM     29  C   UNL     1       3.087  -9.370   5.466  0.00  0.00    -0.043 C 
BRANCH  29  30
ATOM     30  N   UNL     1       1.815 -10.066   5.702  0.00  0.00    +0.382 N 
ATOM     31  C   UNL     1       2.034 -11.180   6.634  0.00  0.00    -0.078 C 
ATOM     32  C   UNL     1       0.730 -11.958   6.820  0.00  0.00    -0.016 C 
ATOM     33  C   UNL     1      -0.341 -11.020   7.385  0.00  0.00    -0.018 C 
ATOM     34  C   UNL     1      -0.508  -9.825   6.442  0.00  0.00    -0.016 C 
ATOM     35  C   UNL     1       0.842  -9.126   6.270  0.00  0.00    -0.078 C 
ATOM     36  C   UNL     1      -1.670 -11.771   7.500  0.00  0.00    +0.007 C 
ATOM     37  H   UNL     1       1.463 -10.427   4.828  0.00  0.00    -0.081 HD
ENDBRANCH  29  30
ENDBRANCH  28  29
ENDBRANCH  22  23
ENDBRANCH   3  22
TORSDOF 7
