REMARK  Name = ZINC04044269
REMARK  9 active torsions:
REMARK  status: ('A' for Active; 'I' for Inactive)
REMARK    1  A    between atoms: C_1  and  O_2
REMARK    2  A    between atoms: O_2  and  C_3
REMARK    3  A    between atoms: C_5  and  C_13
REMARK    4  A    between atoms: C_7  and  O_11
REMARK    5  A    between atoms: C_8  and  O_9
REMARK    6  A    between atoms: O_9  and  C_10
REMARK    7  A    between atoms: O_11  and  C_12
REMARK    8  A    between atoms: C_17  and  O_24
REMARK    9  A    between atoms: C_18  and  O_23
REMARK                            x       y       z     vdW  Elec       q    Type
REMARK                         _______ _______ _______ _____ _____    ______ ____
ROOT
ATOM      1  C   UNL     1       0.002  -0.004   0.002  0.00  0.00    -0.009 C 
ATOM      2  C   UNL     1      -0.018   1.502   0.010  0.00  0.00    -0.050 A 
ATOM      3  C   UNL     1      -1.249   2.144   0.031  0.00  0.00    +0.051 A 
ATOM      4  C   UNL     1      -1.318   3.525   0.036  0.00  0.00    +0.158 A 
ATOM      5  C   UNL     1      -0.145   4.275   0.032  0.00  0.00    +0.158 A 
ATOM      6  C   UNL     1       1.079   3.631   0.016  0.00  0.00    +0.053 A 
ATOM      7  C   UNL     1       1.143   2.245   0.003  0.00  0.00    -0.044 A 
ATOM      8  C   UNL     1       2.501   1.591  -0.020  0.00  0.00    +0.016 C 
ATOM      9  C   UNL     1       2.379   0.121   0.382  0.00  0.00    -0.077 C 
ATOM     10  N   UNL     1       1.316  -0.501  -0.429  0.00  0.00    +0.386 N 
ATOM     11  H   UNL     1       1.461  -0.266  -1.418  0.00  0.00    -0.085 HD
ATOM     12  H   UNL     1       1.350  -1.520  -0.311  0.00  0.00    -0.085 HD
ENDROOT
BRANCH   1  15
ATOM     13  C   UNL     1      -3.240  -1.420  -1.327  0.00  0.00    +0.165 A 
ATOM     14  C   UNL     1      -2.267  -0.954  -0.457  0.00  0.00    +0.052 A 
ATOM     15  C   UNL     1      -1.053  -0.510  -0.948  0.00  0.00    -0.050 A 
ATOM     16  C   UNL     1      -0.806  -0.525  -2.308  0.00  0.00    +0.052 A 
ATOM     17  C   UNL     1      -1.772  -0.996  -3.184  0.00  0.00    +0.165 A 
ATOM     18  C   UNL     1      -2.994  -1.442  -2.695  0.00  0.00    +0.204 A 
BRANCH  13  20
ATOM     19  C   UNL     1      -4.618  -1.805   0.573  0.00  0.00    +0.277 C 
ATOM     20  O   UNL     1      -4.434  -1.856  -0.843  0.00  0.00    -0.491 OA
ENDBRANCH  13  20
BRANCH  18  21
ATOM     21  O   UNL     1      -3.947  -1.899  -3.553  0.00  0.00    -0.488 OA
ATOM     22  C   UNL     1      -4.872  -0.938  -4.065  0.00  0.00    +0.277 C 
ENDBRANCH  18  21
BRANCH  17  23
ATOM     23  O   UNL     1      -1.526  -1.016  -4.522  0.00  0.00    -0.491 OA
ATOM     24  C   UNL     1      -0.248  -0.542  -4.954  0.00  0.00    +0.277 C 
ENDBRANCH  17  23
ENDBRANCH   1  15
BRANCH   5  25
ATOM     25  O   UNL     1      -0.203   5.634   0.044  0.00  0.00    -0.503 OA
ATOM     26  H   UNL     1      -0.227   6.034  -0.836  0.00  0.00    +0.292 HD
ENDBRANCH   5  25
BRANCH   4  27
ATOM     27  O   UNL     1      -2.527   4.148   0.051  0.00  0.00    -0.503 OA
ATOM     28  H   UNL     1      -2.884   4.334  -0.829  0.00  0.00    +0.292 HD
ENDBRANCH   4  27
TORSDOF 6
