REMARK  Name = ZINC36090046
REMARK  8 active torsions:
REMARK  status: ('A' for Active; 'I' for Inactive)
REMARK    1  A    between atoms: C_1  and  C_2
REMARK    2  A    between atoms: C_3  and  S_9
REMARK    3  A    between atoms: C_4  and  C_8
REMARK    4  A    between atoms: S_9  and  N_12
REMARK    5  A    between atoms: N_12  and  C_13
REMARK    6  A    between atoms: C_13  and  C_14
REMARK    7  A    between atoms: C_14  and  C_16
REMARK    8  A    between atoms: C_14  and  N_21
REMARK                            x       y       z     vdW  Elec       q    Type
REMARK                         _______ _______ _______ _____ _____    ______ ____
ROOT
ATOM      1  C   UNL     1       2.462  -1.093  -3.262  0.00  0.00    +0.096 C 
ENDROOT
BRANCH   1   2
ATOM      2  N   UNL     1       1.763   0.187  -3.121  0.00  0.00    -0.191 NA
ATOM      3  H   UNL     1       2.191   1.008  -3.411  0.00  0.00    +0.148 HD
BRANCH   2   4
ATOM      4  S   UNL     1       0.242   0.232  -2.467  0.00  0.00    +0.062 S 
ATOM      5  O   UNL     1      -0.517  -0.765  -3.137  0.00  0.00    -0.153 OA
ATOM      6  O   UNL     1      -0.148   1.598  -2.442  0.00  0.00    -0.153 OA
BRANCH   4   9
ATOM      7  C   UNL     1       0.783   2.017   0.236  0.00  0.00    +0.067 C 
ATOM      8  C   UNL     1       0.606   0.521   0.276  0.00  0.00    +0.060 A 
ATOM      9  C   UNL     1       0.381  -0.284  -0.788  0.00  0.00    +0.148 A 
ATOM     10  C   UNL     1       0.278  -1.598  -0.320  0.00  0.00    +0.086 A 
ATOM     11  N   UNL     1       0.435  -1.582   0.979  0.00  0.00    -0.177 NA
ATOM     12  N   UNL     1       0.649  -0.257   1.378  0.00  0.00    -0.280 N 
ATOM     13  H   UNL     1       0.800   0.049   2.286  0.00  0.00    +0.189 HD
ATOM     14  C   UNL     1       0.028  -2.820  -1.165  0.00  0.00    +0.069 C 
ENDBRANCH   4   9
ENDBRANCH   2   4
ENDBRANCH   1   2
BRANCH   1  15
ATOM     15  C   UNL     1       3.638  -0.928  -4.226  0.00  0.00    -0.015 C 
BRANCH  15  16
ATOM     16  N   UNL     1       3.159  -0.353  -5.490  0.00  0.00    +0.385 N 
ATOM     17  C   UNL     1       2.116  -1.238  -6.047  0.00  0.00    -0.078 C 
ATOM     18  C   UNL     1       1.228  -0.415  -6.947  0.00  0.00    -0.019 C 
ATOM     19  C   UNL     1       1.661  -0.527  -8.421  0.00  0.00    -0.002 C 
ATOM     20  C   UNL     1       3.195  -0.502  -8.570  0.00  0.00    -0.002 C 
ATOM     21  C   UNL     1       3.844   0.513  -7.664  0.00  0.00    -0.019 C 
ATOM     22  C   UNL     1       4.249  -0.177  -6.344  0.00  0.00    -0.078 C 
ATOM     23  H   UNL     1       2.748   0.548  -5.300  0.00  0.00    -0.081 HD
ENDBRANCH  15  16
BRANCH  15  24
ATOM     24  C   UNL     1       4.263  -2.274  -4.491  0.00  0.00    -0.022 A 
ATOM     25  C   UNL     1       5.376  -2.821  -3.944  0.00  0.00    +0.009 A 
ATOM     26  C   UNL     1       5.766  -4.086  -4.342  0.00  0.00    +0.008 A 
ATOM     27  C   UNL     1       5.024  -4.742  -5.269  0.00  0.00    +0.045 A 
ATOM     28  S   UNL     1       3.725  -3.564  -5.602  0.00  0.00    -0.103 S 
ENDBRANCH  15  24
ENDBRANCH   1  15
TORSDOF 6
