REMARK  Name = ZINC32721401
REMARK  6 active torsions:
REMARK  status: ('A' for Active; 'I' for Inactive)
REMARK    1  A    between atoms: C_3  and  S_28
REMARK    2  A    between atoms: C_6  and  C_7
REMARK    3  A    between atoms: C_7  and  C_8
REMARK    4  A    between atoms: C_8  and  C_9
REMARK    5  A    between atoms: C_15  and  C_17
REMARK    6  A    between atoms: S_28  and  N_31
REMARK                            x       y       z     vdW  Elec       q    Type
REMARK                         _______ _______ _______ _____ _____    ______ ____
ROOT
ATOM      1  C   UNL     1      -0.399   5.780  -5.632  0.00  0.00    +0.216 C 
ATOM      2  O   UNL     1      -1.202   4.887  -5.462  0.00  0.00    -0.276 OA
ATOM      3  N   UNL     1       0.864   5.644  -5.182  0.00  0.00    -0.294 N 
ATOM      4  C   UNL     1       1.937   6.646  -5.319  0.00  0.00    +0.108 C 
ATOM      5  C   UNL     1       3.253   5.831  -5.238  0.00  0.00    +0.021 C 
ATOM      6  C   UNL     1       2.889   4.756  -4.180  0.00  0.00    +0.029 C 
ATOM      7  C   UNL     1       1.400   4.473  -4.473  0.00  0.00    +0.106 C 
ENDROOT
BRANCH   7   8
ATOM      8  C   UNL     1       0.653   4.270  -3.180  0.00  0.00    -0.023 A 
ATOM      9  C   UNL     1       0.297   5.363  -2.412  0.00  0.00    +0.009 A 
ATOM     10  C   UNL     1      -0.389   5.184  -1.223  0.00  0.00    +0.050 A 
ATOM     11  C   UNL     1      -0.719   3.906  -0.807  0.00  0.00    +0.162 A 
ATOM     12  C   UNL     1      -0.362   2.809  -1.579  0.00  0.00    +0.162 A 
ATOM     13  C   UNL     1       0.326   2.991  -2.767  0.00  0.00    +0.055 A 
ATOM     14  O   UNL     1      -0.692   1.553  -1.159  0.00  0.00    -0.488 OA
ATOM     15  C   UNL     1      -0.013   1.086   0.008  0.00  0.00    +0.232 C 
ATOM     16  C   UNL     1      -0.712   1.570   1.269  0.00  0.00    +0.082 C 
ATOM     17  C   UNL     1      -0.662   3.083   1.413  0.00  0.00    +0.232 C 
ATOM     18  O   UNL     1      -1.395   3.716   0.363  0.00  0.00    -0.488 OA
ENDBRANCH   7   8
BRANCH   1  19
ATOM     19  C   UNL     1      -0.813   7.041  -6.345  0.00  0.00    +0.100 C 
BRANCH  19  20
ATOM     20  C   UNL     1      -2.286   6.939  -6.748  0.00  0.00    +0.044 C 
BRANCH  20  26
ATOM     21  C   UNL     1      -3.215   9.262  -6.744  0.00  0.00    +0.005 A 
ATOM     22  C   UNL     1      -3.591  10.421  -7.398  0.00  0.00    +0.029 A 
ATOM     23  C   UNL     1      -3.461  10.512  -8.771  0.00  0.00    +0.105 A 
ATOM     24  C   UNL     1      -2.950   9.447  -9.490  0.00  0.00    +0.029 A 
ATOM     25  C   UNL     1      -2.570   8.291  -8.835  0.00  0.00    +0.005 A 
ATOM     26  C   UNL     1      -2.700   8.199  -7.462  0.00  0.00    -0.047 A 
BRANCH  23  27
ATOM     27  S   UNL     1      -3.946  11.987  -9.606  0.00  0.00    +0.056 S 
ATOM     28  O   UNL     1      -3.882  13.035  -8.648  0.00  0.00    -0.153 OA
ATOM     29  O   UNL     1      -3.215  12.023 -10.824  0.00  0.00    -0.153 OA
BRANCH  27  30
ATOM     30  N   UNL     1      -5.541  11.816 -10.015  0.00  0.00    -0.204 NA
ATOM     31  H   UNL     1      -5.884  12.719 -10.541  0.00  0.00    +0.144 HD
ATOM     32  H   UNL     1      -6.140  11.672  -9.104  0.00  0.00    +0.144 HD
ENDBRANCH  27  30
ENDBRANCH  23  27
ENDBRANCH  20  26
ENDBRANCH  19  20
ENDBRANCH   1  19
TORSDOF 6
