REMARK  Name = ZINC25523966
REMARK  7 active torsions:
REMARK  status: ('A' for Active; 'I' for Inactive)
REMARK    1  A    between atoms: C_1  and  C_2
REMARK    2  A    between atoms: C_4  and  C_24
REMARK    3  A    between atoms: C_5  and  N_9
REMARK    4  A    between atoms: C_10  and  C_12
REMARK    5  A    between atoms: C_12  and  C_14
REMARK    6  A    between atoms: C_12  and  N_15
REMARK    7  A    between atoms: C_18  and  C_21
REMARK                            x       y       z     vdW  Elec       q    Type
REMARK                         _______ _______ _______ _____ _____    ______ ____
ROOT
ATOM      1  C   UNL     1      -0.030   5.650   0.122  0.00  0.00    +0.016 C 
ATOM      2  C   UNL     1       1.000   6.081   1.168  0.00  0.00    -0.004 C 
ENDROOT
BRANCH   1   3
ATOM      3  N   UNL     1      -1.360   6.134   0.517  0.00  0.00    +0.387 N 
ATOM      4  C   UNL     1      -1.344   7.583   0.754  0.00  0.00    -0.077 C 
ATOM      5  C   UNL     1      -2.703   8.026   1.302  0.00  0.00    -0.006 C 
ATOM      6  C   UNL     1      -3.796   7.668   0.292  0.00  0.00    +0.071 C 
ATOM      7  C   UNL     1      -3.760   6.160   0.026  0.00  0.00    -0.006 C 
ATOM      8  C   UNL     1      -2.371   5.771  -0.485  0.00  0.00    -0.077 C 
ATOM      9  H   UNL     1      -1.634   5.642   1.462  0.00  0.00    -0.081 HD
BRANCH   6  10
ATOM     10  C   UNL     1      -5.143   8.048   0.852  0.00  0.00    +0.213 C 
ATOM     11  O   UNL     1      -5.991   7.198   1.022  0.00  0.00    -0.276 OA
ATOM     12  N   UNL     1      -5.405   9.333   1.164  0.00  0.00    -0.329 N 
ATOM     13  H   UNL     1      -6.388   9.610   1.572  0.00  0.00    +0.145 HD
ATOM     14  H   UNL     1      -4.636  10.104   1.010  0.00  0.00    +0.145 HD
ENDBRANCH   6  10
ENDBRANCH   1   3
BRANCH   1  16
ATOM     15  N   UNL     1       0.820   3.511  -0.781  0.00  0.00    -0.285 N 
ATOM     16  C   UNL     1      -0.051   4.146   0.027  0.00  0.00    +0.203 C 
ATOM     17  O   UNL     1      -0.851   3.508   0.678  0.00  0.00    -0.277 OA
ATOM     18  H   UNL     1       1.605   4.080  -1.301  0.00  0.00    +0.155 HD
BRANCH  15  23
ATOM     19  C   UNL     1       0.438  -2.104  -1.507  0.00  0.00    +0.044 C 
ATOM     20  C   UNL     1       0.539  -0.613  -1.314  0.00  0.00    -0.049 A 
ATOM     21  C   UNL     1       0.574   0.225  -2.414  0.00  0.00    +0.008 A 
ATOM     22  C   UNL     1       0.667   1.592  -2.241  0.00  0.00    -0.028 A 
ATOM     23  C   UNL     1       0.726   2.126  -0.960  0.00  0.00    +0.055 A 
ATOM     24  C   UNL     1       0.692   1.282   0.143  0.00  0.00    +0.063 A 
ATOM     25  C   UNL     1       0.598  -0.086  -0.037  0.00  0.00    +0.025 A 
ATOM     26 CL   UNL     1       0.758   1.944   1.746  0.00  0.00    -0.082 Cl
ATOM     27  C   UNL     1       0.705   2.503  -3.440  0.00  0.00    +0.046 C 
ENDBRANCH  15  23
ENDBRANCH   1  16
TORSDOF 4
