REMARK  Name = ZINC15087273
REMARK  7 active torsions:
REMARK  status: ('A' for Active; 'I' for Inactive)
REMARK    1  A    between atoms: C_1  and  C_2
REMARK    2  A    between atoms: C_2  and  O_3
REMARK    3  A    between atoms: O_3  and  C_4
REMARK    4  A    between atoms: C_4  and  C_6
REMARK    5  A    between atoms: C_6  and  N_7
REMARK    6  A    between atoms: C_13  and  C_32
REMARK    7  A    between atoms: N_22  and  C_25
REMARK                            x       y       z     vdW  Elec       q    Type
REMARK                         _______ _______ _______ _____ _____    ______ ____
ROOT
ATOM      1  N   UNL     1      -2.780  -3.832  -0.074  0.00  0.00    -0.286 N 
ATOM      2  C   UNL     1      -2.748  -4.542  -1.249  0.00  0.00    +0.091 A 
ATOM      3  C   UNL     1      -2.657  -5.882  -1.104  0.00  0.00    +0.033 A 
ATOM      4  S   UNL     1      -2.608  -6.096   0.656  0.00  0.00    -0.030 S 
ATOM      5  C   UNL     1      -2.712  -4.478   1.105  0.00  0.00    +0.292 A 
ATOM      6  O   UNL     1      -2.723  -4.005   2.228  0.00  0.00    -0.259 OA
ATOM      7  C   UNL     1      -2.618  -6.956  -2.155  0.00  0.00    +0.072 C 
ATOM      8  C   UNL     1      -3.188  -6.395  -3.433  0.00  0.00    +0.110 C 
ATOM      9  C   UNL     1      -2.300  -5.199  -3.891  0.00  0.00    +0.152 C 
ATOM     10  S   UNL     1      -2.806  -3.791  -2.869  0.00  0.00    -0.093 S 
ATOM     11  C   UNL     1      -2.716  -5.110  -5.334  0.00  0.00    +0.240 C 
ATOM     12  O   UNL     1      -2.748  -4.113  -6.022  0.00  0.00    -0.274 OA
ATOM     13  N   UNL     1      -3.047  -6.372  -5.712  0.00  0.00    -0.209 N 
ATOM     14  C   UNL     1      -3.152  -7.227  -4.676  0.00  0.00    +0.232 C 
ATOM     15  O   UNL     1      -3.217  -8.436  -4.746  0.00  0.00    -0.274 OA
ENDROOT
BRANCH  13  16
ATOM     16  C   UNL     1      -3.241  -6.747  -7.049  0.00  0.00    +0.044 A 
ATOM     17  C   UNL     1      -3.585  -8.055  -7.361  0.00  0.00    +0.025 A 
ATOM     18  C   UNL     1      -3.776  -8.422  -8.679  0.00  0.00    +0.022 A 
ATOM     19  C   UNL     1      -3.624  -7.487  -9.688  0.00  0.00    +0.041 A 
ATOM     20  C   UNL     1      -3.281  -6.183  -9.379  0.00  0.00    +0.022 A 
ATOM     21  C   UNL     1      -3.095  -5.809  -8.062  0.00  0.00    +0.025 A 
ATOM     22 CL   UNL     1      -3.864  -7.952 -11.343  0.00  0.00    -0.084 Cl
ENDBRANCH  13  16
BRANCH   7  23
ATOM     23  C   UNL     1      -1.193  -7.393  -2.379  0.00  0.00    -0.039 A 
ATOM     24  C   UNL     1      -0.162  -6.480  -2.255  0.00  0.00    +0.004 A 
ATOM     25  C   UNL     1       1.144  -6.881  -2.461  0.00  0.00    +0.000 A 
ATOM     26  C   UNL     1       1.421  -8.195  -2.791  0.00  0.00    +0.000 A 
ATOM     27  C   UNL     1       0.390  -9.108  -2.914  0.00  0.00    +0.000 A 
ATOM     28  C   UNL     1      -0.917  -8.708  -2.704  0.00  0.00    +0.004 A 
ENDBRANCH   7  23
BRANCH   1  29
ATOM     29  C   UNL     1      -2.883  -2.371  -0.104  0.00  0.00    +0.246 C 
BRANCH  29  30
ATOM     30  C   UNL     1      -1.501  -1.771  -0.142  0.00  0.00    +0.327 C 
ATOM     31  O   UNL     1      -0.530  -2.490  -0.143  0.00  0.00    -0.249 OA
BRANCH  30  32
ATOM     32  O   UNL     1      -1.349  -0.437  -0.173  0.00  0.00    -0.464 OA
BRANCH  32  34
ATOM     33  C   UNL     1      -0.038   1.592  -0.241  0.00  0.00    +0.048 C 
ATOM     34  C   UNL     1      -0.011   0.062  -0.208  0.00  0.00    +0.229 C 
ENDBRANCH  32  34
ENDBRANCH  30  32
ENDBRANCH  29  30
ENDBRANCH   1  29
TORSDOF 6
