REMARK  Name = ZINC55103872
REMARK  5 active torsions:
REMARK  status: ('A' for Active; 'I' for Inactive)
REMARK    1  A    between atoms: C_4  and  C_7
REMARK    2  A    between atoms: C_12  and  C_16
REMARK    3  A    between atoms: C_16  and  O_37
REMARK    4  A    between atoms: N_23  and  C_26
REMARK    5  A    between atoms: C_26  and  C_27
REMARK                            x       y       z     vdW  Elec       q    Type
REMARK                         _______ _______ _______ _____ _____    ______ ____
ROOT
ATOM      1  C   UNL     1       6.119  -4.564   1.303  0.00  0.00    +0.178 C 
ATOM      2  C   UNL     1       7.367  -3.766   1.004  0.00  0.00    +0.015 A 
ATOM      3  C   UNL     1       8.210  -3.720  -0.083  0.00  0.00    +0.009 A 
ATOM      4  C   UNL     1       9.303  -2.870  -0.073  0.00  0.00    +0.000 A 
ATOM      5  C   UNL     1       9.543  -2.071   1.029  0.00  0.00    +0.002 A 
ATOM      6  C   UNL     1       8.700  -2.116   2.120  0.00  0.00    +0.024 A 
ATOM      7  C   UNL     1       7.597  -2.969   2.118  0.00  0.00    +0.043 A 
ATOM      8  N   UNL     1       6.614  -3.191   3.082  0.00  0.00    -0.264 N 
ATOM      9  C   UNL     1       5.713  -4.107   2.688  0.00  0.00    +0.257 C 
ATOM     10  O   UNL     1       4.754  -4.494   3.323  0.00  0.00    -0.272 OA
ENDROOT
BRANCH   1  16
ATOM     11  C   UNL     1       3.547  -0.784   0.015  0.00  0.00    +0.015 C 
ATOM     12  C   UNL     1       3.601  -2.132   0.124  0.00  0.00    -0.004 C 
ATOM     13  C   UNL     1       2.313  -2.904   0.166  0.00  0.00    +0.039 C 
ATOM     14  C   UNL     1       2.574  -4.376  -0.157  0.00  0.00    +0.006 C 
ATOM     15  C   UNL     1       3.708  -4.886   0.739  0.00  0.00    +0.015 C 
ATOM     16  C   UNL     1       5.020  -4.241   0.289  0.00  0.00    +0.105 C 
ATOM     17  C   UNL     1       4.856  -2.751   0.188  0.00  0.00    +0.166 C 
ATOM     18  O   UNL     1       5.851  -2.055   0.166  0.00  0.00    -0.292 OA
BRANCH  11  22
ATOM     19  C   UNL     1      -0.184   1.216   0.264  0.00  0.00    +0.000 A 
ATOM     20  C   UNL     1       0.084   0.152   1.107  0.00  0.00    +0.001 A 
ATOM     21  C   UNL     1       1.294  -0.504   1.033  0.00  0.00    +0.008 A 
ATOM     22  C   UNL     1       2.253  -0.091   0.101  0.00  0.00    -0.025 A 
ATOM     23  C   UNL     1       1.975   0.986  -0.748  0.00  0.00    +0.008 A 
ATOM     24  C   UNL     1       0.760   1.631  -0.660  0.00  0.00    +0.001 A 
ENDBRANCH  11  22
ENDBRANCH   1  16
BRANCH   1  25
ATOM     25  O   UNL     1       6.404  -5.964   1.302  0.00  0.00    -0.374 OA
ATOM     26  H   UNL     1       7.094  -6.226   1.927  0.00  0.00    +0.211 HD
ENDBRANCH   1  25
BRANCH   8  27
ATOM     27  C   UNL     1       6.570  -2.506   4.376  0.00  0.00    +0.149 C 
BRANCH  27  28
ATOM     28  C   UNL     1       5.685  -1.290   4.270  0.00  0.00    -0.022 A 
ATOM     29  C   UNL     1       5.176  -0.917   3.064  0.00  0.00    +0.006 A 
ATOM     30  C   UNL     1       4.357   0.204   2.947  0.00  0.00    +0.001 A 
ATOM     31  C   UNL     1       4.042   0.959   4.035  0.00  0.00    +0.008 A 
ATOM     32  C   UNL     1       4.549   0.605   5.296  0.00  0.00    -0.018 A 
ATOM     33  C   UNL     1       5.377  -0.539   5.417  0.00  0.00    -0.013 A 
ATOM     34  C   UNL     1       5.879  -0.896   6.680  0.00  0.00    +0.009 A 
ATOM     35  C   UNL     1       5.559  -0.145   7.769  0.00  0.00    +0.001 A 
ATOM     36  C   UNL     1       4.739   0.976   7.651  0.00  0.00    +0.001 A 
ATOM     37  C   UNL     1       4.246   1.360   6.442  0.00  0.00    +0.008 A 
ENDBRANCH  27  28
ENDBRANCH   8  27
TORSDOF 5
