REMARK  Name = ZINC39669945
REMARK  12 active torsions:
REMARK  status: ('A' for Active; 'I' for Inactive)
REMARK    1  A    between atoms: C_1  and  C_2
REMARK    2  A    between atoms: N_4  and  C_38
REMARK    3  A    between atoms: C_5  and  C_8
REMARK    4  A    between atoms: C_12  and  C_21
REMARK    5  A    between atoms: N_23  and  C_24
REMARK    6  A    between atoms: C_24  and  C_25
REMARK    7  A    between atoms: C_25  and  C_26
REMARK    8  A    between atoms: C_32  and  O_36
REMARK    9  A    between atoms: O_36  and  C_37
REMARK   10  A    between atoms: C_38  and  C_39
REMARK   11  A    between atoms: C_38  and  C_40
REMARK   12  A    between atoms: C_38  and  C_41
REMARK                            x       y       z     vdW  Elec       q    Type
REMARK                         _______ _______ _______ _____ _____    ______ ____
ROOT
ATOM      1  C   UNL     1       1.300  -2.803   0.965  0.00  0.00    +0.238 C 
ATOM      2  O   UNL     1       2.156  -2.911   0.113  0.00  0.00    -0.273 OA
ATOM      3  N   UNL     1       1.604  -3.030   2.258  0.00  0.00    -0.299 N 
ATOM      4  C   UNL     1       0.700  -2.955   3.430  0.00  0.00    +0.121 C 
ATOM      5  C   UNL     1       1.121  -4.143   4.325  0.00  0.00    +0.100 C 
ATOM      6  C   UNL     1       2.578  -4.436   3.927  0.00  0.00    -0.004 C 
ATOM      7  C   UNL     1       2.916  -3.418   2.829  0.00  0.00    +0.115 C 
ATOM      8  C   UNL     1       2.700  -5.855   3.378  0.00  0.00    -0.010 C 
ATOM      9  C   UNL     1       4.166  -6.143   3.044  0.00  0.00    -0.082 C 
ATOM     10  N   UNL     1       4.985  -5.992   4.253  0.00  0.00    +0.379 N 
ATOM     11  C   UNL     1       4.935  -4.601   4.721  0.00  0.00    -0.082 C 
ATOM     12  C   UNL     1       3.502  -4.248   5.126  0.00  0.00    -0.010 C 
ATOM     13  H   UNL     1       4.631  -6.601   4.975  0.00  0.00    -0.086 HD
ATOM     14  H   UNL     1       5.940  -6.241   4.044  0.00  0.00    -0.086 HD
ENDROOT
BRANCH   1  19
ATOM     15  C   UNL     1      -0.896   0.858  -1.336  0.00  0.00    +0.062 C 
ATOM     16  C   UNL     1      -0.625  -0.533  -0.825  0.00  0.00    +0.036 C 
ATOM     17  N   UNL     1      -0.656  -1.589  -1.529  0.00  0.00    -0.192 NA
ATOM     18  N   UNL     1      -0.368  -2.759  -0.829  0.00  0.00    -0.238 N 
ATOM     19  C   UNL     1      -0.103  -2.414   0.578  0.00  0.00    +0.184 C 
ATOM     20  C   UNL     1      -0.269  -0.881   0.603  0.00  0.00    +0.085 C 
BRANCH  18  21
ATOM     21  C   UNL     1      -0.337  -4.109  -1.398  0.00  0.00    +0.044 C 
ATOM     22  C   UNL     1       0.774  -4.194  -2.447  0.00  0.00    +0.033 C 
ATOM     23  C   UNL     1      -0.067  -5.125  -0.286  0.00  0.00    +0.033 C 
ATOM     24  C   UNL     1      -1.683  -4.417  -2.055  0.00  0.00    +0.033 C 
ENDBRANCH  18  21
ENDBRANCH   1  19
BRANCH   5  25
ATOM     25  C   UNL     1       1.039  -3.759   5.779  0.00  0.00    +0.218 C 
ATOM     26  O   UNL     1       1.241  -2.611   6.116  0.00  0.00    -0.275 OA
ATOM     27  N   UNL     1       0.743  -4.691   6.707  0.00  0.00    -0.315 N 
ATOM     28  H   UNL     1       0.582  -5.609   6.438  0.00  0.00    +0.149 HD
BRANCH  27  29
ATOM     29  C   UNL     1       0.663  -4.317   8.121  0.00  0.00    +0.112 C 
BRANCH  29  30
ATOM     30  C   UNL     1       0.313  -5.551   8.955  0.00  0.00    +0.093 C 
BRANCH  30  31
ATOM     31  C   UNL     1       0.232  -5.168  10.410  0.00  0.00    +0.110 A 
ATOM     32  H   UNL     1      -1.680  -5.805  10.957  0.00  0.00    +0.167 HD
ATOM     33  N   UNL     1       1.177  -4.576  11.079  0.00  0.00    -0.232 NA
ATOM     34  C   UNL     1       0.774  -4.377  12.361  0.00  0.00    +0.089 A 
ATOM     35  C   UNL     1       1.378  -3.800  13.481  0.00  0.00    +0.033 A 
ATOM     36  C   UNL     1       0.703  -3.743  14.667  0.00  0.00    +0.048 A 
ATOM     37  C   UNL     1      -0.586  -4.256  14.774  0.00  0.00    +0.122 A 
ATOM     38  C   UNL     1      -1.202  -4.833  13.678  0.00  0.00    +0.073 A 
ATOM     39  C   UNL     1      -0.527  -4.896  12.467  0.00  0.00    +0.070 A 
ATOM     40  N   UNL     1      -0.845  -5.384  11.215  0.00  0.00    -0.342 N 
BRANCH  37  41
ATOM     41  O   UNL     1      -1.243  -4.192  15.963  0.00  0.00    -0.495 OA
ATOM     42  C   UNL     1      -0.550  -3.585  17.055  0.00  0.00    +0.277 C 
ENDBRANCH  37  41
ENDBRANCH  30  31
ENDBRANCH  29  30
ENDBRANCH  27  29
ENDBRANCH   5  25
TORSDOF 7
