REMARK  Name = ZINC52909598
REMARK  12 active torsions:
REMARK  status: ('A' for Active; 'I' for Inactive)
REMARK    1  A    between atoms: C_1  and  C_2
REMARK    2  A    between atoms: C_2  and  C_4
REMARK    3  A    between atoms: C_2  and  N_16
REMARK    4  A    between atoms: N_6  and  C_7
REMARK    5  A    between atoms: C_12  and  C_13
REMARK    6  A    between atoms: C_13  and  C_15
REMARK    7  A    between atoms: C_19  and  N_22
REMARK    8  A    between atoms: C_23  and  O_25
REMARK    9  A    between atoms: O_25  and  C_26
REMARK   10  A    between atoms: C_26  and  C_27
REMARK   11  A    between atoms: C_26  and  C_28
REMARK   12  A    between atoms: C_26  and  C_29
REMARK                            x       y       z     vdW  Elec       q    Type
REMARK                         _______ _______ _______ _____ _____    ______ ____
ROOT
ATOM      1  N   UNL     1       1.163  -0.948   0.416  0.00  0.00    +0.387 N 
ATOM      2  C   UNL     1       1.115  -2.159  -0.412  0.00  0.00    -0.076 C 
ATOM      3  C   UNL     1       2.103  -3.193   0.132  0.00  0.00    +0.004 C 
ATOM      4  C   UNL     1       3.517  -2.606   0.098  0.00  0.00    +0.073 C 
ATOM      5  C   UNL     1       3.538  -1.303   0.903  0.00  0.00    +0.004 C 
ATOM      6  C   UNL     1       2.497  -0.340   0.331  0.00  0.00    -0.076 C 
ATOM      7  H   UNL     1       0.966  -1.190   1.375  0.00  0.00    -0.081 HD
ENDROOT
BRANCH   4   8
ATOM      8  N   UNL     1       4.458  -3.562   0.687  0.00  0.00    -0.278 N 
ATOM      9  C   UNL     1       5.760  -3.528   0.339  0.00  0.00    +0.401 C 
ATOM     10  O   UNL     1       6.152  -2.705  -0.465  0.00  0.00    -0.226 OA
ATOM     11  H   UNL     1       4.145  -4.218   1.329  0.00  0.00    +0.152 HD
BRANCH   9  12
ATOM     12  O   UNL     1       6.625  -4.406   0.880  0.00  0.00    -0.445 OA
BRANCH  12  13
ATOM     13  C   UNL     1       7.989  -4.313   0.465  0.00  0.00    +0.107 C 
ATOM     14  C   UNL     1       8.536  -2.928   0.816  0.00  0.00    +0.055 C 
ATOM     15  C   UNL     1       8.814  -5.384   1.182  0.00  0.00    +0.055 C 
ATOM     16  C   UNL     1       8.077  -4.529  -1.047  0.00  0.00    +0.055 C 
ENDBRANCH  12  13
ENDBRANCH   9  12
ENDBRANCH   4   8
BRANCH   1  18
ATOM     17  C   UNL     1       0.248   1.298   0.760  0.00  0.00    -0.004 C 
ATOM     18  C   UNL     1       0.158   0.011  -0.063  0.00  0.00    +0.016 C 
BRANCH  18  19
ATOM     19  C   UNL     1      -1.217  -0.586   0.088  0.00  0.00    +0.203 C 
ATOM     20  O   UNL     1      -1.429  -1.412   0.951  0.00  0.00    -0.277 OA
ATOM     21  N   UNL     1      -2.212  -0.203  -0.736  0.00  0.00    -0.286 N 
ATOM     22  H   UNL     1      -2.028   0.405  -1.470  0.00  0.00    +0.155 HD
BRANCH  21  23
ATOM     23  C   UNL     1      -3.505  -0.677  -0.534  0.00  0.00    +0.044 A 
ATOM     24  C   UNL     1      -3.945  -0.982   0.747  0.00  0.00    +0.024 A 
ATOM     25  C   UNL     1      -5.227  -1.454   0.945  0.00  0.00    +0.002 A 
ATOM     26  C   UNL     1      -6.085  -1.627  -0.130  0.00  0.00    +0.001 A 
ATOM     27  C   UNL     1      -5.670  -1.331  -1.408  0.00  0.00    +0.013 A 
ATOM     28  C   UNL     1      -4.374  -0.846  -1.626  0.00  0.00    +0.038 A 
BRANCH  28  29
ATOM     29  C   UNL     1      -3.925  -0.523  -2.985  0.00  0.00    +0.162 C 
ATOM     30  O   UNL     1      -2.771  -0.204  -3.183  0.00  0.00    -0.292 OA
ATOM     31  C   UNL     1      -4.897  -0.586  -4.135  0.00  0.00    +0.091 C 
ENDBRANCH  28  29
ENDBRANCH  21  23
ENDBRANCH  18  19
ENDBRANCH   1  18
TORSDOF 7
