REMARK  Name = ZINC39481023
REMARK  9 active torsions:
REMARK  status: ('A' for Active; 'I' for Inactive)
REMARK    1  A    between atoms: C_1  and  C_2
REMARK    2  A    between atoms: C_5  and  N_25
REMARK    3  A    between atoms: C_6  and  N_8
REMARK    4  A    between atoms: C_12  and  S_15
REMARK    5  A    between atoms: S_15  and  O_18
REMARK    6  A    between atoms: O_18  and  C_19
REMARK    7  A    between atoms: N_25  and  S_26
REMARK    8  A    between atoms: S_26  and  C_29
REMARK    9  A    between atoms: C_29  and  C_30
REMARK                            x       y       z     vdW  Elec       q    Type
REMARK                         _______ _______ _______ _____ _____    ______ ____
ROOT
ATOM      1  C   UNL     1      -1.212   0.983   0.810  0.00  0.00    +0.044 C 
ATOM      2  C   UNL     1      -0.944  -0.500   0.835  0.00  0.00    -0.049 A 
ATOM      3  C   UNL     1      -0.669  -1.169  -0.343  0.00  0.00    +0.005 A 
ATOM      4  C   UNL     1      -0.421  -2.530  -0.328  0.00  0.00    +0.026 A 
ATOM      5  C   UNL     1      -0.449  -3.226   0.871  0.00  0.00    +0.069 A 
ATOM      6  C   UNL     1      -0.726  -2.550   2.059  0.00  0.00    +0.053 A 
ATOM      7  C   UNL     1      -0.968  -1.185   2.035  0.00  0.00    +0.028 A 
ENDROOT
BRANCH   6   8
ATOM      8  N   UNL     1      -0.756  -3.248   3.273  0.00  0.00    -0.330 N 
ATOM      9  C   UNL     1       0.458  -3.394   4.091  0.00  0.00    +0.086 C 
ATOM     10  C   UNL     1       0.626  -4.874   4.449  0.00  0.00    -0.061 C 
ATOM     11  N   UNL     1      -0.600  -5.364   5.091  0.00  0.00    +0.398 N 
ATOM     12  C   UNL     1      -1.717  -5.313   4.140  0.00  0.00    +0.133 C 
ATOM     13  C   UNL     1      -2.003  -3.850   3.769  0.00  0.00    +0.115 C 
ATOM     14  H   UNL     1      -0.462  -6.316   5.395  0.00  0.00    -0.083 HD
ATOM     15  H   UNL     1      -0.814  -4.787   5.891  0.00  0.00    -0.083 HD
BRANCH  12  16
ATOM     16  S   UNL     1      -3.194  -6.042   4.901  0.00  0.00    +0.109 S 
ATOM     17  O   UNL     1      -3.444  -5.436   6.162  0.00  0.00    -0.138 OA
ATOM     18  O   UNL     1      -4.231  -6.164   3.938  0.00  0.00    -0.138 OA
BRANCH  16  19
ATOM     19  O   UNL     1      -2.798  -7.474   5.230  0.00  0.00    -0.347 OA
BRANCH  19  20
ATOM     20  C   UNL     1      -2.738  -8.293   4.147  0.00  0.00    +0.156 A 
ATOM     21  C   UNL     1      -3.863  -9.000   3.748  0.00  0.00    +0.048 A 
ATOM     22  C   UNL     1      -3.799  -9.832   2.647  0.00  0.00    +0.004 A 
ATOM     23  C   UNL     1      -2.616  -9.961   1.943  0.00  0.00    +0.000 A 
ATOM     24  C   UNL     1      -1.493  -9.258   2.340  0.00  0.00    +0.004 A 
ATOM     25  C   UNL     1      -1.553  -8.420   3.437  0.00  0.00    +0.048 A 
ENDBRANCH  19  20
ENDBRANCH  16  19
ENDBRANCH  12  16
ENDBRANCH   6   8
BRANCH   5  26
ATOM     26  N   UNL     1      -0.199  -4.604   0.888  0.00  0.00    -0.219 N 
ATOM     27  H   UNL     1      -0.674  -5.175   1.513  0.00  0.00    +0.173 HD
BRANCH  26  28
ATOM     28  S   UNL     1       0.906  -5.258  -0.157  0.00  0.00    +0.047 S 
ATOM     29  O   UNL     1       0.966  -6.634   0.194  0.00  0.00    -0.155 OA
ATOM     30  O   UNL     1       0.465  -4.859  -1.448  0.00  0.00    -0.155 OA
BRANCH  28  31
ATOM     31  C   UNL     1       2.473  -4.441   0.249  0.00  0.00    +0.223 C 
BRANCH  31  32
ATOM     32  C   UNL     1       3.562  -4.966  -0.651  0.00  0.00    -0.025 A 
ATOM     33  C   UNL     1       4.300  -6.071  -0.271  0.00  0.00    +0.005 A 
ATOM     34  C   UNL     1       5.298  -6.553  -1.097  0.00  0.00    +0.000 A 
ATOM     35  C   UNL     1       5.558  -5.930  -2.303  0.00  0.00    +0.000 A 
ATOM     36  C   UNL     1       4.819  -4.825  -2.684  0.00  0.00    +0.000 A 
ATOM     37  C   UNL     1       3.818  -4.346  -1.860  0.00  0.00    +0.005 A 
ENDBRANCH  31  32
ENDBRANCH  28  31
ENDBRANCH  26  28
ENDBRANCH   5  26
TORSDOF 8
