REMARK  Name = ZINC28328048
REMARK  8 active torsions:
REMARK  status: ('A' for Active; 'I' for Inactive)
REMARK    1  A    between atoms: C_1  and  C_2
REMARK    2  A    between atoms: C_2  and  C_4
REMARK    3  A    between atoms: C_2  and  N_14
REMARK    4  A    between atoms: C_7  and  S_10
REMARK    5  A    between atoms: S_10  and  N_13
REMARK    6  A    between atoms: N_14  and  C_15
REMARK    7  A    between atoms: C_16  and  C_18
REMARK    8  A    between atoms: C_19  and  C_20
REMARK                            x       y       z     vdW  Elec       q    Type
REMARK                         _______ _______ _______ _____ _____    ______ ____
ROOT
ATOM      1  C   UNL     1      -0.810   9.966  -3.008  0.00  0.00    +0.033 C 
ATOM      2  C   UNL     1      -1.475   9.566  -1.690  0.00  0.00    +0.103 C 
ENDROOT
BRANCH   2   3
ATOM      3  C   UNL     1      -2.840  10.198  -1.603  0.00  0.00    -0.027 A 
ATOM      4  C   UNL     1      -3.801   9.902  -2.552  0.00  0.00    +0.007 A 
ATOM      5  C   UNL     1      -5.054  10.479  -2.470  0.00  0.00    +0.029 A 
ATOM      6  C   UNL     1      -5.344  11.360  -1.445  0.00  0.00    +0.105 A 
ATOM      7  C   UNL     1      -4.381  11.661  -0.499  0.00  0.00    +0.029 A 
ATOM      8  C   UNL     1      -3.129  11.080  -0.579  0.00  0.00    +0.007 A 
BRANCH   6   9
ATOM      9  S   UNL     1      -6.939  12.101  -1.344  0.00  0.00    +0.056 S 
ATOM     10  O   UNL     1      -7.832  11.237  -2.034  0.00  0.00    -0.153 OA
ATOM     11  O   UNL     1      -7.132  12.467   0.015  0.00  0.00    -0.153 OA
BRANCH   9  12
ATOM     12  N   UNL     1      -6.880  13.511  -2.211  0.00  0.00    -0.204 NA
ATOM     13  H   UNL     1      -7.861  14.006  -2.173  0.00  0.00    +0.144 HD
ATOM     14  H   UNL     1      -6.622  13.288  -3.257  0.00  0.00    +0.144 HD
ENDBRANCH   9  12
ENDBRANCH   6   9
ENDBRANCH   2   3
BRANCH   2  15
ATOM     15  N   UNL     1      -1.608   8.108  -1.634  0.00  0.00    -0.294 N 
ATOM     16  C   UNL     1      -2.278   7.391  -2.722  0.00  0.00    +0.133 C 
ATOM     17  C   UNL     1      -1.114   7.426  -0.581  0.00  0.00    +0.240 C 
ATOM     18  O   UNL     1      -0.558   8.022   0.323  0.00  0.00    -0.271 OA
BRANCH  17  19
ATOM     19  C   UNL     1      -1.247   5.970  -0.525  0.00  0.00    +0.068 C 
ATOM     20  C   UNL     1      -0.753   5.288   0.529  0.00  0.00    +0.016 C 
BRANCH  20  21
ATOM     21  C   UNL     1      -0.887   3.824   0.586  0.00  0.00    +0.012 A 
ATOM     22  C   UNL     1       0.230   3.025   0.858  0.00  0.00    +0.049 A 
ATOM     23  C   UNL     1       0.096   1.652   0.908  0.00  0.00    +0.020 A 
ATOM     24  C   UNL     1      -1.139   1.066   0.692  0.00  0.00    +0.003 A 
ATOM     25  C   UNL     1      -2.247   1.847   0.417  0.00  0.00    +0.020 A 
ATOM     26  C   UNL     1      -2.132   3.222   0.367  0.00  0.00    +0.049 A 
ATOM     27 CL   UNL     1      -3.525   4.201   0.030  0.00  0.00    -0.083 Cl
ATOM     28 CL   UNL     1       1.779   3.759   1.131  0.00  0.00    -0.083 Cl
ENDBRANCH  20  21
ENDBRANCH  17  19
ENDBRANCH   2  15
TORSDOF 6
