REMARK  Name = ZINC08728203
REMARK  9 active torsions:
REMARK  status: ('A' for Active; 'I' for Inactive)
REMARK    1  A    between atoms: C_1  and  C_2
REMARK    2  A    between atoms: C_5  and  C_32
REMARK    3  A    between atoms: C_10  and  C_12
REMARK    4  A    between atoms: C_12  and  N_63
REMARK    5  A    between atoms: C_17  and  C_19
REMARK    6  A    between atoms: C_17  and  C_20
REMARK    7  A    between atoms: C_17  and  N_65
REMARK    8  A    between atoms: N_22  and  C_23
REMARK    9  A    between atoms: C_26  and  N_29
REMARK                            x       y       z     vdW  Elec       q    Type
REMARK                         _______ _______ _______ _____ _____    ______ ____
ROOT
ATOM      1  C   UNL     1      -2.206  -4.496   0.061  0.00  0.00    -0.097 C 
ATOM      2  C   UNL     1      -2.466  -2.987   0.063  0.00  0.00    -0.097 C 
ATOM      3  C   UNL     1      -0.554  -2.656  -1.385  0.00  0.00    -0.097 C 
ATOM      4  C   UNL     1      -0.295  -4.165  -1.387  0.00  0.00    -0.097 C 
ATOM      5  N   UNL     1      -1.584  -4.870  -1.227  0.00  0.00    +0.383 N 
ATOM      6  H   UNL     1      -2.211  -4.598  -1.992  0.00  0.00    -0.081 HD
ATOM      7  N   UNL     1      -1.177  -2.282  -0.097  0.00  0.00    +0.385 N 
ATOM      8  H   UNL     1      -0.549  -2.555   0.668  0.00  0.00    -0.081 HD
ENDROOT
BRANCH   7   9
ATOM      9  C   UNL     1      -1.391  -0.820  -0.045  0.00  0.00    +0.016 C 
ATOM     10  C   UNL     1      -2.564  -0.419  -0.942  0.00  0.00    -0.004 C 
BRANCH   9  11
ATOM     11  C   UNL     1      -1.688  -0.424   1.378  0.00  0.00    +0.203 C 
ATOM     12  O   UNL     1      -1.972  -1.272   2.197  0.00  0.00    -0.277 OA
ATOM     13  N   UNL     1      -1.638   0.874   1.741  0.00  0.00    -0.287 N 
ATOM     14  H   UNL     1      -1.344   1.544   1.104  0.00  0.00    +0.155 HD
BRANCH  13  15
ATOM     15  C   UNL     1      -2.005   1.252   3.037  0.00  0.00    +0.033 A 
ATOM     16  C   UNL     1      -2.650   2.463   3.252  0.00  0.00    +0.025 A 
ATOM     17  C   UNL     1      -3.016   2.831   4.532  0.00  0.00    +0.034 A 
ATOM     18  C   UNL     1      -2.729   2.001   5.600  0.00  0.00    +0.126 A 
ATOM     19  C   UNL     1      -2.082   0.797   5.390  0.00  0.00    +0.034 A 
ATOM     20  C   UNL     1      -1.719   0.421   4.112  0.00  0.00    +0.025 A 
BRANCH  18  21
ATOM     21  N   UNL     1      -3.117   2.401   6.971  0.00  0.00    +0.056 N 
ATOM     22  O   UNL     1      -2.866   1.671   7.913  0.00  0.00    -0.126 OA
ATOM     23  O   UNL     1      -3.688   3.461   7.157  0.00  0.00    -0.126 OA
ENDBRANCH  18  21
ENDBRANCH  13  15
ENDBRANCH   9  11
ENDBRANCH   7   9
BRANCH   5  24
ATOM     24  C   UNL     1      -1.369  -6.332  -1.278  0.00  0.00    +0.019 C 
BRANCH  24  32
ATOM     25  C   UNL     1      -1.852 -11.299  -1.505  0.00  0.00    +0.009 C 
ATOM     26  C   UNL     1      -1.792 -10.135  -2.497  0.00  0.00    +0.004 C 
ATOM     27  C   UNL     1      -1.264 -10.637  -3.842  0.00  0.00    +0.009 C 
ATOM     28  C   UNL     1      -1.234  -9.481  -4.844  0.00  0.00    +0.004 C 
ATOM     29  C   UNL     1      -0.289  -8.390  -4.331  0.00  0.00    +0.111 C 
ATOM     30  N   UNL     1      -0.704  -8.004  -2.976  0.00  0.00    -0.303 N 
ATOM     31  C   UNL     1      -0.847  -9.051  -1.955  0.00  0.00    +0.111 C 
ATOM     32  C   UNL     1      -0.944  -6.713  -2.673  0.00  0.00    +0.199 C 
ATOM     33  O   UNL     1      -0.818  -5.857  -3.523  0.00  0.00    -0.278 OA
ATOM     34  C   UNL     1      -0.738  -9.991  -6.199  0.00  0.00    +0.009 C 
ENDBRANCH  24  32
ENDBRANCH   5  24
TORSDOF 6
