REMARK  Name = ZINC64150850
REMARK  6 active torsions:
REMARK  status: ('A' for Active; 'I' for Inactive)
REMARK    1  A    between atoms: C_2  and  C_3
REMARK    2  A    between atoms: C_3  and  N_4
REMARK    3  A    between atoms: C_5  and  C_26
REMARK    4  A    between atoms: C_8  and  S_9
REMARK    5  A    between atoms: S_9  and  C_10
REMARK    6  A    between atoms: C_10  and  C_11
REMARK                            x       y       z     vdW  Elec       q    Type
REMARK                         _______ _______ _______ _____ _____    ______ ____
ROOT
ATOM      1  S   UNL     1       0.251  -3.863  -0.230  0.00  0.00    -0.078 S 
ENDROOT
BRANCH   1   6
ATOM      2  N   UNL     1       1.367  -1.676   1.111  0.00  0.00    -0.302 N 
ATOM      3  C   UNL     1       1.833  -1.425   2.373  0.00  0.00    +0.139 A 
ATOM      4  N   UNL     1       1.697  -2.523   3.061  0.00  0.00    -0.133 NA
ATOM      5  N   UNL     1       1.181  -3.444   2.327  0.00  0.00    -0.122 NA
ATOM      6  C   UNL     1       0.954  -2.977   1.121  0.00  0.00    +0.192 A 
BRANCH   3   7
ATOM      7  C   UNL     1       2.398  -0.122   2.874  0.00  0.00    +0.079 C 
ATOM      8  C   UNL     1       1.553   0.380   4.057  0.00  0.00    +0.035 C 
ATOM      9  C   UNL     1       2.327   1.540   4.747  0.00  0.00    +0.166 C 
ATOM     10  S   UNL     1       4.045   0.876   4.697  0.00  0.00    -0.030 S 
ATOM     11  O   UNL     1       4.928   1.910   4.285  0.00  0.00    -0.174 OA
ATOM     12  O   UNL     1       4.305   0.173   5.904  0.00  0.00    -0.174 OA
ATOM     13  C   UNL     1       3.862  -0.337   3.327  0.00  0.00    +0.177 C 
ENDBRANCH   3   7
BRANCH   2  14
ATOM     14  C   UNL     1       1.317  -0.740  -0.015  0.00  0.00    +0.152 C 
BRANCH  14  16
ATOM     15  C   UNL     1      -0.016   1.306   0.009  0.00  0.00    +0.005 C 
ATOM     16  C   UNL     1       0.002  -0.004   0.002  0.00  0.00    -0.013 C 
ENDBRANCH  14  16
ENDBRANCH   2  14
ENDBRANCH   1   6
BRANCH   1  17
ATOM     17  C   UNL     1      -0.067  -5.515   0.447  0.00  0.00    +0.151 C 
BRANCH  17  18
ATOM     18  C   UNL     1      -0.677  -6.386  -0.621  0.00  0.00    +0.134 C 
ATOM     19  N   UNL     1      -0.874  -5.868  -1.809  0.00  0.00    -0.160 NA
ATOM     20  C   UNL     1      -1.411  -6.558  -2.821  0.00  0.00    +0.271 C 
ATOM     21  O   UNL     1      -1.576  -6.045  -3.915  0.00  0.00    -0.268 OA
ATOM     22  C   UNL     1      -1.804  -7.981  -2.567  0.00  0.00    +0.071 C 
ATOM     23  C   UNL     1      -2.413  -8.834  -3.410  0.00  0.00    -0.042 C 
ATOM     24  C   UNL     1      -2.978  -8.430  -4.770  0.00  0.00    +0.033 C 
ATOM     25  C   UNL     1      -4.453  -8.852  -4.780  0.00  0.00    +0.004 C 
ATOM     26  C   UNL     1      -4.582 -10.328  -4.410  0.00  0.00    +0.002 C 
ATOM     27  C   UNL     1      -4.091 -10.577  -2.981  0.00  0.00    +0.019 C 
ATOM     28  C   UNL     1      -2.593 -10.266  -2.918  0.00  0.00    +0.079 C 
ATOM     29  S   UNL     1      -2.052 -10.140  -1.172  0.00  0.00    -0.097 S 
ATOM     30  C   UNL     1      -1.521  -8.446  -1.193  0.00  0.00    +0.111 C 
ATOM     31  N   UNL     1      -0.982  -7.637  -0.312  0.00  0.00    -0.227 NA
ENDBRANCH  17  18
ENDBRANCH   1  17
TORSDOF 6
