REMARK  Name = ZINC22401616
REMARK  8 active torsions:
REMARK  status: ('A' for Active; 'I' for Inactive)
REMARK    1  A    between atoms: C_1  and  C_2
REMARK    2  A    between atoms: C_2  and  C_38
REMARK    3  A    between atoms: C_4  and  N_13
REMARK    4  A    between atoms: C_14  and  C_16
REMARK    5  A    between atoms: C_16  and  N_17
REMARK    6  A    between atoms: N_17  and  C_18
REMARK    7  A    between atoms: N_17  and  S_25
REMARK    8  A    between atoms: S_25  and  C_28
REMARK                            x       y       z     vdW  Elec       q    Type
REMARK                         _______ _______ _______ _____ _____    ______ ____
ROOT
ATOM      1  N   UNL     1       4.355  -1.060  -1.616  0.00  0.00    -0.194 N 
ENDROOT
BRANCH   1   2
ATOM      2  C   UNL     1       4.031  -2.260  -2.253  0.00  0.00    +0.055 A 
ATOM      3  C   UNL     1       3.385  -2.242  -3.484  0.00  0.00    +0.025 A 
ATOM      4  C   UNL     1       3.071  -3.429  -4.115  0.00  0.00    +0.005 A 
ATOM      5  C   UNL     1       3.387  -4.636  -3.519  0.00  0.00    +0.038 A 
ATOM      6  C   UNL     1       4.026  -4.659  -2.291  0.00  0.00    +0.125 A 
ATOM      7  C   UNL     1       4.349  -3.472  -1.657  0.00  0.00    +0.063 A 
ATOM      8  F   UNL     1       4.334  -5.840  -1.711  0.00  0.00    -0.205 F 
ENDBRANCH   1   2
BRANCH   1   9
ATOM      9  S   UNL     1       3.734  -0.725  -0.118  0.00  0.00    +0.075 S 
ATOM     10  O   UNL     1       4.684   0.102   0.540  0.00  0.00    -0.150 OA
ATOM     11  O   UNL     1       3.294  -1.962   0.426  0.00  0.00    -0.150 OA
BRANCH   9  12
ATOM     12  C   UNL     1       2.293   0.260  -0.359  0.00  0.00    +0.112 A 
ATOM     13  C   UNL     1       2.397   1.638  -0.399  0.00  0.00    +0.032 A 
ATOM     14  C   UNL     1       1.268   2.413  -0.587  0.00  0.00    +0.051 A 
ATOM     15  C   UNL     1       0.028   1.811  -0.737  0.00  0.00    +0.162 A 
ATOM     16  C   UNL     1      -0.076   0.425  -0.699  0.00  0.00    +0.164 A 
ATOM     17  C   UNL     1       1.060  -0.347  -0.509  0.00  0.00    +0.078 A 
ATOM     18  O   UNL     1      -1.282  -0.187  -0.852  0.00  0.00    -0.485 OA
ATOM     19  C   UNL     1      -2.445   0.627  -0.664  0.00  0.00    +0.270 C 
ATOM     20  C   UNL     1      -2.242   1.940  -1.433  0.00  0.00    +0.270 C 
ATOM     21  O   UNL     1      -1.075   2.588  -0.913  0.00  0.00    -0.485 OA
ENDBRANCH   9  12
ENDBRANCH   1   9
BRANCH   1  22
ATOM     22  C   UNL     1       5.244  -0.098  -2.272  0.00  0.00    +0.227 C 
BRANCH  22  24
ATOM     23  N   UNL     1       7.677   0.282  -2.498  0.00  0.00    -0.307 N 
ATOM     24  C   UNL     1       6.678  -0.467  -1.992  0.00  0.00    +0.233 C 
ATOM     25  O   UNL     1       6.932  -1.437  -1.310  0.00  0.00    -0.274 OA
ATOM     26  H   UNL     1       7.447   1.163  -3.116  0.00  0.00    +0.149 HD
BRANCH  23  30
ATOM     27  C   UNL     1      12.355   0.784  -4.027  0.00  0.00    +0.055 C 
ATOM     28  C   UNL     1      11.427   0.348  -2.891  0.00  0.00    +0.107 C 
ATOM     29  C   UNL     1       9.966   0.473  -3.340  0.00  0.00    +0.074 C 
ATOM     30  C   UNL     1       9.072  -0.076  -2.225  0.00  0.00    +0.110 C 
ATOM     31  C   UNL     1       9.491   0.513  -0.902  0.00  0.00    +0.015 A 
ATOM     32  C   UNL     1       8.610   0.451   0.165  0.00  0.00    +0.009 A 
ATOM     33  C   UNL     1       8.963   0.977   1.392  0.00  0.00    +0.001 A 
ATOM     34  C   UNL     1      10.201   1.569   1.560  0.00  0.00    +0.004 A 
ATOM     35  C   UNL     1      11.083   1.635   0.501  0.00  0.00    +0.046 A 
ATOM     36  C   UNL     1      10.730   1.107  -0.738  0.00  0.00    +0.126 A 
ATOM     37  O   UNL     1      11.623   1.195  -1.758  0.00  0.00    -0.486 OA
ATOM     38  C   UNL     1      11.728  -1.103  -2.508  0.00  0.00    +0.055 C 
ENDBRANCH  23  30
ENDBRANCH  22  24
ENDBRANCH   1  22
TORSDOF 6
