REMARK  Name = ZINC14755260
REMARK  8 active torsions:
REMARK  status: ('A' for Active; 'I' for Inactive)
REMARK    1  A    between atoms: C_1  and  C_2
REMARK    2  A    between atoms: C_2  and  N_3
REMARK    3  A    between atoms: C_6  and  C_8
REMARK    4  A    between atoms: C_17  and  N_65
REMARK    5  A    between atoms: C_21  and  C_22
REMARK    6  A    between atoms: C_21  and  N_65
REMARK    7  A    between atoms: C_22  and  C_23
REMARK    8  A    between atoms: C_25  and  C_28
REMARK                            x       y       z     vdW  Elec       q    Type
REMARK                         _______ _______ _______ _____ _____    ______ ____
ROOT
ATOM      1  N   UNL     1      -4.049   9.727  -6.639  0.00  0.00    -0.268 N 
ATOM      2  C   UNL     1      -4.167   9.159  -5.428  0.00  0.00    +0.043 A 
ATOM      3  C   UNL     1      -3.416   9.890  -4.567  0.00  0.00    +0.004 A 
ATOM      4  C   UNL     1      -2.849  10.924  -5.331  0.00  0.00    +0.151 A 
ATOM      5  N   UNL     1      -3.278  10.758  -6.571  0.00  0.00    -0.166 NA
ATOM      6  C   UNL     1      -3.266   9.594  -3.100  0.00  0.00    +0.023 C 
ATOM      7  C   UNL     1      -3.742   8.156  -2.849  0.00  0.00    -0.067 C 
ATOM      8  C   UNL     1      -5.112   7.950  -3.498  0.00  0.00    -0.009 C 
ATOM      9  C   UNL     1      -4.964   7.945  -5.025  0.00  0.00    +0.054 C 
ENDROOT
BRANCH   4  10
ATOM     10  C   UNL     1      -1.950  11.989  -4.845  0.00  0.00    +0.267 C 
ATOM     11  O   UNL     1      -1.540  11.963  -3.700  0.00  0.00    -0.268 OA
ATOM     12  N   UNL     1      -1.583  12.991  -5.669  0.00  0.00    -0.296 N 
ATOM     13  C   UNL     1      -2.182  13.118  -7.004  0.00  0.00    +0.108 C 
ATOM     14  C   UNL     1      -2.748  14.538  -7.153  0.00  0.00    +0.019 C 
ATOM     15  C   UNL     1      -1.643  15.555  -6.861  0.00  0.00    +0.003 C 
ATOM     16  C   UNL     1      -1.153  15.380  -5.421  0.00  0.00    +0.019 C 
ATOM     17  C   UNL     1      -0.573  13.972  -5.251  0.00  0.00    +0.108 C 
ENDBRANCH   4  10
BRANCH   7  18
ATOM     18  N   UNL     1      -3.847   7.929  -1.395  0.00  0.00    +0.381 N 
ATOM     19  H   UNL     1      -4.761   8.259  -1.066  0.00  0.00    -0.086 HD
ATOM     20  H   UNL     1      -3.103   8.450  -0.916  0.00  0.00    -0.086 HD
BRANCH  18  21
ATOM     21  C   UNL     1      -3.709   6.492  -1.090  0.00  0.00    -0.075 C 
BRANCH  21  22
ATOM     22  C   UNL     1      -3.822   6.288   0.422  0.00  0.00    +0.044 C 
BRANCH  22  23
ATOM     23  C   UNL     1      -3.682   4.822   0.743  0.00  0.00    +0.077 A 
ATOM     24  N   UNL     1      -2.595   4.140   1.009  0.00  0.00    -0.244 NA
ATOM     25  C   UNL     1      -2.640   2.844   1.273  0.00  0.00    +0.078 A 
ATOM     26  C   UNL     1      -3.863   2.228   1.256  0.00  0.00    +0.075 A 
ATOM     27  S   UNL     1      -4.921   3.611   0.853  0.00  0.00    -0.080 S 
BRANCH  25  28
ATOM     28  C   UNL     1      -1.403   2.080   1.572  0.00  0.00    +0.001 A 
ATOM     29  C   UNL     1      -0.181   2.742   1.676  0.00  0.00    +0.010 A 
ATOM     30  C   UNL     1       0.967   2.026   1.948  0.00  0.00    +0.001 A 
ATOM     31  C   UNL     1       0.906   0.655   2.119  0.00  0.00    +0.000 A 
ATOM     32  C   UNL     1      -0.304  -0.007   2.017  0.00  0.00    +0.001 A 
ATOM     33  C   UNL     1      -1.459   0.699   1.745  0.00  0.00    +0.010 A 
ENDBRANCH  25  28
ENDBRANCH  22  23
ENDBRANCH  21  22
ENDBRANCH  18  21
ENDBRANCH   7  18
BRANCH   1  35
ATOM     34  C   UNL     1      -3.787   8.243  -8.565  0.00  0.00    +0.029 C 
ATOM     35  C   UNL     1      -4.702   9.246  -7.859  0.00  0.00    +0.140 C 
ENDBRANCH   1  35
TORSDOF 7
