REMARK  Name = ZINC01651439
REMARK  8 active torsions:
REMARK  status: ('A' for Active; 'I' for Inactive)
REMARK    1  A    between atoms: C_3  and  N_14
REMARK    2  A    between atoms: C_6  and  C_7
REMARK    3  A    between atoms: C_7  and  C_9
REMARK    4  A    between atoms: C_7  and  O_13
REMARK    5  A    between atoms: N_14  and  C_15
REMARK    6  A    between atoms: C_15  and  C_16
REMARK    7  A    between atoms: C_18  and  O_23
REMARK    8  A    between atoms: C_21  and  O_22
REMARK                            x       y       z     vdW  Elec       q    Type
REMARK                         _______ _______ _______ _____ _____    ______ ____
ROOT
ATOM      1  C   UNL     1       7.167   0.863  -5.481  0.00  0.00    +0.008 A 
ATOM      2  C   UNL     1       6.425   0.779  -4.319  0.00  0.00    +0.023 A 
ATOM      3  C   UNL     1       5.498   1.769  -4.017  0.00  0.00    +0.027 A 
ATOM      4  C   UNL     1       5.317   2.836  -4.887  0.00  0.00    +0.023 A 
ATOM      5  C   UNL     1       6.066   2.916  -6.045  0.00  0.00    +0.008 A 
ATOM      6  C   UNL     1       6.988   1.930  -6.343  0.00  0.00    -0.010 A 
ENDROOT
BRANCH   3   7
ATOM      7  N   UNL     1       4.745   1.687  -2.843  0.00  0.00    -0.340 N 
ATOM      8  H   UNL     1       4.870   0.939  -2.238  0.00  0.00    +0.146 HD
BRANCH   7   9
ATOM      9  C   UNL     1       3.768   2.731  -2.526  0.00  0.00    +0.140 C 
BRANCH   9  10
ATOM     10  C   UNL     1       3.096   2.409  -1.216  0.00  0.00    +0.014 A 
ATOM     11  C   UNL     1       1.842   1.830  -1.207  0.00  0.00    +0.054 A 
ATOM     12  C   UNL     1       1.224   1.533  -0.001  0.00  0.00    +0.117 A 
ATOM     13  C   UNL     1       1.862   1.822   1.196  0.00  0.00    +0.049 A 
ATOM     14  C   UNL     1       3.119   2.396   1.187  0.00  0.00    +0.049 A 
ATOM     15  C   UNL     1       3.737   2.693  -0.019  0.00  0.00    +0.122 A 
BRANCH  15  16
ATOM     16  O   UNL     1       4.972   3.262  -0.028  0.00  0.00    -0.506 OA
ATOM     17  H   UNL     1       4.959   4.229  -0.023  0.00  0.00    +0.292 HD
ENDBRANCH  15  16
BRANCH  12  18
ATOM     18  O   UNL     1      -0.011   0.963   0.007  0.00  0.00    -0.507 OA
ATOM     19  H   UNL     1       0.002  -0.004   0.002  0.00  0.00    +0.292 HD
ENDBRANCH  12  18
ENDBRANCH   9  10
ENDBRANCH   7   9
ENDBRANCH   3   7
BRANCH   6  20
ATOM     20  C   UNL     1       7.799   2.017  -7.609  0.00  0.00    +0.248 C 
BRANCH  20  21
ATOM     21  C   UNL     1       6.955   1.533  -8.790  0.00  0.00    +0.420 C 
ATOM     22  F   UNL     1       5.816   2.336  -8.909  0.00  0.00    -0.168 F 
ATOM     23  F   UNL     1       7.708   1.614  -9.966  0.00  0.00    -0.168 F 
ATOM     24  F   UNL     1       6.569   0.206  -8.574  0.00  0.00    -0.168 F 
ENDBRANCH  20  21
BRANCH  20  25
ATOM     25  O   UNL     1       8.194   3.373  -7.830  0.00  0.00    -0.379 OA
ATOM     26  H   UNL     1       7.453   3.988  -7.923  0.00  0.00    +0.211 HD
ENDBRANCH  20  25
ENDBRANCH   6  20
TORSDOF 8
