REMARK  Name = ZINC39596315
REMARK  9 active torsions:
REMARK  status: ('A' for Active; 'I' for Inactive)
REMARK    1  A    between atoms: C_1  and  C_2
REMARK    2  A    between atoms: C_2  and  C_4
REMARK    3  A    between atoms: C_2  and  O_29
REMARK    4  A    between atoms: C_4  and  N_5
REMARK    5  A    between atoms: C_6  and  C_8
REMARK    6  A    between atoms: C_19  and  C_21
REMARK    7  A    between atoms: C_25  and  O_26
REMARK    8  A    between atoms: O_26  and  C_27
REMARK    9  A    between atoms: O_29  and  C_30
REMARK                            x       y       z     vdW  Elec       q    Type
REMARK                         _______ _______ _______ _____ _____    ______ ____
ROOT
ATOM      1  C   UNL     1       1.629  -4.000   2.413  0.00  0.00    +0.100 C 
ATOM      2  C   UNL     1       2.656  -4.436   1.345  0.00  0.00    +0.121 C 
ATOM      3  N   UNL     1       3.917  -4.639   2.098  0.00  0.00    -0.296 N 
ATOM      4  C   UNL     1       3.490  -5.274   3.367  0.00  0.00    +0.115 C 
ATOM      5  C   UNL     1       2.177  -4.555   3.739  0.00  0.00    -0.004 C 
ATOM      6  C   UNL     1       1.187  -5.543   4.348  0.00  0.00    -0.010 C 
ATOM      7  C   UNL     1       1.728  -6.036   5.693  0.00  0.00    -0.082 C 
ATOM      8  N   UNL     1       1.925  -4.893   6.592  0.00  0.00    +0.379 N 
ATOM      9  C   UNL     1       2.948  -3.995   6.043  0.00  0.00    -0.082 C 
ATOM     10  C   UNL     1       2.459  -3.415   4.713  0.00  0.00    -0.010 C 
ATOM     11  C   UNL     1       5.168  -4.318   1.715  0.00  0.00    +0.251 C 
ATOM     12  O   UNL     1       5.349  -3.703   0.681  0.00  0.00    -0.270 OA
ATOM     13  H   UNL     1       1.056  -4.391   6.691  0.00  0.00    -0.086 HD
ATOM     14  H   UNL     1       2.223  -5.226   7.497  0.00  0.00    -0.086 HD
ENDROOT
BRANCH  11  15
ATOM     15  C   UNL     1       6.315  -4.711   2.547  0.00  0.00    +0.087 A 
ATOM     16  C   UNL     1       6.252  -5.791   3.400  0.00  0.00    +0.063 A 
ATOM     17  S   UNL     1       7.767  -5.842   4.117  0.00  0.00    -0.081 S 
ATOM     18  C   UNL     1       8.536  -4.447   3.324  0.00  0.00    +0.120 A 
ATOM     19  C   UNL     1       7.564  -3.985   2.505  0.00  0.00    +0.158 A 
ATOM     20 CL   UNL     1      10.145  -3.833   3.543  0.00  0.00    -0.072 Cl
BRANCH  19  21
ATOM     21  O   UNL     1       7.749  -2.904   1.698  0.00  0.00    -0.492 OA
ATOM     22  C   UNL     1       7.424  -1.624   2.243  0.00  0.00    +0.277 C 
ENDBRANCH  19  21
ENDBRANCH  11  15
BRANCH   1  24
ATOM     23  N   UNL     1       0.450  -1.907   3.004  0.00  0.00    -0.312 N 
ATOM     24  C   UNL     1       1.539  -2.497   2.471  0.00  0.00    +0.218 C 
ATOM     25  O   UNL     1       2.446  -1.818   2.038  0.00  0.00    -0.275 OA
ATOM     26  H   UNL     1      -0.275  -2.450   3.350  0.00  0.00    +0.149 HD
BRANCH  23  27
ATOM     27  C   UNL     1       0.362  -0.446   3.060  0.00  0.00    +0.148 C 
BRANCH  27  29
ATOM     28  C   UNL     1      -1.111   1.483   3.652  0.00  0.00    +0.053 C 
ATOM     29  C   UNL     1      -0.964  -0.039   3.706  0.00  0.00    +0.187 C 
BRANCH  29  30
ATOM     30  O   UNL     1      -0.983  -0.471   5.068  0.00  0.00    -0.488 OA
BRANCH  30  31
ATOM     31  C   UNL     1      -2.202  -0.669   5.635  0.00  0.00    +0.121 A 
ATOM     32  C   UNL     1      -3.352  -0.554   4.868  0.00  0.00    +0.048 A 
ATOM     33  C   UNL     1      -4.590  -0.756   5.446  0.00  0.00    +0.042 A 
ATOM     34  C   UNL     1      -4.684  -1.072   6.791  0.00  0.00    +0.124 A 
ATOM     35  C   UNL     1      -3.537  -1.187   7.558  0.00  0.00    +0.042 A 
ATOM     36  C   UNL     1      -2.297  -0.993   6.981  0.00  0.00    +0.048 A 
ATOM     37  F   UNL     1      -5.896  -1.269   7.355  0.00  0.00    -0.205 F 
ENDBRANCH  30  31
ENDBRANCH  29  30
ENDBRANCH  27  29
ENDBRANCH  23  27
ENDBRANCH   1  24
TORSDOF 7
