REMARK  Name = ZINC43865158
REMARK  6 active torsions:
REMARK  status: ('A' for Active; 'I' for Inactive)
REMARK    1  A    between atoms: C_1  and  C_2
REMARK    2  A    between atoms: C_2  and  C_4
REMARK    3  A    between atoms: C_2  and  N_13
REMARK    4  A    between atoms: C_19  and  N_22
REMARK    5  A    between atoms: N_22  and  S_23
REMARK    6  A    between atoms: S_23  and  C_26
REMARK                            x       y       z     vdW  Elec       q    Type
REMARK                         _______ _______ _______ _____ _____    ______ ____
ROOT
ATOM      1  N   UNL     1      -1.465  -0.307  -2.311  0.00  0.00    -0.290 N 
ATOM      2  C   UNL     1      -2.051  -0.643  -1.145  0.00  0.00    +0.303 C 
ATOM      3  O   UNL     1      -1.410  -0.611  -0.112  0.00  0.00    -0.253 OA
ATOM      4  N   UNL     1      -3.346  -1.013  -1.123  0.00  0.00    -0.286 N 
ATOM      5  C   UNL     1      -4.031  -1.270   0.151  0.00  0.00    +0.111 C 
ATOM      6  C   UNL     1      -5.304  -0.420   0.207  0.00  0.00    +0.039 C 
ATOM      7  C   UNL     1      -6.157  -0.704  -1.032  0.00  0.00    +0.079 C 
ATOM      8  C   UNL     1      -5.374  -0.320  -2.290  0.00  0.00    +0.039 C 
ATOM      9  C   UNL     1      -4.103  -1.162  -2.374  0.00  0.00    +0.111 C 
ATOM     10  H   UNL     1      -1.953  -0.402  -3.144  0.00  0.00    +0.151 HD
ENDROOT
BRANCH   1  12
ATOM     11  C   UNL     1       0.888  -0.974  -2.337  0.00  0.00    +0.036 C 
ATOM     12  C   UNL     1      -0.091   0.201  -2.321  0.00  0.00    +0.137 C 
BRANCH  12  13
ATOM     13  C   UNL     1       0.122   1.049  -3.549  0.00  0.00    +0.126 A 
ATOM     14  C   UNL     1       0.821   2.191  -3.581  0.00  0.00    +0.055 A 
ATOM     15  C   UNL     1       0.764   2.667  -4.968  0.00  0.00    +0.020 A 
ATOM     16  C   UNL     1       1.279   3.775  -5.641  0.00  0.00    +0.011 A 
ATOM     17  C   UNL     1       1.036   3.929  -6.978  0.00  0.00    +0.001 A 
ATOM     18  C   UNL     1       0.280   2.992  -7.667  0.00  0.00    +0.004 A 
ATOM     19  C   UNL     1      -0.237   1.890  -7.019  0.00  0.00    +0.047 A 
ATOM     20  C   UNL     1      -0.001   1.714  -5.661  0.00  0.00    +0.135 A 
ATOM     21  O   UNL     1      -0.357   0.765  -4.773  0.00  0.00    -0.458 OA
ENDBRANCH  12  13
ENDBRANCH   1  12
BRANCH   7  22
ATOM     22  N   UNL     1      -7.391   0.083  -0.966  0.00  0.00    -0.192 NA
ATOM     23  H   UNL     1      -7.380   0.970  -0.575  0.00  0.00    +0.148 HD
BRANCH  22  24
ATOM     24  S   UNL     1      -8.805  -0.544  -1.559  0.00  0.00    +0.027 S 
ATOM     25  O   UNL     1      -9.768   0.480  -1.355  0.00  0.00    -0.158 OA
ATOM     26  O   UNL     1      -8.483  -0.985  -2.871  0.00  0.00    -0.158 OA
ATOM     27  C   UNL     1      -9.168  -1.965  -0.492  0.00  0.00    +0.214 C 
ENDBRANCH  22  24
ENDBRANCH   7  22
TORSDOF 4
