REMARK  Name = ZINC01968383
REMARK  8 active torsions:
REMARK  status: ('A' for Active; 'I' for Inactive)
REMARK    1  A    between atoms: C_1  and  C_2
REMARK    2  A    between atoms: C_2  and  C_3
REMARK    3  A    between atoms: C_4  and  C_9
REMARK    4  A    between atoms: N_11  and  N_12
REMARK    5  A    between atoms: C_13  and  C_14
REMARK    6  A    between atoms: C_16  and  O_22
REMARK    7  A    between atoms: C_17  and  O_21
REMARK    8  A    between atoms: O_22  and  C_23
REMARK                            x       y       z     vdW  Elec       q    Type
REMARK                         _______ _______ _______ _____ _____    ______ ____
ROOT
ATOM      1  C   UNL     1      -2.284  -0.469   1.445  0.00  0.00    +0.272 C 
ATOM      2  O   UNL     1      -1.853  -1.043   0.461  0.00  0.00    -0.268 OA
ATOM      3  N   UNL     1      -3.273  -1.026   2.171  0.00  0.00    -0.202 N 
ATOM      4  H   UNL     1      -3.616  -0.569   2.955  0.00  0.00    +0.178 HD
ENDROOT
BRANCH   1   6
ATOM      5  C   UNL     1      -0.718   1.572   1.248  0.00  0.00    +0.062 A 
ATOM      6  C   UNL     1      -1.726   0.824   1.839  0.00  0.00    +0.100 A 
ATOM      7  S   UNL     1      -2.155   1.880   3.216  0.00  0.00    -0.048 S 
ATOM      8  C   UNL     1      -1.015   3.148   2.893  0.00  0.00    +0.156 A 
ATOM      9  N   UNL     1      -0.397   2.710   1.806  0.00  0.00    -0.229 NA
ATOM     10  N   UNL     1      -0.802   4.316   3.594  0.00  0.00    -0.337 N 
ATOM     11  H   UNL     1      -1.330   4.511   4.384  0.00  0.00    +0.144 HD
ATOM     12  H   UNL     1      -0.123   4.943   3.298  0.00  0.00    +0.144 HD
BRANCH   5  14
ATOM     13  C   UNL     1      -0.753   1.593  -1.232  0.00  0.00    +0.010 C 
ATOM     14  C   UNL     1      -0.013   1.086   0.008  0.00  0.00    +0.053 C 
ENDBRANCH   5  14
ENDBRANCH   1   6
BRANCH   3  15
ATOM     15  N   UNL     1      -3.807  -2.265   1.793  0.00  0.00    -0.187 NA
ATOM     16  C   UNL     1      -4.761  -2.801   2.492  0.00  0.00    +0.138 C 
BRANCH  16  17
ATOM     17  C   UNL     1      -5.322  -4.105   2.095  0.00  0.00    -0.001 A 
ATOM     18  C   UNL     1      -6.345  -4.686   2.849  0.00  0.00    +0.059 A 
ATOM     19  C   UNL     1      -6.872  -5.907   2.470  0.00  0.00    +0.163 A 
ATOM     20  C   UNL     1      -6.376  -6.559   1.343  0.00  0.00    +0.173 A 
ATOM     21  C   UNL     1      -5.357  -5.985   0.596  0.00  0.00    +0.063 A 
ATOM     22  C   UNL     1      -4.830  -4.764   0.966  0.00  0.00    +0.028 A 
ATOM     23 BR   UNL     1      -4.690  -6.877  -0.932  0.00  0.00    -0.046 Br
BRANCH  20  24
ATOM     24  O   UNL     1      -6.893  -7.762   0.974  0.00  0.00    -0.503 OA
ATOM     25  H   UNL     1      -6.442  -8.521   1.369  0.00  0.00    +0.292 HD
ENDBRANCH  20  24
BRANCH  19  26
ATOM     26  O   UNL     1      -7.870  -6.473   3.200  0.00  0.00    -0.491 OA
ATOM     27  C   UNL     1      -8.329  -5.748   4.342  0.00  0.00    +0.277 C 
ENDBRANCH  19  26
ENDBRANCH  16  17
ENDBRANCH   3  15
TORSDOF 6
