REMARK  Name = ZINC35268361
REMARK  4 active torsions:
REMARK  status: ('A' for Active; 'I' for Inactive)
REMARK    1  A    between atoms: C_1  and  C_2
REMARK    2  A    between atoms: C_5  and  C_8
REMARK    3  A    between atoms: C_14  and  C_16
REMARK    4  A    between atoms: N_24  and  C_25
REMARK                            x       y       z     vdW  Elec       q    Type
REMARK                         _______ _______ _______ _____ _____    ______ ____
ROOT
ATOM      1  C   UNL     1       0.148 -10.572   0.402  0.00  0.00    +0.164 C 
ATOM      2  C   UNL     1       1.430 -10.843   1.218  0.00  0.00    +0.033 C 
ATOM      3  C   UNL     1       1.828 -12.275   0.773  0.00  0.00    +0.021 C 
ATOM      4  C   UNL     1       1.415 -12.264  -0.720  0.00  0.00    +0.110 C 
ATOM      5  N   UNL     1       0.169 -11.470  -0.762  0.00  0.00    -0.274 N 
ATOM      6  C   UNL     1      -0.788 -11.554  -1.707  0.00  0.00    +0.303 C 
ATOM      7  O   UNL     1      -1.775 -10.847  -1.637  0.00  0.00    -0.253 OA
ATOM      8  N   UNL     1      -0.652 -12.422  -2.729  0.00  0.00    -0.294 N 
ATOM      9  H   UNL     1       0.135 -12.986  -2.785  0.00  0.00    +0.151 HD
ENDROOT
BRANCH   8  10
ATOM     10  C   UNL     1      -1.693 -12.513  -3.756  0.00  0.00    +0.037 C 
ATOM     11  C   UNL     1      -1.852 -11.155  -4.443  0.00  0.00    +0.029 C 
ATOM     12  C   UNL     1      -2.939 -11.251  -5.515  0.00  0.00    -0.008 C 
ATOM     13  C   UNL     1      -2.541 -12.303  -6.552  0.00  0.00    +0.007 C 
ATOM     14  C   UNL     1      -2.382 -13.661  -5.866  0.00  0.00    -0.008 C 
ATOM     15  C   UNL     1      -1.295 -13.565  -4.793  0.00  0.00    +0.029 C 
ATOM     16  C   UNL     1      -3.707 -14.062  -5.215  0.00  0.00    +0.007 C 
ATOM     17  C   UNL     1      -4.105 -13.009  -4.178  0.00  0.00    -0.008 C 
ATOM     18  C   UNL     1      -4.264 -11.652  -4.864  0.00  0.00    +0.007 C 
ATOM     19  C   UNL     1      -3.018 -12.914  -3.105  0.00  0.00    +0.029 C 
ENDBRANCH   8  10
BRANCH   1  26
ATOM     20  C   UNL     1       0.061  -4.251  -0.021  0.00  0.00    +0.134 A 
ATOM     21  N   UNL     1       0.073  -5.097  -1.044  0.00  0.00    -0.140 NA
ATOM     22  N   UNL     1       0.090  -6.338  -0.809  0.00  0.00    -0.125 NA
ATOM     23  C   UNL     1       0.097  -6.816   0.421  0.00  0.00    +0.188 A 
ATOM     24  S   UNL     1       0.083  -5.405   1.344  0.00  0.00    -0.030 S 
ATOM     25  N   UNL     1       0.115  -8.139   0.846  0.00  0.00    -0.262 N 
ATOM     26  C   UNL     1       0.129  -9.137  -0.059  0.00  0.00    +0.239 C 
ATOM     27  O   UNL     1       0.126  -8.881  -1.245  0.00  0.00    -0.273 OA
ATOM     28  H   UNL     1       0.117  -8.343   1.794  0.00  0.00    +0.157 HD
BRANCH  20  33
ATOM     29  C   UNL     1      -0.018   1.503   0.010  0.00  0.00    +0.044 C 
ATOM     30  C   UNL     1       0.002  -0.004   0.002  0.00  0.00    -0.050 A 
ATOM     31  C   UNL     1       0.006  -0.686  -1.202  0.00  0.00    +0.004 A 
ATOM     32  C   UNL     1       0.025  -2.066  -1.216  0.00  0.00    +0.011 A 
ATOM     33  C   UNL     1       0.041  -2.773  -0.013  0.00  0.00    +0.009 A 
ATOM     34  C   UNL     1       0.037  -2.079   1.198  0.00  0.00    +0.011 A 
ATOM     35  C   UNL     1       0.023  -0.699   1.198  0.00  0.00    +0.004 A 
ENDBRANCH  20  33
ENDBRANCH   1  26
TORSDOF 3
