REMARK  Name = ZINC32515069
REMARK  8 active torsions:
REMARK  status: ('A' for Active; 'I' for Inactive)
REMARK    1  A    between atoms: C_1  and  C_2
REMARK    2  A    between atoms: C_9  and  C_13
REMARK    3  A    between atoms: C_13  and  O_14
REMARK    4  A    between atoms: O_14  and  C_15
REMARK    5  A    between atoms: C_15  and  C_17
REMARK    6  A    between atoms: C_17  and  C_18
REMARK    7  A    between atoms: C_18  and  C_19
REMARK    8  A    between atoms: N_29  and  C_30
REMARK                            x       y       z     vdW  Elec       q    Type
REMARK                         _______ _______ _______ _____ _____    ______ ____
ROOT
ATOM      1  C   UNL     1       1.308  -6.015   1.181  0.00  0.00    +0.308 C 
ATOM      2  O   UNL     1       1.702  -6.750   0.307  0.00  0.00    -0.251 OA
ENDROOT
BRANCH   1   3
ATOM      3  O   UNL     1       1.292  -4.688   0.985  0.00  0.00    -0.458 OA
BRANCH   3   4
ATOM      4  C   UNL     1       1.761  -4.206  -0.302  0.00  0.00    +0.287 C 
BRANCH   4  13
ATOM      5  C   UNL     1      -2.132  -1.056  -0.147  0.00  0.00    +0.047 C 
ATOM      6  C   UNL     1      -0.901  -0.193  -0.248  0.00  0.00    -0.008 A 
ATOM      7  C   UNL     1      -1.014   1.165  -0.278  0.00  0.00    +0.008 A 
ATOM      8  C   UNL     1       0.142   1.953  -0.372  0.00  0.00    +0.019 A 
ATOM      9  C   UNL     1       1.359   1.369  -0.433  0.00  0.00    +0.096 A 
ATOM     10  N   UNL     1       1.483   0.013  -0.403  0.00  0.00    -0.268 N 
ATOM     11  C   UNL     1       0.375  -0.783  -0.311  0.00  0.00    +0.144 A 
ATOM     12  N   UNL     1       0.487  -2.109  -0.282  0.00  0.00    -0.230 NA
ATOM     13  C   UNL     1       1.670  -2.702  -0.339  0.00  0.00    +0.086 A 
ATOM     14  C   UNL     1       2.820  -1.943  -0.432  0.00  0.00    +0.097 A 
ATOM     15  C   UNL     1       2.710  -0.548  -0.465  0.00  0.00    +0.259 A 
ATOM     16  O   UNL     1       3.708   0.151  -0.546  0.00  0.00    -0.267 OA
ENDBRANCH   4  13
ENDBRANCH   3   4
ENDBRANCH   1   3
BRANCH   1  17
ATOM     17  C   UNL     1       0.836  -6.589   2.493  0.00  0.00    +0.128 C 
BRANCH  17  18
ATOM     18  C   UNL     1       0.957  -8.114   2.455  0.00  0.00    +0.085 C 
BRANCH  18  19
ATOM     19  C   UNL     1       0.485  -8.687   3.766  0.00  0.00    +0.114 A 
ATOM     20  N   UNL     1       0.069  -7.867   4.683  0.00  0.00    -0.233 NA
ATOM     21  C   UNL     1      -0.371  -8.311   5.887  0.00  0.00    +0.078 A 
ATOM     22  C   UNL     1      -0.819  -7.430   6.873  0.00  0.00    +0.028 A 
ATOM     23  C   UNL     1      -1.257  -7.924   8.081  0.00  0.00    +0.002 A 
ATOM     24  C   UNL     1      -1.260  -9.290   8.332  0.00  0.00    +0.001 A 
ATOM     25  C   UNL     1      -0.823 -10.179   7.375  0.00  0.00    +0.015 A 
ATOM     26  C   UNL     1      -0.375  -9.699   6.146  0.00  0.00    +0.065 A 
ATOM     27  C   UNL     1       0.103 -10.600   5.087  0.00  0.00    +0.262 A 
ATOM     28  O   UNL     1       0.126 -11.807   5.246  0.00  0.00    -0.267 OA
ATOM     29  N   UNL     1       0.511 -10.036   3.926  0.00  0.00    -0.293 N 
BRANCH  29  30
ATOM     30  C   UNL     1       0.991 -10.887   2.835  0.00  0.00    +0.092 C 
ATOM     31  C   UNL     1       1.976 -12.003   3.190  0.00  0.00    +0.027 C 
ATOM     32  C   UNL     1       2.463 -10.762   2.437  0.00  0.00    +0.027 C 
ENDBRANCH  29  30
ENDBRANCH  18  19
ENDBRANCH  17  18
ENDBRANCH   1  17
TORSDOF 7
