REMARK  Name = ZINC10644972
REMARK  14 active torsions:
REMARK  status: ('A' for Active; 'I' for Inactive)
REMARK    1  A    between atoms: C_1  and  C_2
REMARK    2  A    between atoms: C_2  and  O_3
REMARK    3  A    between atoms: O_3  and  C_4
REMARK    4  A    between atoms: C_4  and  C_6
REMARK    5  A    between atoms: C_7  and  C_31
REMARK    6  A    between atoms: C_8  and  C_13
REMARK    7  A    between atoms: C_11  and  C_12
REMARK    8  A    between atoms: C_13  and  C_15
REMARK    9  A    between atoms: C_15  and  O_16
REMARK   10  A    between atoms: O_16  and  C_17
REMARK   11  A    between atoms: C_17  and  C_19
REMARK   12  A    between atoms: C_20  and  N_30
REMARK   13  A    between atoms: C_22  and  C_29
REMARK   14  A    between atoms: C_24  and  C_28
REMARK                            x       y       z     vdW  Elec       q    Type
REMARK                         _______ _______ _______ _____ _____    ______ ____
ROOT
ATOM      1  O   UNL     1       5.502  -5.005  -5.917  0.00  0.00    -0.453 OA
ENDROOT
BRANCH   1   2
ATOM      2  C   UNL     1       5.705  -5.571  -7.125  0.00  0.00    +0.348 C 
ATOM      3  O   UNL     1       4.770  -5.723  -7.890  0.00  0.00    -0.244 OA
BRANCH   2   4
ATOM      4  C   UNL     1       7.003  -5.987  -7.503  0.00  0.00    +0.119 A 
ATOM      5  C   UNL     1       7.403  -6.573  -8.685  0.00  0.00    +0.055 A 
ATOM      6  C   UNL     1       8.808  -6.916  -8.844  0.00  0.00    +0.030 A 
ATOM      7  C   UNL     1       9.451  -7.519  -9.954  0.00  0.00    -0.037 A 
ATOM      8  C   UNL     1      10.803  -7.756  -9.892  0.00  0.00    +0.025 A 
ATOM      9  C   UNL     1      11.525  -7.410  -8.760  0.00  0.00    +0.014 A 
ATOM     10  N   UNL     1      10.924  -6.850  -7.729  0.00  0.00    -0.353 N 
ATOM     11  C   UNL     1       9.632  -6.601  -7.740  0.00  0.00    +0.088 A 
ATOM     12  S   UNL     1       8.515  -5.872  -6.567  0.00  0.00    -0.062 S 
ATOM     13  C   UNL     1      13.008  -7.677  -8.707  0.00  0.00    +0.063 C 
ATOM     14  C   UNL     1       8.663  -7.894 -11.183  0.00  0.00    +0.044 C 
ATOM     15  H   UNL     1      11.445  -6.615  -6.945  0.00  0.00    +0.166 HD
BRANCH   5  16
ATOM     16  N   UNL     1       6.489  -6.831  -9.696  0.00  0.00    -0.356 N 
ATOM     17  H   UNL     1       5.551  -6.959  -9.481  0.00  0.00    +0.142 HD
ATOM     18  H   UNL     1       6.787  -6.882 -10.617  0.00  0.00    +0.142 HD
ENDBRANCH   5  16
ENDBRANCH   2   4
ENDBRANCH   1   2
BRANCH   1  19
ATOM     19  C   UNL     1       4.165  -4.609  -5.602  0.00  0.00    +0.313 C 
BRANCH  19  20
ATOM     20  C   UNL     1       4.133  -4.002  -4.223  0.00  0.00    +0.217 C 
ATOM     21  O   UNL     1       5.155  -3.917  -3.573  0.00  0.00    -0.287 OA
BRANCH  20  24
ATOM     22  C   UNL     1       1.371  -2.640  -2.325  0.00  0.00    +0.083 A 
ATOM     23  C   UNL     1       2.741  -2.957  -2.444  0.00  0.00    -0.008 A 
ATOM     24  C   UNL     1       2.911  -3.531  -3.685  0.00  0.00    +0.090 A 
ATOM     25  N   UNL     1       1.683  -3.566  -4.312  0.00  0.00    -0.355 N 
ATOM     26  H   UNL     1       1.515  -3.921  -5.200  0.00  0.00    +0.166 HD
ATOM     27  C   UNL     1       0.756  -3.038  -3.500  0.00  0.00    +0.028 A 
ATOM     28  C   UNL     1      -0.712  -2.900  -3.814  0.00  0.00    +0.064 C 
ATOM     29  C   UNL     1       3.812  -2.714  -1.412  0.00  0.00    +0.047 C 
BRANCH  22  30
ATOM     30  C   UNL     1       0.717  -2.009  -1.167  0.00  0.00    +0.341 C 
ATOM     31  O   UNL     1       0.267  -2.698  -0.273  0.00  0.00    -0.245 OA
BRANCH  30  32
ATOM     32  O   UNL     1       0.616  -0.666  -1.098  0.00  0.00    -0.461 OA
BRANCH  32  34
ATOM     33  C   UNL     1      -0.049   1.404  -0.044  0.00  0.00    +0.048 C 
ATOM     34  C   UNL     1      -0.030  -0.122   0.054  0.00  0.00    +0.229 C 
ENDBRANCH  32  34
ENDBRANCH  30  32
ENDBRANCH  22  30
ENDBRANCH  20  24
ENDBRANCH  19  20
ENDBRANCH   1  19
TORSDOF 9
