REMARK  Name = ZINC34757079
REMARK  5 active torsions:
REMARK  status: ('A' for Active; 'I' for Inactive)
REMARK    1  A    between atoms: C_1  and  C_2
REMARK    2  A    between atoms: C_2  and  S_3
REMARK    3  A    between atoms: S_3  and  C_4
REMARK    4  A    between atoms: N_19  and  C_22
REMARK    5  A    between atoms: C_22  and  C_23
REMARK                            x       y       z     vdW  Elec       q    Type
REMARK                         _______ _______ _______ _____ _____    ______ ____
ROOT
ATOM      1  C   UNL     1      -0.453  -3.212   1.429  0.00  0.00    +0.191 A 
ATOM      2  N   UNL     1       0.148  -3.941   2.363  0.00  0.00    -0.206 NA
ATOM      3  C   UNL     1       1.363  -4.436   2.193  0.00  0.00    +0.134 A 
ATOM      4  C   UNL     1       2.050  -4.183   0.974  0.00  0.00    +0.051 A 
ATOM      5  C   UNL     1       3.395  -4.630   0.573  0.00  0.00    -0.025 A 
ATOM      6  C   UNL     1       3.823  -4.254  -0.642  0.00  0.00    -0.004 A 
ATOM      7  S   UNL     1       2.489  -3.299  -1.327  0.00  0.00    -0.073 S 
ATOM      8  C   UNL     1       1.355  -3.405   0.031  0.00  0.00    +0.115 A 
ATOM      9  N   UNL     1       0.140  -2.949   0.272  0.00  0.00    -0.215 NA
ATOM     10  C   UNL     1       5.208  -4.763  -0.940  0.00  0.00    +0.043 C 
ATOM     11  C   UNL     1       5.779  -5.163   0.438  0.00  0.00    +0.010 C 
ATOM     12  C   UNL     1       4.494  -5.470   1.232  0.00  0.00    +0.037 C 
ATOM     13  N   UNL     1       1.957  -5.191   3.189  0.00  0.00    -0.318 N 
ATOM     14  C   UNL     1       1.859  -6.658   3.186  0.00  0.00    +0.088 C 
ATOM     15  C   UNL     1       1.389  -7.116   4.571  0.00  0.00    -0.059 C 
ATOM     16  N   UNL     1       2.287  -6.571   5.597  0.00  0.00    +0.387 N 
ATOM     17  C   UNL     1       2.195  -5.106   5.613  0.00  0.00    -0.059 C 
ATOM     18  C   UNL     1       2.710  -4.548   4.277  0.00  0.00    +0.088 C 
ATOM     19  H   UNL     1       3.236  -6.845   5.391  0.00  0.00    -0.081 HD
ENDROOT
BRANCH   1  20
ATOM     20  S   UNL     1      -2.072  -2.587   1.731  0.00  0.00    -0.086 S 
BRANCH  20  22
ATOM     21  C   UNL     1      -3.884  -1.079   0.343  0.00  0.00    +0.016 C 
ATOM     22  C   UNL     1      -2.483  -1.681   0.214  0.00  0.00    +0.074 C 
ENDBRANCH  20  22
ENDBRANCH   1  20
BRANCH  16  23
ATOM     23  C   UNL     1       1.901  -7.099   6.912  0.00  0.00    +0.019 C 
BRANCH  23  24
ATOM     24  C   UNL     1       2.894  -6.638   7.948  0.00  0.00    +0.199 C 
ATOM     25  O   UNL     1       3.831  -5.940   7.623  0.00  0.00    -0.278 OA
ATOM     26  N   UNL     1       2.742  -7.003   9.237  0.00  0.00    -0.303 N 
ATOM     27  C   UNL     1       1.662  -7.849   9.766  0.00  0.00    +0.108 C 
ATOM     28  C   UNL     1       1.882  -7.974  11.288  0.00  0.00    +0.020 C 
ATOM     29  C   UNL     1       2.749  -6.731  11.617  0.00  0.00    +0.020 C 
ATOM     30  C   UNL     1       3.635  -6.627  10.348  0.00  0.00    +0.108 C 
ENDBRANCH  23  24
ENDBRANCH  16  23
TORSDOF 4
