REMARK  Name = ZINC23261768
REMARK  6 active torsions:
REMARK  status: ('A' for Active; 'I' for Inactive)
REMARK    1  A    between atoms: C_6  and  C_7
REMARK    2  A    between atoms: C_16  and  C_18
REMARK    3  A    between atoms: C_18  and  S_19
REMARK    4  A    between atoms: S_19  and  C_20
REMARK    5  A    between atoms: C_23  and  C_26
REMARK    6  A    between atoms: N_24  and  N_25
REMARK                            x       y       z     vdW  Elec       q    Type
REMARK                         _______ _______ _______ _____ _____    ______ ____
ROOT
ATOM      1  C   UNL     1      -1.270  -0.765   0.011  0.00  0.00    +0.004 A 
ATOM      2  C   UNL     1      -2.240  -0.477   0.911  0.00  0.00    +0.056 A 
ATOM      3  S   UNL     1      -3.530  -1.642   0.515  0.00  0.00    -0.076 S 
ATOM      4  C   UNL     1      -2.745  -2.480  -0.838  0.00  0.00    +0.116 A 
ATOM      5  C   UNL     1      -1.503  -1.833  -0.954  0.00  0.00    +0.080 A 
ATOM      6  C   UNL     1      -0.647  -2.317  -1.995  0.00  0.00    +0.260 A 
ATOM      7  O   UNL     1       0.453  -1.822  -2.171  0.00  0.00    -0.267 OA
ATOM      8  N   UNL     1      -1.076  -3.326  -2.775  0.00  0.00    -0.310 N 
ATOM      9  H   UNL     1      -0.500  -3.658  -3.482  0.00  0.00    +0.170 HD
ATOM     10  C   UNL     1      -2.297  -3.890  -2.592  0.00  0.00    +0.121 A 
ATOM     11  N   UNL     1      -3.096  -3.477  -1.645  0.00  0.00    -0.226 NA
ENDROOT
BRANCH   1  17
ATOM     12  C   UNL     1      -0.017   1.390   0.010  0.00  0.00    +0.011 A 
ATOM     13  C   UNL     1       1.170   2.094   0.002  0.00  0.00    +0.039 A 
ATOM     14  C   UNL     1       2.379   1.417  -0.013  0.00  0.00    +0.123 A 
ATOM     15  C   UNL     1       2.403   0.032  -0.021  0.00  0.00    +0.039 A 
ATOM     16  C   UNL     1       1.221  -0.680  -0.014  0.00  0.00    +0.011 A 
ATOM     17  C   UNL     1       0.002  -0.004   0.002  0.00  0.00    -0.016 A 
ATOM     18  F   UNL     1       3.538   2.111  -0.020  0.00  0.00    -0.205 F 
ENDBRANCH   1  17
BRANCH  10  19
ATOM     19  C   UNL     1      -2.734  -5.018  -3.490  0.00  0.00    +0.151 C 
BRANCH  19  20
ATOM     20  S   UNL     1      -4.397  -5.564  -3.011  0.00  0.00    -0.077 S 
BRANCH  20  21
ATOM     21  C   UNL     1      -4.759  -6.868  -4.139  0.00  0.00    +0.209 A 
ATOM     22  N   UNL     1      -3.974  -7.318  -5.090  0.00  0.00    -0.121 NA
ATOM     23  N   UNL     1      -4.557  -8.274  -5.721  0.00  0.00    -0.123 NA
ATOM     24  C   UNL     1      -5.737  -8.491  -5.214  0.00  0.00    +0.255 A 
ATOM     25  N   UNL     1      -5.906  -7.607  -4.184  0.00  0.00    -0.220 N 
BRANCH  24  26
ATOM     26  C   UNL     1      -6.730  -9.527  -5.673  0.00  0.00    +0.454 C 
ATOM     27  F   UNL     1      -6.087 -10.456  -6.498  0.00  0.00    -0.163 F 
ATOM     28  F   UNL     1      -7.267 -10.184  -4.561  0.00  0.00    -0.163 F 
ATOM     29  F   UNL     1      -7.759  -8.903  -6.387  0.00  0.00    -0.163 F 
ENDBRANCH  24  26
BRANCH  25  30
ATOM     30  N   UNL     1      -6.998  -7.486  -3.372  0.00  0.00    -0.295 N 
ATOM     31  H   UNL     1      -7.664  -6.832  -3.756  0.00  0.00    +0.163 HD
ATOM     32  H   UNL     1      -7.427  -8.384  -3.207  0.00  0.00    +0.163 HD
ENDBRANCH  25  30
ENDBRANCH  20  21
ENDBRANCH  19  20
ENDBRANCH  10  19
TORSDOF 6
