REMARK  Name = ZINC63686636
REMARK  10 active torsions:
REMARK  status: ('A' for Active; 'I' for Inactive)
REMARK    1  A    between atoms: C_1  and  C_2
REMARK    2  A    between atoms: C_2  and  C_3
REMARK    3  A    between atoms: C_8  and  O_9
REMARK    4  A    between atoms: O_9  and  C_10
REMARK    5  A    between atoms: C_10  and  C_11
REMARK    6  A    between atoms: C_15  and  S_20
REMARK    7  A    between atoms: N_17  and  C_18
REMARK    8  A    between atoms: C_18  and  C_19
REMARK    9  A    between atoms: S_20  and  C_21
REMARK   10  A    between atoms: C_21  and  C_22
REMARK                            x       y       z     vdW  Elec       q    Type
REMARK                         _______ _______ _______ _____ _____    ______ ____
ROOT
ATOM      1  C   UNL     1       4.603   0.009   0.724  0.00  0.00    +0.178 C 
ATOM      2  N   UNL     1       4.214  -0.762   1.927  0.00  0.00    -0.234 NA
ATOM      3  N   UNL     1       3.061  -0.032   2.475  0.00  0.00    -0.229 NA
ATOM      4  C   UNL     1       3.423   1.391   2.243  0.00  0.00    +0.200 C 
ATOM      5  N   UNL     1       4.100   1.384   0.925  0.00  0.00    -0.259 NA
ATOM      6  H   UNL     1       4.971  -0.797   2.594  0.00  0.00    +0.142 HD
ATOM      7  H   UNL     1       2.948  -0.221   3.460  0.00  0.00    +0.143 HD
ENDROOT
BRANCH   5   8
ATOM      8  C   UNL     1       5.201   2.357   0.892  0.00  0.00    +0.085 C 
ATOM      9  C   UNL     1       4.627   3.775   0.852  0.00  0.00    +0.020 C 
ENDBRANCH   5   8
BRANCH   1  10
ATOM     10  C   UNL     1       3.963  -0.606  -0.522  0.00  0.00    +0.265 C 
BRANCH  10  11
ATOM     11  O   UNL     1       4.546  -1.887  -0.774  0.00  0.00    -0.489 OA
BRANCH  11  17
ATOM     12  C   UNL     1       4.475  -3.901  -2.037  0.00  0.00    -0.006 A 
ATOM     13  C   UNL     1       3.942  -4.636  -3.079  0.00  0.00    +0.007 A 
ATOM     14  C   UNL     1       2.969  -4.082  -3.890  0.00  0.00    +0.000 A 
ATOM     15  C   UNL     1       2.527  -2.792  -3.661  0.00  0.00    +0.004 A 
ATOM     16  C   UNL     1       3.056  -2.054  -2.621  0.00  0.00    +0.046 A 
ATOM     17  C   UNL     1       4.028  -2.609  -1.802  0.00  0.00    +0.124 A 
BRANCH  12  19
ATOM     18  C   UNL     1       4.878  -5.121   0.084  0.00  0.00    +0.009 C 
ATOM     19  C   UNL     1       5.535  -4.505  -1.153  0.00  0.00    +0.035 C 
ENDBRANCH  12  19
ENDBRANCH  11  17
ENDBRANCH  10  11
ENDBRANCH   1  10
BRANCH   4  20
ATOM     20  S   UNL     1       1.933   2.425   2.191  0.00  0.00    -0.119 S 
BRANCH  20  21
ATOM     21  C   UNL     1       0.907   1.650   0.911  0.00  0.00    +0.125 C 
BRANCH  21  22
ATOM     22  C   UNL     1      -0.326   2.486   0.681  0.00  0.00    +0.030 A 
ATOM     23  N   UNL     1      -1.316   2.455   1.605  0.00  0.00    -0.355 N 
ATOM     24  C   UNL     1      -2.467   3.196   1.455  0.00  0.00    +0.086 A 
ATOM     25  C   UNL     1      -2.627   4.007   0.318  0.00  0.00    +0.048 A 
ATOM     26  C   UNL     1      -3.788   4.761   0.154  0.00  0.00    +0.014 A 
ATOM     27  C   UNL     1      -4.771   4.707   1.103  0.00  0.00    +0.004 A 
ATOM     28  C   UNL     1      -4.622   3.909   2.229  0.00  0.00    +0.040 A 
ATOM     29  C   UNL     1      -3.481   3.156   2.412  0.00  0.00    +0.147 A 
ATOM     30  F   UNL     1      -3.346   2.382   3.511  0.00  0.00    -0.203 F 
ATOM     31  C   UNL     1      -1.544   4.035  -0.681  0.00  0.00    +0.190 A 
ATOM     32  O   UNL     1      -1.631   4.721  -1.685  0.00  0.00    -0.287 OA
ATOM     33  C   UNL     1      -0.398   3.242  -0.434  0.00  0.00    +0.073 A 
ATOM     34  H   UNL     1      -1.211   1.897   2.392  0.00  0.00    +0.166 HD
ENDBRANCH  21  22
ENDBRANCH  20  21
ENDBRANCH   4  20
TORSDOF 8
