REMARK  Name = ZINC15117728
REMARK  9 active torsions:
REMARK  status: ('A' for Active; 'I' for Inactive)
REMARK    1  A    between atoms: C_1  and  C_2
REMARK    2  A    between atoms: C_4  and  N_11
REMARK    3  A    between atoms: C_6  and  C_8
REMARK    4  A    between atoms: C_8  and  C_9
REMARK    5  A    between atoms: C_8  and  C_10
REMARK    6  A    between atoms: N_14  and  C_17
REMARK    7  A    between atoms: C_20  and  S_26
REMARK    8  A    between atoms: C_22  and  N_23
REMARK    9  A    between atoms: S_26  and  N_29
REMARK                            x       y       z     vdW  Elec       q    Type
REMARK                         _______ _______ _______ _____ _____    ______ ____
ROOT
ATOM      1  C   UNL     1       4.851  -1.819  -2.676  0.00  0.00    +0.060 A 
ATOM      2  C   UNL     1       3.948  -2.656  -2.033  0.00  0.00    +0.027 A 
ATOM      3  C   UNL     1       3.513  -2.352  -0.758  0.00  0.00    +0.030 A 
ATOM      4  C   UNL     1       3.966  -1.208  -0.126  0.00  0.00    +0.108 A 
ATOM      5  C   UNL     1       4.864  -0.372  -0.763  0.00  0.00    +0.063 A 
ATOM      6  C   UNL     1       5.308  -0.674  -2.036  0.00  0.00    +0.149 A 
ENDROOT
BRANCH   1  10
ATOM      7  N   UNL     1       5.412  -3.665  -6.356  0.00  0.00    -0.312 N 
ATOM      8  C   UNL     1       6.522  -3.691  -5.393  0.00  0.00    +0.125 C 
ATOM      9  C   UNL     1       5.980  -3.427  -3.986  0.00  0.00    +0.124 C 
ATOM     10  N   UNL     1       5.297  -2.127  -3.963  0.00  0.00    -0.325 N 
ATOM     11  C   UNL     1       4.187  -2.101  -4.926  0.00  0.00    +0.124 C 
ATOM     12  C   UNL     1       4.729  -2.365  -6.332  0.00  0.00    +0.125 C 
BRANCH   7  16
ATOM     13  C   UNL     1       4.527  -4.361 -11.148  0.00  0.00    +0.063 C 
ATOM     14  C   UNL     1       5.451  -4.313  -9.958  0.00  0.00    +0.017 A 
ATOM     15  C   UNL     1       4.960  -4.009  -8.703  0.00  0.00    +0.064 A 
ATOM     16  C   UNL     1       5.855  -3.971  -7.632  0.00  0.00    +0.125 A 
ATOM     17  N   UNL     1       7.138  -4.238  -7.857  0.00  0.00    -0.219 NA
ATOM     18  C   UNL     1       7.562  -4.529  -9.069  0.00  0.00    +0.112 A 
ATOM     19  N   UNL     1       6.744  -4.568 -10.102  0.00  0.00    -0.347 N 
ATOM     20  H   UNL     1       7.148  -4.816 -11.094  0.00  0.00    +0.167 HD
BRANCH  18  21
ATOM     21  C   UNL     1       9.024  -4.826  -9.283  0.00  0.00    +0.049 C 
ATOM     22  C   UNL     1       9.181  -6.242  -9.842  0.00  0.00    +0.015 C 
ATOM     23  C   UNL     1       9.610  -3.818 -10.274  0.00  0.00    +0.015 C 
ENDBRANCH  18  21
ENDBRANCH   7  16
ENDBRANCH   1  10
BRANCH   6  24
ATOM     24  N   UNL     1       6.269   0.222  -2.717  0.00  0.00    +0.058 N 
ATOM     25  O   UNL     1       6.670   1.226  -2.155  0.00  0.00    -0.126 OA
ATOM     26  O   UNL     1       6.660  -0.045  -3.840  0.00  0.00    -0.126 OA
ENDBRANCH   6  24
BRANCH   4  27
ATOM     27  S   UNL     1       3.402  -0.819   1.497  0.00  0.00    +0.061 S 
ATOM     28  O   UNL     1       4.396   0.011   2.084  0.00  0.00    -0.153 OA
ATOM     29  O   UNL     1       2.987  -2.043   2.087  0.00  0.00    -0.153 OA
BRANCH  27  30
ATOM     30  N   UNL     1       2.043   0.113   1.334  0.00  0.00    -0.177 NA
ATOM     31  C   UNL     1       0.714  -0.508   1.262  0.00  0.00    +0.109 C 
ATOM     32  C   UNL     1       0.002  -0.004   0.002  0.00  0.00    +0.017 C 
ATOM     33  C   UNL     1      -0.019   1.526   0.010  0.00  0.00    +0.003 C 
ATOM     34  C   UNL     1       1.417   2.058  -0.000  0.00  0.00    +0.017 C 
ATOM     35  C   UNL     1       2.144   1.577   1.259  0.00  0.00    +0.109 C 
ENDBRANCH  27  30
ENDBRANCH   4  27
TORSDOF 6
