REMARK  Name = ZINC59530912
REMARK  7 active torsions:
REMARK  status: ('A' for Active; 'I' for Inactive)
REMARK    1  A    between atoms: C_1  and  C_2
REMARK    2  A    between atoms: C_2  and  C_3
REMARK    3  A    between atoms: C_3  and  C_5
REMARK    4  A    between atoms: C_3  and  O_6
REMARK    5  A    between atoms: O_6  and  C_7
REMARK    6  A    between atoms: C_12  and  C_13
REMARK    7  A    between atoms: C_24  and  C_27
REMARK                            x       y       z     vdW  Elec       q    Type
REMARK                         _______ _______ _______ _____ _____    ______ ____
ROOT
ATOM      1  C   UNL     1       4.856   0.469  -1.136  0.00  0.00    +0.066 C 
ATOM      2  C   UNL     1       5.971  -0.575  -1.065  0.00  0.00    +0.109 C 
ATOM      3  C   UNL     1       7.052  -0.212  -2.050  0.00  0.00    +0.218 C 
ATOM      4  O   UNL     1       7.676  -1.085  -2.613  0.00  0.00    -0.275 OA
ATOM      5  N   UNL     1       7.326   1.079  -2.306  0.00  0.00    -0.289 N 
ATOM      6  C   UNL     1       6.653   2.089  -1.667  0.00  0.00    +0.018 C 
ATOM      7  C   UNL     1       5.460   1.853  -1.081  0.00  0.00    +0.020 C 
ATOM      8  C   UNL     1       4.758   2.870  -0.413  0.00  0.00    +0.162 C 
ATOM      9  O   UNL     1       3.682   2.621   0.093  0.00  0.00    -0.292 OA
ATOM     10  C   UNL     1       5.318   4.263  -0.315  0.00  0.00    +0.088 C 
ATOM     11  C   UNL     1       6.848   4.188  -0.352  0.00  0.00    +0.032 C 
ATOM     12  C   UNL     1       7.270   3.465  -1.635  0.00  0.00    +0.059 C 
ATOM     13  H   UNL     1       8.011   1.301  -2.956  0.00  0.00    +0.155 HD
ENDROOT
BRANCH  11  14
ATOM     14  C   UNL     1       7.424   5.581  -0.340  0.00  0.00    -0.042 A 
ATOM     15  C   UNL     1       7.106   6.469  -1.350  0.00  0.00    +0.005 A 
ATOM     16  C   UNL     1       7.633   7.747  -1.340  0.00  0.00    +0.022 A 
ATOM     17  C   UNL     1       8.480   8.137  -0.318  0.00  0.00    +0.059 A 
ATOM     18  C   UNL     1       8.798   7.248   0.694  0.00  0.00    +0.060 A 
ATOM     19  C   UNL     1       8.265   5.971   0.685  0.00  0.00    +0.025 A 
ATOM     20 CL   UNL     1       9.861   7.736   1.977  0.00  0.00    -0.082 Cl
ATOM     21 CL   UNL     1       9.143   9.741  -0.305  0.00  0.00    -0.082 Cl
ENDBRANCH  11  14
BRANCH   1  27
ATOM     22  C   UNL     1       2.736   0.024  -2.400  0.00  0.00    +0.125 A 
ATOM     23  C   UNL     1       2.037  -0.122  -3.589  0.00  0.00    +0.046 A 
ATOM     24  C   UNL     1       2.696   0.006  -4.796  0.00  0.00    +0.004 A 
ATOM     25  C   UNL     1       4.051   0.280  -4.820  0.00  0.00    +0.001 A 
ATOM     26  C   UNL     1       4.750   0.425  -3.636  0.00  0.00    +0.008 A 
ATOM     27  C   UNL     1       4.095   0.304  -2.426  0.00  0.00    +0.002 A 
BRANCH  22  28
ATOM     28  O   UNL     1       2.090  -0.101  -1.210  0.00  0.00    -0.489 OA
BRANCH  28  29
ATOM     29  C   UNL     1       0.672  -0.268  -1.257  0.00  0.00    +0.170 C 
ATOM     30  C   UNL     1       0.339  -1.747  -1.465  0.00  0.00    +0.052 C 
BRANCH  29  32
ATOM     31  C   UNL     1       0.283   1.719   0.207  0.00  0.00    +0.007 C 
ATOM     32  C   UNL     1       0.058   0.213   0.059  0.00  0.00    +0.041 C 
ENDBRANCH  29  32
ENDBRANCH  28  29
ENDBRANCH  22  28
ENDBRANCH   1  27
TORSDOF 5
