REMARK  Name = ZINC35577651
REMARK  7 active torsions:
REMARK  status: ('A' for Active; 'I' for Inactive)
REMARK    1  A    between atoms: C_1  and  C_2
REMARK    2  A    between atoms: C_2  and  C_3
REMARK    3  A    between atoms: C_2  and  N_4
REMARK    4  A    between atoms: C_12  and  C_27
REMARK    5  A    between atoms: C_14  and  N_26
REMARK    6  A    between atoms: N_15  and  C_19
REMARK    7  A    between atoms: C_19  and  C_20
REMARK                            x       y       z     vdW  Elec       q    Type
REMARK                         _______ _______ _______ _____ _____    ______ ____
ROOT
ATOM      1  N   UNL     1      -0.543  -0.679  -1.434  0.00  0.00    +0.383 N 
ATOM      2  C   UNL     1      -1.587  -0.145  -2.318  0.00  0.00    -0.059 C 
ATOM      3  C   UNL     1      -2.965  -0.531  -1.771  0.00  0.00    +0.089 C 
ATOM      4  N   UNL     1      -3.006  -1.992  -1.597  0.00  0.00    -0.303 N 
ATOM      5  C   UNL     1      -1.906  -2.632  -0.859  0.00  0.00    +0.089 C 
ATOM      6  C   UNL     1      -0.578  -2.147  -1.449  0.00  0.00    -0.059 C 
ATOM      7  C   UNL     1      -4.048  -2.741  -2.112  0.00  0.00    +0.220 A 
ATOM      8  N   UNL     1      -4.032  -4.056  -1.917  0.00  0.00    -0.213 NA
ATOM      9  C   UNL     1      -4.992  -4.849  -2.377  0.00  0.00    +0.091 A 
ATOM     10  C   UNL     1      -6.059  -4.263  -3.094  0.00  0.00    +0.086 A 
ATOM     11  C   UNL     1      -7.213  -4.723  -3.717  0.00  0.00    +0.126 A 
ATOM     12  N   UNL     1      -7.843  -3.658  -4.242  0.00  0.00    -0.244 N 
ATOM     13  N   UNL     1      -7.115  -2.493  -3.972  0.00  0.00    -0.149 NA
ATOM     14  C   UNL     1      -6.037  -2.801  -3.287  0.00  0.00    +0.188 A 
ATOM     15  N   UNL     1      -5.004  -2.112  -2.764  0.00  0.00    -0.193 NA
ATOM     16  H   UNL     1      -0.702  -0.350  -0.493  0.00  0.00    -0.081 HD
ENDROOT
BRANCH   9  17
ATOM     17  C   UNL     1      -4.946  -6.310  -2.145  0.00  0.00    +0.036 A 
ATOM     18  C   UNL     1      -4.986  -7.193  -3.224  0.00  0.00    +0.013 A 
ATOM     19  C   UNL     1      -4.943  -8.553  -3.002  0.00  0.00    +0.001 A 
ATOM     20  C   UNL     1      -4.859  -9.045  -1.710  0.00  0.00    +0.003 A 
ATOM     21  C   UNL     1      -4.819  -8.178  -0.635  0.00  0.00    +0.039 A 
ATOM     22  C   UNL     1      -4.856  -6.811  -0.843  0.00  0.00    +0.133 A 
ATOM     23  F   UNL     1      -4.810  -5.964   0.208  0.00  0.00    -0.205 F 
ENDBRANCH   9  17
BRANCH   1  25
ATOM     24  C   UNL     1       0.809   1.313  -1.882  0.00  0.00    -0.014 C 
ATOM     25  C   UNL     1       0.772  -0.217  -1.897  0.00  0.00    -0.075 C 
ATOM     26  C   UNL     1       1.860  -0.762  -0.970  0.00  0.00    -0.014 C 
ENDBRANCH   1  25
BRANCH  11  27
ATOM     27  N   UNL     1      -7.635  -6.038  -3.784  0.00  0.00    -0.343 N 
ATOM     28  H   UNL     1      -7.176  -6.722  -3.273  0.00  0.00    +0.144 HD
ATOM     29  H   UNL     1      -8.391  -6.276  -4.343  0.00  0.00    +0.144 HD
ENDBRANCH  11  27
BRANCH  12  30
ATOM     30  C   UNL     1      -9.104  -3.709  -4.986  0.00  0.00    +0.180 C 
BRANCH  30  31
ATOM     31  C   UNL     1     -10.258  -3.557  -4.029  0.00  0.00    -0.026 A 
ATOM     32  C   UNL     1     -10.821  -4.674  -3.441  0.00  0.00    +0.005 A 
ATOM     33  C   UNL     1     -11.880  -4.534  -2.564  0.00  0.00    +0.000 A 
ATOM     34  C   UNL     1     -12.375  -3.277  -2.274  0.00  0.00    +0.000 A 
ATOM     35  C   UNL     1     -11.812  -2.159  -2.861  0.00  0.00    +0.000 A 
ATOM     36  C   UNL     1     -10.750  -2.299  -3.735  0.00  0.00    +0.005 A 
ENDBRANCH  30  31
ENDBRANCH  12  30
TORSDOF 5
