REMARK  Name = ZINC45728003
REMARK  12 active torsions:
REMARK  status: ('A' for Active; 'I' for Inactive)
REMARK    1  A    between atoms: C_1  and  C_2
REMARK    2  A    between atoms: C_2  and  C_3
REMARK    3  A    between atoms: C_3  and  C_4
REMARK    4  A    between atoms: C_4  and  N_5
REMARK    5  A    between atoms: C_6  and  N_31
REMARK    6  A    between atoms: C_7  and  N_14
REMARK    7  A    between atoms: N_14  and  C_15
REMARK    8  A    between atoms: N_14  and  C_16
REMARK    9  A    between atoms: C_16  and  C_17
REMARK   10  A    between atoms: N_19  and  C_20
REMARK   11  A    between atoms: C_20  and  C_22
REMARK   12  A    between atoms: C_20  and  C_23
REMARK                            x       y       z     vdW  Elec       q    Type
REMARK                         _______ _______ _______ _____ _____    ______ ____
ROOT
ATOM      1  N   UNL     1      -5.408  -3.913   2.439  0.00  0.00    -0.317 N 
ATOM      2  C   UNL     1      -4.795  -3.820   3.767  0.00  0.00    +0.130 C 
ENDROOT
BRANCH   1   5
ATOM      3  N   UNL     1      -4.800  -1.609  -0.353  0.00  0.00    -0.280 N 
ATOM      4  C   UNL     1      -5.412  -2.214   0.721  0.00  0.00    +0.127 A 
ATOM      5  C   UNL     1      -4.800  -3.274   1.333  0.00  0.00    +0.134 A 
ATOM      6  C   UNL     1      -3.558  -3.718   0.846  0.00  0.00    +0.277 A 
ATOM      7  O   UNL     1      -2.993  -4.661   1.375  0.00  0.00    -0.266 OA
ATOM      8  N   UNL     1      -2.995  -3.096  -0.208  0.00  0.00    -0.273 N 
ATOM      9  H   UNL     1      -2.139  -3.401  -0.545  0.00  0.00    +0.173 HD
ATOM     10  C   UNL     1      -3.613  -2.058  -0.801  0.00  0.00    +0.331 A 
ATOM     11  O   UNL     1      -3.089  -1.515  -1.754  0.00  0.00    -0.246 OA
BRANCH   4  12
ATOM     12  N   UNL     1      -6.628  -1.757   1.176  0.00  0.00    -0.343 N 
ATOM     13  H   UNL     1      -7.063  -1.012   0.733  0.00  0.00    +0.144 HD
ATOM     14  H   UNL     1      -7.051  -2.180   1.939  0.00  0.00    +0.144 HD
ENDBRANCH   4  12
BRANCH   3  15
ATOM     15  C   UNL     1      -5.447  -0.474  -1.016  0.00  0.00    +0.128 C 
BRANCH  15  16
ATOM     16  C   UNL     1      -6.352  -0.987  -2.137  0.00  0.00    +0.021 C 
BRANCH  16  18
ATOM     17  C   UNL     1      -7.933  -0.314  -3.951  0.00  0.00    +0.004 C 
ATOM     18  C   UNL     1      -7.027   0.199  -2.830  0.00  0.00    -0.002 C 
ENDBRANCH  16  18
ENDBRANCH  15  16
ENDBRANCH   3  15
ENDBRANCH   1   5
BRANCH   1  19
ATOM     19  C   UNL     1      -6.650  -4.668   2.257  0.00  0.00    +0.200 C 
BRANCH  19  20
ATOM     20  C   UNL     1      -6.327  -6.127   2.060  0.00  0.00    +0.231 C 
ATOM     21  O   UNL     1      -5.172  -6.499   2.070  0.00  0.00    -0.274 OA
ATOM     22  N   UNL     1      -7.320  -7.018   1.871  0.00  0.00    -0.307 N 
ATOM     23  H   UNL     1      -8.243  -6.720   1.863  0.00  0.00    +0.149 HD
BRANCH  22  24
ATOM     24  C   UNL     1      -7.006  -8.436   1.679  0.00  0.00    +0.102 C 
ATOM     25  C   UNL     1      -6.694  -8.694   0.204  0.00  0.00    +0.033 C 
BRANCH  24  26
ATOM     26  C   UNL     1      -8.187  -9.273   2.097  0.00  0.00    -0.009 A 
ATOM     27  C   UNL     1      -9.460  -8.735   2.069  0.00  0.00    +0.008 A 
ATOM     28  C   UNL     1     -10.544  -9.502   2.451  0.00  0.00    +0.020 A 
ATOM     29  C   UNL     1     -10.356 -10.810   2.862  0.00  0.00    +0.042 A 
ATOM     30  C   UNL     1      -9.082 -11.349   2.890  0.00  0.00    +0.040 A 
ATOM     31  C   UNL     1      -7.998 -10.582   2.502  0.00  0.00    +0.047 A 
ATOM     32 CL   UNL     1      -6.400 -11.260   2.531  0.00  0.00    -0.083 Cl
ATOM     33 CL   UNL     1     -11.717 -11.774   3.343  0.00  0.00    -0.083 Cl
ENDBRANCH  24  26
ENDBRANCH  22  24
ENDBRANCH  19  20
ENDBRANCH   1  19
TORSDOF 9
