REMARK  Name = ZINC36342938
REMARK  7 active torsions:
REMARK  status: ('A' for Active; 'I' for Inactive)
REMARK    1  A    between atoms: C_2  and  C_3
REMARK    2  A    between atoms: C_3  and  N_4
REMARK    3  A    between atoms: N_4  and  C_5
REMARK    4  A    between atoms: N_4  and  C_27
REMARK    5  A    between atoms: C_5  and  C_6
REMARK    6  A    between atoms: C_9  and  C_20
REMARK    7  A    between atoms: C_12  and  C_14
REMARK                            x       y       z     vdW  Elec       q    Type
REMARK                         _______ _______ _______ _____ _____    ______ ____
ROOT
ATOM      1  C   UNL     1       1.165  -2.023  -0.643  0.00  0.00    +0.219 C 
ATOM      2  O   UNL     1       1.256  -0.827  -0.824  0.00  0.00    -0.276 OA
ATOM      3  N   UNL     1       2.250  -2.732  -0.274  0.00  0.00    -0.187 N 
ATOM      4  C   UNL     1       3.597  -2.183  -0.050  0.00  0.00    +0.137 C 
ATOM      5  C   UNL     1       4.429  -3.419   0.348  0.00  0.00    +0.087 C 
ATOM      6  C   UNL     1       3.435  -4.557   0.304  0.00  0.00    +0.069 C 
ATOM      7  N   UNL     1       2.277  -4.105  -0.035  0.00  0.00    -0.181 NA
ENDROOT
BRANCH   4   8
ATOM      8  C   UNL     1       3.578  -1.171   1.066  0.00  0.00    -0.025 A 
ATOM      9  C   UNL     1       2.792  -1.388   2.183  0.00  0.00    +0.008 A 
ATOM     10  C   UNL     1       2.774  -0.460   3.207  0.00  0.00    +0.038 A 
ATOM     11  C   UNL     1       3.544   0.687   3.114  0.00  0.00    +0.123 A 
ATOM     12  C   UNL     1       4.331   0.904   1.996  0.00  0.00    +0.038 A 
ATOM     13  C   UNL     1       4.351  -0.028   0.975  0.00  0.00    +0.008 A 
ATOM     14  F   UNL     1       3.527   1.595   4.114  0.00  0.00    -0.205 F 
ENDBRANCH   4   8
BRANCH   6  15
ATOM     15  C   UNL     1       3.742  -5.967   0.608  0.00  0.00    -0.002 A 
ATOM     16  C   UNL     1       5.037  -6.340   0.977  0.00  0.00    +0.010 A 
ATOM     17  C   UNL     1       5.317  -7.661   1.259  0.00  0.00    +0.001 A 
ATOM     18  C   UNL     1       4.319  -8.616   1.177  0.00  0.00    +0.000 A 
ATOM     19  C   UNL     1       3.034  -8.254   0.812  0.00  0.00    +0.001 A 
ATOM     20  C   UNL     1       2.738  -6.936   0.533  0.00  0.00    +0.010 A 
ENDBRANCH   6  15
BRANCH   1  21
ATOM     21  C   UNL     1      -0.160  -2.715  -0.832  0.00  0.00    +0.021 C 
BRANCH  21  22
ATOM     22  N   UNL     1      -1.201  -1.714  -1.099  0.00  0.00    +0.390 N 
ATOM     23  H   UNL     1      -0.918  -1.133  -1.874  0.00  0.00    -0.080 HD
BRANCH  22  24
ATOM     24  C   UNL     1      -2.460  -2.394  -1.431  0.00  0.00    -0.068 C 
ATOM     25  C   UNL     1      -2.290  -3.219  -2.724  0.00  0.00    -0.015 C 
ATOM     26  C   UNL     1      -3.646  -3.062  -3.456  0.00  0.00    -0.002 C 
ATOM     27  C   UNL     1      -4.021  -1.587  -3.168  0.00  0.00    -0.002 C 
ATOM     28  C   UNL     1      -3.561  -1.357  -1.714  0.00  0.00    -0.015 C 
ENDBRANCH  22  24
BRANCH  22  29
ATOM     29  C   UNL     1      -1.396  -0.879   0.094  0.00  0.00    -0.051 C 
BRANCH  29  31
ATOM     30  C   UNL     1      -1.006  -1.689   2.364  0.00  0.00    +0.002 C 
ATOM     31  C   UNL     1      -1.728  -1.757   1.273  0.00  0.00    -0.053 C 
ENDBRANCH  29  31
ENDBRANCH  22  29
ENDBRANCH  21  22
ENDBRANCH   1  21
TORSDOF 7
