REMARK  Name = ZINC14092721
REMARK  5 active torsions:
REMARK  status: ('A' for Active; 'I' for Inactive)
REMARK    1  A    between atoms: C_1  and  C_2
REMARK    2  A    between atoms: C_2  and  S_3
REMARK    3  A    between atoms: S_3  and  C_4
REMARK    4  A    between atoms: C_9  and  C_11
REMARK    5  A    between atoms: C_20  and  O_23
REMARK                            x       y       z     vdW  Elec       q    Type
REMARK                         _______ _______ _______ _____ _____    ______ ____
ROOT
ATOM      1  C   UNL     1      -1.508  -2.383   0.004  0.00  0.00    +0.160 A 
ATOM      2  N   UNL     1      -0.406  -3.120  -0.005  0.00  0.00    -0.133 NA
ATOM      3  N   UNL     1      -0.447  -4.380  -0.012  0.00  0.00    -0.125 NA
ATOM      4  C   UNL     1      -1.591  -5.045  -0.012  0.00  0.00    +0.189 A 
ATOM      5  N   UNL     1      -1.829  -6.417  -0.019  0.00  0.00    -0.263 N 
ATOM      6  C   UNL     1      -0.794  -7.281  -0.029  0.00  0.00    +0.225 C 
ATOM      7  O   UNL     1       0.345  -6.862  -0.031  0.00  0.00    -0.275 OA
ATOM      8  S   UNL     1      -2.746  -3.677   0.009  0.00  0.00    -0.024 S 
ATOM      9  H   UNL     1      -2.739  -6.752  -0.018  0.00  0.00    +0.157 HD
ENDROOT
BRANCH   6  10
ATOM     10  C   UNL     1      -1.051  -8.765  -0.037  0.00  0.00    +0.050 C 
ATOM     11  C   UNL     1      -1.843  -9.152   1.213  0.00  0.00    +0.020 C 
ATOM     12  C   UNL     1      -2.105 -10.660   1.205  0.00  0.00    -0.007 C 
ATOM     13  C   UNL     1      -2.908 -11.032  -0.043  0.00  0.00    +0.007 C 
ATOM     14  C   UNL     1      -2.115 -10.645  -1.293  0.00  0.00    -0.007 C 
ATOM     15  C   UNL     1      -1.854  -9.137  -1.285  0.00  0.00    +0.020 C 
ATOM     16  C   UNL     1      -0.781 -11.393  -1.303  0.00  0.00    +0.038 C 
ATOM     17  C   UNL     1       0.022 -11.022  -0.055  0.00  0.00    +0.068 C 
ATOM     18  C   UNL     1      -0.770 -11.409   1.195  0.00  0.00    +0.038 C 
ATOM     19  C   UNL     1       0.283  -9.514  -0.047  0.00  0.00    +0.051 C 
BRANCH  17  20
ATOM     20  O   UNL     1       1.268 -11.721  -0.065  0.00  0.00    -0.389 OA
ATOM     21  H   UNL     1       1.179 -12.684  -0.070  0.00  0.00    +0.210 HD
ENDBRANCH  17  20
ENDBRANCH   6  10
BRANCH   1  22
ATOM     22  S   UNL     1      -1.700  -0.632   0.015  0.00  0.00    -0.097 S 
BRANCH  22  24
ATOM     23  C   UNL     1      -0.019   1.526   0.010  0.00  0.00    +0.016 C 
ATOM     24  C   UNL     1       0.002  -0.004   0.002  0.00  0.00    +0.073 C 
ENDBRANCH  22  24
ENDBRANCH   1  22
TORSDOF 4
