REMARK  Name = ZINC19226214
REMARK  10 active torsions:
REMARK  status: ('A' for Active; 'I' for Inactive)
REMARK    1  A    between atoms: C_1  and  C_2
REMARK    2  A    between atoms: C_2  and  C_3
REMARK    3  A    between atoms: C_5  and  C_9
REMARK    4  A    between atoms: C_6  and  C_8
REMARK    5  A    between atoms: C_9  and  N_10
REMARK    6  A    between atoms: C_23  and  C_25
REMARK    7  A    between atoms: C_29  and  O_33
REMARK    8  A    between atoms: C_30  and  O_31
REMARK    9  A    between atoms: O_31  and  C_32
REMARK   10  A    between atoms: O_33  and  C_34
REMARK                            x       y       z     vdW  Elec       q    Type
REMARK                         _______ _______ _______ _____ _____    ______ ____
ROOT
ATOM      1  N   UNL     1       0.728  -2.699  -5.073  0.00  0.00    -0.284 NA
ATOM      2  C   UNL     1      -0.429  -3.330  -4.422  0.00  0.00    +0.090 C 
ATOM      3  C   UNL     1      -0.080  -4.777  -4.050  0.00  0.00    +0.053 C 
ATOM      4  C   UNL     1       0.527  -5.436  -5.263  0.00  0.00    -0.016 A 
ATOM      5  C   UNL     1       0.735  -6.841  -5.535  0.00  0.00    +0.003 A 
ATOM      6  C   UNL     1       0.460  -8.001  -4.805  0.00  0.00    +0.010 A 
ATOM      7  C   UNL     1       0.800  -9.197  -5.388  0.00  0.00    +0.001 A 
ATOM      8  C   UNL     1       1.390  -9.264  -6.640  0.00  0.00    +0.002 A 
ATOM      9  C   UNL     1       1.674  -8.132  -7.384  0.00  0.00    +0.026 A 
ATOM     10  C   UNL     1       1.340  -6.904  -6.818  0.00  0.00    +0.047 A 
ATOM     11  N   UNL     1       1.476  -5.622  -7.268  0.00  0.00    -0.356 N 
ATOM     12  H   UNL     1       1.861  -5.367  -8.121  0.00  0.00    +0.166 HD
ATOM     13  C   UNL     1       0.989  -4.749  -6.333  0.00  0.00    +0.042 A 
ATOM     14  C   UNL     1       0.947  -3.242  -6.423  0.00  0.00    +0.138 C 
ENDROOT
BRANCH  14  15
ATOM     15  C   UNL     1       2.255  -2.731  -6.969  0.00  0.00    +0.021 A 
ATOM     16  C   UNL     1       3.300  -2.448  -6.108  0.00  0.00    +0.009 A 
ATOM     17  C   UNL     1       4.501  -1.979  -6.604  0.00  0.00    +0.004 A 
ATOM     18  C   UNL     1       4.664  -1.790  -7.965  0.00  0.00    +0.049 A 
ATOM     19  C   UNL     1       3.622  -2.072  -8.833  0.00  0.00    +0.162 A 
ATOM     20  C   UNL     1       2.414  -2.550  -8.333  0.00  0.00    +0.167 A 
BRANCH  20  21
ATOM     21  O   UNL     1       1.390  -2.833  -9.181  0.00  0.00    -0.491 OA
ATOM     22  C   UNL     1       0.479  -1.772  -9.477  0.00  0.00    +0.277 C 
ENDBRANCH  20  21
BRANCH  19  23
ATOM     23  O   UNL     1       3.780  -1.887 -10.171  0.00  0.00    -0.491 OA
ATOM     24  C   UNL     1       5.049  -1.399 -10.612  0.00  0.00    +0.277 C 
ENDBRANCH  19  23
ENDBRANCH  14  15
BRANCH   1  25
ATOM     25  C   UNL     1       0.579  -1.238  -5.111  0.00  0.00    +0.140 C 
BRANCH  25  28
ATOM     26  C   UNL     1      -0.375   0.051  -1.826  0.00  0.00    +0.084 A 
ATOM     27  N   UNL     1      -0.711  -0.376  -3.063  0.00  0.00    -0.346 N 
ATOM     28  C   UNL     1       0.450  -0.710  -3.705  0.00  0.00    +0.051 A 
ATOM     29  C   UNL     1       1.455  -0.476  -2.840  0.00  0.00    +0.035 A 
ATOM     30  N   UNL     1       0.922  -0.007  -1.702  0.00  0.00    -0.347 N 
ATOM     31  C   UNL     1       2.922  -0.698  -3.106  0.00  0.00    +0.065 C 
ATOM     32  H   UNL     1      -1.608  -0.435  -3.427  0.00  0.00    +0.167 HD
ATOM     33  H   UNL     1       1.423   0.247  -0.911  0.00  0.00    +0.167 HD
BRANCH  26  35
ATOM     34  C   UNL     1      -1.557   2.029  -0.910  0.00  0.00    +0.012 C 
ATOM     35  C   UNL     1      -1.339   0.521  -0.767  0.00  0.00    +0.069 C 
ENDBRANCH  26  35
ENDBRANCH  25  28
ENDBRANCH   1  25
TORSDOF 6
