REMARK  Name = ZINC39459177
REMARK  8 active torsions:
REMARK  status: ('A' for Active; 'I' for Inactive)
REMARK    1  A    between atoms: C_1  and  C_2
REMARK    2  A    between atoms: C_2  and  O_3
REMARK    3  A    between atoms: O_3  and  C_4
REMARK    4  A    between atoms: N_16  and  S_27
REMARK    5  A    between atoms: C_17  and  C_26
REMARK    6  A    between atoms: C_18  and  C_19
REMARK    7  A    between atoms: C_24  and  O_25
REMARK    8  A    between atoms: S_27  and  C_30
REMARK                            x       y       z     vdW  Elec       q    Type
REMARK                         _______ _______ _______ _____ _____    ______ ____
ROOT
ATOM      1  C   UNL     1       0.776  -1.806  -1.336  0.00  0.00    +0.134 A 
ATOM      2  C   UNL     1       0.248  -2.689  -0.396  0.00  0.00    +0.066 A 
ATOM      3  C   UNL     1       0.380  -4.051  -0.585  0.00  0.00    +0.115 A 
ATOM      4  N   UNL     1       1.010  -4.548  -1.635  0.00  0.00    -0.252 NA
ATOM      5  C   UNL     1       1.539  -3.761  -2.555  0.00  0.00    +0.103 A 
ATOM      6  C   UNL     1       1.416  -2.353  -2.458  0.00  0.00    +0.086 A 
ATOM      7  C   UNL     1       1.945  -1.528  -3.536  0.00  0.00    +0.169 C 
ATOM      8  O   UNL     1       1.178  -1.019  -4.327  0.00  0.00    -0.292 OA
ATOM      9  C   UNL     1       3.430  -1.292  -3.688  0.00  0.00    +0.084 C 
ATOM     10  C   UNL     1       4.175  -2.616  -3.459  0.00  0.00    +0.046 C 
ATOM     11  C   UNL     1       3.462  -3.748  -4.144  0.00  0.00    -0.010 A 
ATOM     12  C   UNL     1       2.279  -4.282  -3.719  0.00  0.00    +0.095 A 
ATOM     13  N   UNL     1       1.954  -5.311  -4.556  0.00  0.00    -0.213 N 
ATOM     14  C   UNL     1       2.916  -5.414  -5.514  0.00  0.00    +0.048 A 
ATOM     15  C   UNL     1       3.852  -4.458  -5.292  0.00  0.00    +0.012 A 
ATOM     16  C   UNL     1       2.931  -6.412  -6.643  0.00  0.00    +0.066 C 
ENDROOT
BRANCH  15  17
ATOM     17  C   UNL     1       5.070  -4.215  -6.105  0.00  0.00    +0.026 A 
ATOM     18  C   UNL     1       6.256  -4.879  -5.803  0.00  0.00    +0.012 A 
ATOM     19  C   UNL     1       7.386  -4.650  -6.563  0.00  0.00    +0.001 A 
ATOM     20  C   UNL     1       7.344  -3.762  -7.623  0.00  0.00    +0.004 A 
ATOM     21  C   UNL     1       6.172  -3.097  -7.930  0.00  0.00    +0.046 A 
ATOM     22  C   UNL     1       5.029  -3.322  -7.179  0.00  0.00    +0.125 A 
BRANCH  22  23
ATOM     23  O   UNL     1       3.875  -2.673  -7.484  0.00  0.00    -0.506 OA
ATOM     24  H   UNL     1       3.770  -1.825  -7.032  0.00  0.00    +0.292 HD
ENDBRANCH  22  23
ENDBRANCH  15  17
BRANCH  13  25
ATOM     25  S   UNL     1       0.613  -6.274  -4.427  0.00  0.00    +0.084 S 
ATOM     26  O   UNL     1       0.925  -7.494  -5.084  0.00  0.00    -0.148 OA
ATOM     27  O   UNL     1       0.207  -6.223  -3.066  0.00  0.00    -0.148 OA
BRANCH  25  28
ATOM     28  C   UNL     1      -0.669  -5.510  -5.364  0.00  0.00    +0.111 A 
ATOM     29  C   UNL     1      -1.513  -4.595  -4.763  0.00  0.00    +0.029 A 
ATOM     30  C   UNL     1      -2.519  -3.996  -5.498  0.00  0.00    +0.002 A 
ATOM     31  C   UNL     1      -2.680  -4.311  -6.834  0.00  0.00    +0.000 A 
ATOM     32  C   UNL     1      -1.835  -5.225  -7.435  0.00  0.00    +0.002 A 
ATOM     33  C   UNL     1      -0.826  -5.821  -6.701  0.00  0.00    +0.029 A 
ENDBRANCH  25  28
ENDBRANCH  13  25
BRANCH   1  34
ATOM     34  O   UNL     1       0.671  -0.465  -1.174  0.00  0.00    -0.491 OA
BRANCH  34  36
ATOM     35  C   UNL     1      -0.019   1.526   0.010  0.00  0.00    +0.048 C 
ATOM     36  C   UNL     1       0.002  -0.004   0.002  0.00  0.00    +0.226 C 
ENDBRANCH  34  36
ENDBRANCH   1  34
TORSDOF 6
