REMARK  Name = ZINC59331618
REMARK  13 active torsions:
REMARK  status: ('A' for Active; 'I' for Inactive)
REMARK    1  A    between atoms: C_1  and  C_2
REMARK    2  A    between atoms: C_2  and  N_3
REMARK    3  A    between atoms: N_3  and  C_4
REMARK    4  A    between atoms: N_3  and  C_6
REMARK    5  A    between atoms: C_4  and  C_5
REMARK    6  A    between atoms: C_9  and  N_13
REMARK    7  A    between atoms: C_10  and  C_12
REMARK    8  A    between atoms: C_17  and  C_37
REMARK    9  A    between atoms: C_18  and  N_22
REMARK   10  A    between atoms: N_22  and  C_23
REMARK   11  A    between atoms: C_23  and  N_25
REMARK   12  A    between atoms: C_26  and  C_28
REMARK   13  A    between atoms: C_33  and  N_34
REMARK                            x       y       z     vdW  Elec       q    Type
REMARK                         _______ _______ _______ _____ _____    ______ ____
ROOT
ATOM      1  N   UNL     1       1.408  -6.026   2.106  0.00  0.00    -0.149 N 
ATOM      2  N   UNL     1       0.511  -6.941   2.234  0.00  0.00    -0.147 NA
ATOM      3  C   UNL     1       1.106  -8.123   2.262  0.00  0.00    +0.114 A 
ATOM      4  C   UNL     1       0.700  -9.464   2.380  0.00  0.00    +0.037 A 
ATOM      5  C   UNL     1       1.633 -10.450   2.369  0.00  0.00    -0.027 A 
ATOM      6  C   UNL     1       3.000 -10.168   2.244  0.00  0.00    +0.038 A 
ATOM      7  C   UNL     1       3.457  -8.887   2.126  0.00  0.00    +0.055 A 
ATOM      8  C   UNL     1       2.540  -7.823   2.130  0.00  0.00    +0.115 A 
ATOM      9  N   UNL     1       2.602  -6.504   2.037  0.00  0.00    -0.147 NA
ATOM     10  C   UNL     1       1.188 -11.884   2.496  0.00  0.00    +0.046 C 
ENDROOT
BRANCH   1  14
ATOM     11  C   UNL     1       0.539  -1.955   1.915  0.00  0.00    +0.014 A 
ATOM     12  C   UNL     1      -0.138  -2.844   1.100  0.00  0.00    +0.024 A 
ATOM     13  C   UNL     1       0.148  -4.193   1.160  0.00  0.00    +0.031 A 
ATOM     14  C   UNL     1       1.116  -4.658   2.041  0.00  0.00    +0.089 A 
ATOM     15  C   UNL     1       1.794  -3.763   2.858  0.00  0.00    -0.022 A 
ATOM     16  C   UNL     1       1.507  -2.413   2.789  0.00  0.00    +0.027 A 
ATOM     17  C   UNL     1       2.845  -4.262   3.816  0.00  0.00    +0.046 C 
BRANCH  11  18
ATOM     18  N   UNL     1       0.247  -0.589   1.852  0.00  0.00    -0.394 NA
ATOM     19  H   UNL     1       0.831  -0.089   2.506  0.00  0.00    +0.126 HD
BRANCH  18  21
ATOM     20  C   UNL     1       1.991  -0.239   0.168  0.00  0.00    +0.022 C 
ATOM     21  C   UNL     1       0.502  -0.096   0.492  0.00  0.00    +0.081 C 
ENDBRANCH  18  21
BRANCH  18  22
ATOM     22  C   UNL     1      -1.165  -0.374   2.194  0.00  0.00    +0.081 C 
ATOM     23  C   UNL     1      -1.404  -0.772   3.652  0.00  0.00    +0.022 C 
ENDBRANCH  18  22
ENDBRANCH  11  18
ENDBRANCH   1  14
BRANCH   6  24
ATOM     24  N   UNL     1       3.918 -11.224   2.240  0.00  0.00    -0.296 N 
ATOM     25  H   UNL     1       3.757 -12.004   1.686  0.00  0.00    +0.154 HD
BRANCH  24  26
ATOM     26  C   UNL     1       5.024 -11.158   3.006  0.00  0.00    +0.141 C 
ATOM     27  S   UNL     1       5.249  -9.838   4.073  0.00  0.00    -0.018 S 
BRANCH  26  28
ATOM     28  N   UNL     1       5.954 -12.131   2.932  0.00  0.00    -0.264 N 
ATOM     29  C   UNL     1       7.061 -12.065   3.699  0.00  0.00    +0.252 C 
ATOM     30  O   UNL     1       7.221 -11.128   4.456  0.00  0.00    -0.270 OA
ATOM     31  H   UNL     1       5.827 -12.879   2.328  0.00  0.00    +0.157 HD
BRANCH  29  32
ATOM     32  C   UNL     1       8.081 -13.131   3.618  0.00  0.00    +0.067 A 
ATOM     33  C   UNL     1       7.729 -14.458   3.873  0.00  0.00    +0.015 A 
ATOM     34  C   UNL     1       8.686 -15.449   3.796  0.00  0.00    +0.001 A 
ATOM     35  C   UNL     1       9.991 -15.130   3.466  0.00  0.00    +0.002 A 
ATOM     36  C   UNL     1      10.346 -13.818   3.212  0.00  0.00    +0.033 A 
ATOM     37  C   UNL     1       9.398 -12.818   3.279  0.00  0.00    +0.138 A 
BRANCH  37  38
ATOM     38  N   UNL     1       9.778 -11.415   3.000  0.00  0.00    +0.057 N 
ATOM     39  O   UNL     1      10.934 -11.133   2.784  0.00  0.00    -0.126 OA
ATOM     40  O   UNL     1       8.933 -10.550   2.988  0.00  0.00    -0.126 OA
ENDBRANCH  37  38
ENDBRANCH  29  32
ENDBRANCH  26  28
ENDBRANCH  24  26
ENDBRANCH   6  24
TORSDOF 9
