REMARK  Name = ZINC11913424
REMARK  7 active torsions:
REMARK  status: ('A' for Active; 'I' for Inactive)
REMARK    1  A    between atoms: C_4  and  C_7
REMARK    2  A    between atoms: C_7  and  C_8
REMARK    3  A    between atoms: C_8  and  O_9
REMARK    4  A    between atoms: O_9  and  C_10
REMARK    5  A    between atoms: C_11  and  C_21
REMARK    6  A    between atoms: C_21  and  N_55
REMARK    7  A    between atoms: C_22  and  N_55
REMARK                            x       y       z     vdW  Elec       q    Type
REMARK                         _______ _______ _______ _____ _____    ______ ____
ROOT
ATOM      1  C   UNL     1      -3.550   1.741   0.027  0.00  0.00    +0.217 A 
ATOM      2  C   UNL     1      -3.611   3.140   0.035  0.00  0.00    -0.002 A 
ATOM      3  C   UNL     1      -2.460   3.871   0.046  0.00  0.00    +0.017 A 
ATOM      4  C   UNL     1      -1.232   3.180   0.031  0.00  0.00    +0.001 A 
ATOM      5  C   UNL     1      -0.009   3.870   0.024  0.00  0.00    +0.011 A 
ATOM      6  C   UNL     1       1.159   3.170   0.009  0.00  0.00    +0.021 A 
ATOM      7  C   UNL     1       1.156   1.776   0.001  0.00  0.00    +0.043 A 
ATOM      8  C   UNL     1      -0.013   1.076   0.008  0.00  0.00    +0.048 A 
ATOM      9  C   UNL     1      -1.237   1.764   0.018  0.00  0.00    +0.076 A 
ATOM     10  N   UNL     1      -2.400   1.102   0.019  0.00  0.00    -0.213 NA
ATOM     11 CL   UNL     1       2.666   0.918  -0.018  0.00  0.00    -0.083 Cl
ENDROOT
BRANCH   1  12
ATOM     12  O   UNL     1      -4.703   1.028   0.028  0.00  0.00    -0.476 OA
BRANCH  12  13
ATOM     13  C   UNL     1      -4.585  -0.396   0.020  0.00  0.00    +0.235 C 
BRANCH  13  14
ATOM     14  C   UNL     1      -5.981  -1.023   0.023  0.00  0.00    +0.076 C 
BRANCH  14  18
ATOM     15  C   UNL     1      -5.629  -5.280  -0.002  0.00  0.00    +0.000 A 
ATOM     16  C   UNL     1      -5.681  -4.598   1.199  0.00  0.00    +0.000 A 
ATOM     17  C   UNL     1      -5.795  -3.220   1.207  0.00  0.00    +0.004 A 
ATOM     18  C   UNL     1      -5.857  -2.525   0.014  0.00  0.00    -0.044 A 
ATOM     19  C   UNL     1      -5.811  -3.208  -1.187  0.00  0.00    +0.004 A 
ATOM     20  C   UNL     1      -5.692  -4.585  -1.195  0.00  0.00    +0.000 A 
ENDBRANCH  14  18
ENDBRANCH  13  14
ENDBRANCH  12  13
ENDBRANCH   1  12
BRANCH   2  21
ATOM     21  C   UNL     1      -4.947   3.837   0.043  0.00  0.00    -0.040 C 
BRANCH  21  22
ATOM     22  N   UNL     1      -5.483   3.838   1.418  0.00  0.00    +0.389 N 
ATOM     23  H   UNL     1      -4.828   4.332   2.036  0.00  0.00    -0.084 HD
ATOM     24  H   UNL     1      -5.593   2.869   1.740  0.00  0.00    -0.084 HD
BRANCH  22  25
ATOM     25  C   UNL     1      -6.793   4.515   1.456  0.00  0.00    +0.016 C 
ATOM     26  C   UNL     1      -7.587   4.013   2.665  0.00  0.00    -0.007 C 
ATOM     27  C   UNL     1      -6.663   3.724   3.833  0.00  0.00    +0.000 C 
ATOM     28  C   UNL     1      -5.998   4.960   4.410  0.00  0.00    +0.019 C 
ATOM     29  C   UNL     1      -5.016   5.570   3.407  0.00  0.00    +0.104 C 
ATOM     30  N   UNL     1      -5.755   6.487   2.524  0.00  0.00    -0.317 N 
ATOM     31  C   UNL     1      -6.591   6.009   1.601  0.00  0.00    +0.199 C 
ATOM     32  O   UNL     1      -7.190   6.773   0.875  0.00  0.00    -0.278 OA
ATOM     33  H   UNL     1      -5.633   7.445   2.614  0.00  0.00    +0.149 HD
ENDBRANCH  22  25
ENDBRANCH  21  22
ENDBRANCH   2  21
TORSDOF 7
