REMARK  Name = ZINC15013214
REMARK  9 active torsions:
REMARK  status: ('A' for Active; 'I' for Inactive)
REMARK    1  A    between atoms: C_1  and  C_2
REMARK    2  A    between atoms: C_2  and  C_3
REMARK    3  A    between atoms: C_2  and  O_4
REMARK    4  A    between atoms: O_4  and  C_5
REMARK    5  A    between atoms: C_6  and  C_13
REMARK    6  A    between atoms: C_10  and  O_11
REMARK    7  A    between atoms: O_11  and  C_12
REMARK    8  A    between atoms: N_17  and  C_21
REMARK    9  A    between atoms: C_21  and  C_22
REMARK                            x       y       z     vdW  Elec       q    Type
REMARK                         _______ _______ _______ _____ _____    ______ ____
ROOT
ATOM      1  C   UNL     1       3.687  -0.694  -0.036  0.00  0.00    +0.040 C 
ATOM      2  C   UNL     1       3.751  -1.953  -0.540  0.00  0.00    +0.098 C 
ATOM      3  C   UNL     1       2.675  -2.708  -1.199  0.00  0.00    +0.269 C 
ATOM      4  O   UNL     1       1.536  -2.328  -1.406  0.00  0.00    -0.268 OA
ATOM      5  N   UNL     1       3.202  -3.904  -1.529  0.00  0.00    -0.216 N 
ATOM      6  C   UNL     1       4.485  -3.958  -1.141  0.00  0.00    +0.313 C 
ATOM      7  O   UNL     1       5.215  -4.917  -1.307  0.00  0.00    -0.252 OA
ATOM      8  N   UNL     1       4.860  -2.810  -0.550  0.00  0.00    -0.265 N 
ATOM      9  H   UNL     1       5.739  -2.612  -0.191  0.00  0.00    +0.157 HD
ENDROOT
BRANCH   1  11
ATOM     10  C   UNL     1       2.313   1.364  -0.304  0.00  0.00    +0.169 A 
ATOM     11  C   UNL     1       2.397   0.004   0.031  0.00  0.00    +0.022 A 
ATOM     12  C   UNL     1       1.244  -0.683   0.431  0.00  0.00    +0.012 A 
ATOM     13  C   UNL     1       0.037  -0.023   0.493  0.00  0.00    +0.004 A 
ATOM     14  C   UNL     1      -0.045   1.319   0.163  0.00  0.00    +0.049 A 
ATOM     15  C   UNL     1       1.086   2.014  -0.235  0.00  0.00    +0.162 A 
BRANCH  15  16
ATOM     16  O   UNL     1       0.996   3.332  -0.559  0.00  0.00    -0.491 OA
ATOM     17  C   UNL     1      -0.296   3.936  -0.466  0.00  0.00    +0.277 C 
ENDBRANCH  15  16
BRANCH  10  18
ATOM     18  O   UNL     1       3.424   2.042  -0.693  0.00  0.00    -0.485 OA
BRANCH  18  20
ATOM     19  C   UNL     1       3.041   3.255  -2.747  0.00  0.00    +0.051 C 
ATOM     20  C   UNL     1       3.721   2.053  -2.090  0.00  0.00    +0.168 C 
ATOM     21  C   UNL     1       5.235   2.152  -2.289  0.00  0.00    +0.051 C 
ENDBRANCH  18  20
ENDBRANCH  10  18
ENDBRANCH   1  11
BRANCH   5  22
ATOM     22  C   UNL     1       2.481  -4.983  -2.208  0.00  0.00    +0.153 C 
BRANCH  22  23
ATOM     23  C   UNL     1       2.636  -4.829  -3.700  0.00  0.00    -0.030 A 
ATOM     24  C   UNL     1       1.718  -4.085  -4.417  0.00  0.00    +0.005 A 
ATOM     25  C   UNL     1       1.863  -3.941  -5.784  0.00  0.00    +0.000 A 
ATOM     26  C   UNL     1       2.920  -4.548  -6.435  0.00  0.00    +0.000 A 
ATOM     27  C   UNL     1       3.835  -5.296  -5.719  0.00  0.00    +0.000 A 
ATOM     28  C   UNL     1       3.693  -5.437  -4.351  0.00  0.00    +0.005 A 
ENDBRANCH  22  23
ENDBRANCH   5  22
TORSDOF 6
