REMARK  Name = ZINC09908356
REMARK  9 active torsions:
REMARK  status: ('A' for Active; 'I' for Inactive)
REMARK    1  A    between atoms: C_1  and  C_2
REMARK    2  A    between atoms: N_10  and  C_11
REMARK    3  A    between atoms: C_11  and  C_12
REMARK    4  A    between atoms: N_14  and  N_15
REMARK    5  A    between atoms: C_16  and  C_18
REMARK    6  A    between atoms: C_18  and  C_19
REMARK    7  A    between atoms: C_19  and  C_20
REMARK    8  A    between atoms: C_20  and  C_21
REMARK    9  A    between atoms: N_23  and  C_24
REMARK                            x       y       z     vdW  Elec       q    Type
REMARK                         _______ _______ _______ _____ _____    ______ ____
ROOT
ATOM      1  N   UNL     1       2.366   1.214  -0.014  0.00  0.00    -0.234 N 
ATOM      2  C   UNL     1       3.524   1.904  -0.021  0.00  0.00    +0.229 C 
ATOM      3  O   UNL     1       3.508   3.117  -0.015  0.00  0.00    -0.274 OA
ATOM      4  H   UNL     1       2.379   0.244  -0.019  0.00  0.00    +0.173 HD
ENDROOT
BRANCH   1   7
ATOM      5  C   UNL     1      -0.014   1.209   0.009  0.00  0.00    +0.249 C 
ATOM      6  O   UNL     1       0.002  -0.004   0.002  0.00  0.00    -0.272 OA
ATOM      7  N   UNL     1       1.143   1.898   0.001  0.00  0.00    -0.233 N 
ATOM      8  H   UNL     1       1.130   2.868   0.007  0.00  0.00    +0.173 HD
BRANCH   5   9
ATOM      9  C   UNL     1      -1.330   1.944   0.019  0.00  0.00    +0.219 C 
BRANCH   9  19
ATOM     10  C   UNL     1      -2.624   0.784   2.556  0.00  0.00    +0.063 C 
ATOM     11  C   UNL     1      -3.015   0.453   1.139  0.00  0.00    +0.017 A 
ATOM     12  C   UNL     1      -3.990  -0.401   0.788  0.00  0.00    +0.031 A 
ATOM     13  C   UNL     1      -4.033  -0.425  -0.676  0.00  0.00    +0.000 A 
ATOM     14  C   UNL     1      -4.814  -1.103  -1.613  0.00  0.00    +0.010 A 
ATOM     15  C   UNL     1      -4.600  -0.903  -2.947  0.00  0.00    +0.001 A 
ATOM     16  C   UNL     1      -3.611  -0.030  -3.379  0.00  0.00    +0.002 A 
ATOM     17  C   UNL     1      -2.829   0.650  -2.472  0.00  0.00    +0.026 A 
ATOM     18  C   UNL     1      -3.033   0.465  -1.108  0.00  0.00    +0.050 A 
ATOM     19  N   UNL     1      -2.430   0.977   0.019  0.00  0.00    -0.335 N 
ENDBRANCH   9  19
ENDBRANCH   5   9
ENDBRANCH   1   7
BRANCH   2  20
ATOM     20  C   UNL     1       4.839   1.168  -0.038  0.00  0.00    +0.098 C 
BRANCH  20  21
ATOM     21  C   UNL     1       5.989   2.178  -0.043  0.00  0.00    +0.018 C 
BRANCH  21  22
ATOM     22  C   UNL     1       7.324   1.431  -0.060  0.00  0.00    +0.096 C 
BRANCH  22  23
ATOM     23  C   UNL     1       8.456   2.426  -0.066  0.00  0.00    +0.213 C 
ATOM     24  O   UNL     1       8.218   3.616  -0.057  0.00  0.00    -0.276 OA
ATOM     25  N   UNL     1       9.732   1.994  -0.080  0.00  0.00    -0.310 N 
ATOM     26  H   UNL     1       9.922   1.043  -0.087  0.00  0.00    +0.149 HD
BRANCH  25  27
ATOM     27  C   UNL     1      10.833   2.962  -0.086  0.00  0.00    +0.035 C 
ATOM     28  C   UNL     1      10.728   3.847  -1.329  0.00  0.00    +0.029 C 
ATOM     29  C   UNL     1      11.877   4.857  -1.335  0.00  0.00    -0.008 C 
ATOM     30  C   UNL     1      13.212   4.110  -1.351  0.00  0.00    +0.007 C 
ATOM     31  C   UNL     1      13.317   3.224  -0.108  0.00  0.00    -0.008 C 
ATOM     32  C   UNL     1      12.168   2.215  -0.102  0.00  0.00    +0.029 C 
ATOM     33  C   UNL     1      13.236   4.096   1.147  0.00  0.00    +0.007 C 
ATOM     34  C   UNL     1      11.901   4.843   1.164  0.00  0.00    -0.008 C 
ATOM     35  C   UNL     1      11.796   5.728  -0.080  0.00  0.00    +0.007 C 
ATOM     36  C   UNL     1      10.752   3.833   1.169  0.00  0.00    +0.029 C 
ENDBRANCH  25  27
ENDBRANCH  22  23
ENDBRANCH  21  22
ENDBRANCH  20  21
ENDBRANCH   2  20
TORSDOF 8
