REMARK  Name = ZINC02934701
REMARK  10 active torsions:
REMARK  status: ('A' for Active; 'I' for Inactive)
REMARK    1  A    between atoms: C_1  and  O_2
REMARK    2  A    between atoms: O_2  and  C_3
REMARK    3  A    between atoms: C_4  and  C_10
REMARK    4  A    between atoms: C_6  and  S_8
REMARK    5  A    between atoms: S_8  and  C_9
REMARK    6  A    between atoms: N_11  and  N_12
REMARK    7  A    between atoms: C_13  and  C_15
REMARK    8  A    between atoms: C_15  and  C_17
REMARK    9  A    between atoms: C_15  and  N_29
REMARK   10  A    between atoms: C_31  and  C_33
REMARK                            x       y       z     vdW  Elec       q    Type
REMARK                         _______ _______ _______ _____ _____    ______ ____
ROOT
ATOM      1  C   UNL     1       3.652   6.039   0.001  0.00  0.00    +0.212 C 
ENDROOT
BRANCH   1   2
ATOM      2  C   UNL     1       4.160   6.184   1.412  0.00  0.00    +0.099 A 
ATOM      3  C   UNL     1       5.588   6.380   1.659  0.00  0.00    +0.013 A 
ATOM      4  C   UNL     1       6.514   6.449   0.617  0.00  0.00    +0.010 A 
ATOM      5  C   UNL     1       7.838   6.641   0.898  0.00  0.00    +0.001 A 
ATOM      6  C   UNL     1       8.277   6.772   2.210  0.00  0.00    +0.001 A 
ATOM      7  C   UNL     1       7.386   6.713   3.259  0.00  0.00    +0.014 A 
ATOM      8  C   UNL     1       6.030   6.519   2.995  0.00  0.00    +0.050 A 
ATOM      9  C   UNL     1       5.031   6.447   4.068  0.00  0.00    +0.272 A 
ATOM     10  O   UNL     1       5.364   6.555   5.235  0.00  0.00    -0.266 OA
ATOM     11  N   UNL     1       3.736   6.257   3.738  0.00  0.00    -0.242 N 
ATOM     12  H   UNL     1       3.051   6.207   4.465  0.00  0.00    +0.192 HD
ATOM     13  N   UNL     1       3.329   6.130   2.410  0.00  0.00    -0.173 NA
ENDBRANCH   1   2
BRANCH   1  15
ATOM     14  N   UNL     1       4.434   8.279  -0.699  0.00  0.00    -0.205 N 
ATOM     15  C   UNL     1       3.414   7.405  -0.590  0.00  0.00    +0.259 C 
ATOM     16  O   UNL     1       2.304   7.718  -0.968  0.00  0.00    -0.272 OA
ATOM     17  H   UNL     1       5.322   8.030  -0.397  0.00  0.00    +0.177 HD
BRANCH  14  19
ATOM     18  C   UNL     1       5.197  10.392  -1.353  0.00  0.00    +0.142 C 
ATOM     19  N   UNL     1       4.213   9.549  -1.248  0.00  0.00    -0.188 NA
BRANCH  18  21
ATOM     20  C   UNL     1       3.711  12.113  -2.371  0.00  0.00    +0.168 A 
ATOM     21  C   UNL     1       4.965  11.725  -1.930  0.00  0.00    +0.045 A 
ATOM     22  C   UNL     1       6.033  12.688  -2.056  0.00  0.00    +0.035 A 
ATOM     23  C   UNL     1       5.745  13.893  -2.601  0.00  0.00    +0.049 A 
ATOM     24  S   UNL     1       4.003  13.772  -2.954  0.00  0.00    -0.045 S 
BRANCH  20  26
ATOM     25  C   UNL     1       1.391  12.058  -2.883  0.00  0.00    +0.277 C 
ATOM     26  O   UNL     1       2.551  11.407  -2.361  0.00  0.00    -0.488 OA
ENDBRANCH  20  26
BRANCH  23  27
ATOM     27  S   UNL     1       6.829  15.253  -2.885  0.00  0.00    -0.121 S 
ATOM     28  C   UNL     1       5.761  16.517  -3.627  0.00  0.00    +0.090 C 
ENDBRANCH  23  27
ENDBRANCH  18  21
ENDBRANCH  14  19
ENDBRANCH   1  15
BRANCH   1  29
ATOM     29  N   UNL     1       2.397   5.285   0.008  0.00  0.00    -0.295 N 
ATOM     30  H   UNL     1       1.548   5.755   0.018  0.00  0.00    +0.150 HD
ATOM     31  C   UNL     1       2.420   3.937   0.001  0.00  0.00    +0.245 C 
ATOM     32  O   UNL     1       3.483   3.348  -0.012  0.00  0.00    -0.270 OA
BRANCH  31  33
ATOM     33  C   UNL     1       1.153   3.176   0.008  0.00  0.00    +0.037 A 
ATOM     34  C   UNL     1       1.174   1.780   0.000  0.00  0.00    +0.013 A 
ATOM     35  C   UNL     1      -0.013   1.076   0.008  0.00  0.00    +0.001 A 
ATOM     36  C   UNL     1      -1.221   1.750   0.017  0.00  0.00    +0.000 A 
ATOM     37  C   UNL     1      -1.248   3.133   0.031  0.00  0.00    +0.001 A 
ATOM     38  C   UNL     1      -0.070   3.849   0.023  0.00  0.00    +0.013 A 
ENDBRANCH  31  33
ENDBRANCH   1  29
TORSDOF 8
