REMARK  Name = ZINC10383832
REMARK  10 active torsions:
REMARK  status: ('A' for Active; 'I' for Inactive)
REMARK    1  A    between atoms: C_1  and  C_2
REMARK    2  A    between atoms: C_2  and  C_3
REMARK    3  A    between atoms: C_9  and  C_37
REMARK    4  A    between atoms: C_12  and  N_18
REMARK    5  A    between atoms: C_15  and  C_17
REMARK    6  A    between atoms: N_18  and  C_19
REMARK    7  A    between atoms: C_22  and  C_25
REMARK    8  A    between atoms: C_26  and  C_28
REMARK    9  A    between atoms: C_28  and  N_74
REMARK   10  A    between atoms: C_31  and  C_34
REMARK                            x       y       z     vdW  Elec       q    Type
REMARK                         _______ _______ _______ _____ _____    ______ ____
ROOT
ATOM      1  N   UNL     1       5.155   2.122   0.164  0.00  0.00    -0.265 N 
ATOM      2  C   UNL     1       5.058   1.108   1.047  0.00  0.00    +0.204 C 
ATOM      3  O   UNL     1       4.022   0.927   1.652  0.00  0.00    -0.277 OA
ENDROOT
BRANCH   1  13
ATOM      4  C   UNL     1       0.006   3.434   1.190  0.00  0.00    +0.220 C 
ATOM      5  O   UNL     1      -0.752   2.487   1.142  0.00  0.00    -0.275 OA
ATOM      6  N   UNL     1       1.218   3.357   0.606  0.00  0.00    -0.268 N 
ATOM      7  C   UNL     1       1.543   2.273  -0.221  0.00  0.00    +0.042 A 
ATOM      8  C   UNL     1       0.530   1.429  -0.661  0.00  0.00    +0.024 A 
ATOM      9  C   UNL     1       0.831   0.351  -1.470  0.00  0.00    +0.005 A 
ATOM     10  C   UNL     1       2.142   0.113  -1.841  0.00  0.00    -0.050 A 
ATOM     11  C   UNL     1       3.150   0.951  -1.406  0.00  0.00    +0.010 A 
ATOM     12  C   UNL     1       2.856   2.036  -0.596  0.00  0.00    -0.005 A 
ATOM     13  C   UNL     1       3.977   2.935  -0.148  0.00  0.00    +0.115 C 
ATOM     14  C   UNL     1       3.566   3.725   1.095  0.00  0.00    +0.050 C 
ATOM     15  C   UNL     1       2.220   4.409   0.824  0.00  0.00    +0.081 C 
ATOM     16  C   UNL     1       1.821   5.262   2.030  0.00  0.00    +0.028 C 
ATOM     17  C   UNL     1       2.471  -1.064  -2.723  0.00  0.00    +0.044 C 
BRANCH   4  19
ATOM     18  C   UNL     1      -1.867   4.573   2.349  0.00  0.00    +0.013 C 
ATOM     19  C   UNL     1      -0.409   4.695   1.903  0.00  0.00    +0.093 C 
ENDBRANCH   4  19
ENDBRANCH   1  13
BRANCH   1  20
ATOM     20  C   UNL     1       6.380   2.397  -0.454  0.00  0.00    +0.037 A 
ATOM     21  C   UNL     1       7.483   2.746   0.314  0.00  0.00    +0.024 A 
ATOM     22  C   UNL     1       8.692   3.011  -0.299  0.00  0.00    +0.005 A 
ATOM     23  C   UNL     1       8.802   2.941  -1.675  0.00  0.00    -0.050 A 
ATOM     24  C   UNL     1       7.704   2.598  -2.443  0.00  0.00    +0.005 A 
ATOM     25  C   UNL     1       6.493   2.326  -1.836  0.00  0.00    +0.024 A 
ATOM     26  C   UNL     1      10.121   3.237  -2.341  0.00  0.00    +0.044 C 
ENDBRANCH   1  20
BRANCH   2  27
ATOM     27  C   UNL     1       6.236   0.199   1.283  0.00  0.00    +0.019 C 
BRANCH  27  33
ATOM     28  C   UNL     1       4.677  -1.628   1.587  0.00  0.00    -0.077 C 
ATOM     29  C   UNL     1       4.192  -2.684   2.582  0.00  0.00    -0.006 C 
ATOM     30  C   UNL     1       5.331  -3.666   2.873  0.00  0.00    +0.071 C 
ATOM     31  C   UNL     1       6.536  -2.891   3.414  0.00  0.00    -0.006 C 
ATOM     32  C   UNL     1       6.953  -1.829   2.394  0.00  0.00    -0.077 C 
ATOM     33  N   UNL     1       5.822  -0.902   2.177  0.00  0.00    +0.385 N 
ATOM     34  H   UNL     1       5.536  -0.508   3.081  0.00  0.00    -0.081 HD
BRANCH  30  35
ATOM     35  C   UNL     1       4.879  -4.674   3.898  0.00  0.00    +0.213 C 
ATOM     36  O   UNL     1       5.463  -4.766   4.957  0.00  0.00    -0.276 OA
ATOM     37  N   UNL     1       3.826  -5.474   3.637  0.00  0.00    -0.329 N 
ATOM     38  H   UNL     1       3.360  -5.401   2.790  0.00  0.00    +0.145 HD
ATOM     39  H   UNL     1       3.536  -6.123   4.296  0.00  0.00    +0.145 HD
ENDBRANCH  30  35
ENDBRANCH  27  33
ENDBRANCH   2  27
TORSDOF 6
