REMARK  Name = ZINC62824536
REMARK  6 active torsions:
REMARK  status: ('A' for Active; 'I' for Inactive)
REMARK    1  A    between atoms: C_1  and  C_2
REMARK    2  A    between atoms: C_2  and  C_4
REMARK    3  A    between atoms: C_2  and  C_6
REMARK    4  A    between atoms: C_4  and  N_5
REMARK    5  A    between atoms: N_8  and  C_9
REMARK    6  A    between atoms: C_14  and  C_15
REMARK                            x       y       z     vdW  Elec       q    Type
REMARK                         _______ _______ _______ _____ _____    ______ ____
ROOT
ATOM      1  C   UNL     1       0.732  -0.504   1.221  0.00  0.00    +0.218 C 
ATOM      2  O   UNL     1       0.164  -1.225   2.014  0.00  0.00    -0.275 OA
ATOM      3  N   UNL     1       2.019  -0.159   1.426  0.00  0.00    -0.285 N 
ATOM      4  H   UNL     1       2.498   0.350   0.754  0.00  0.00    +0.155 HD
ENDROOT
BRANCH   3   5
ATOM      5  C   UNL     1       2.661  -0.534   2.603  0.00  0.00    +0.048 A 
ATOM      6  C   UNL     1       1.923  -0.776   3.754  0.00  0.00    +0.025 A 
ATOM      7  C   UNL     1       2.561  -1.147   4.920  0.00  0.00    +0.016 A 
ATOM      8  C   UNL     1       3.941  -1.282   4.953  0.00  0.00    +0.014 A 
ATOM      9  C   UNL     1       4.691  -1.046   3.822  0.00  0.00    +0.031 A 
ATOM     10  C   UNL     1       4.058  -0.675   2.631  0.00  0.00    +0.085 A 
ATOM     11  I   UNL     1       4.890  -1.847   6.733  0.00  0.00    -0.044 I 
BRANCH  10  12
ATOM     12  C   UNL     1       4.851  -0.427   1.417  0.00  0.00    +0.388 C 
ATOM     13  O   UNL     1       6.056  -0.638   1.420  0.00  0.00    -0.241 OA
ATOM     14  O   UNL     1       4.306  -0.010   0.404  0.00  0.00    -0.241 OA
ENDBRANCH  10  12
ENDBRANCH   3   5
BRANCH   1  16
ATOM     15  C   UNL     1      -0.028   1.536   0.034  0.00  0.00    +0.015 C 
ATOM     16  C   UNL     1      -0.001   0.006   0.007  0.00  0.00    +0.055 C 
BRANCH  16  17
ATOM     17  C   UNL     1      -1.434  -0.529   0.014  0.00  0.00    -0.074 C 
BRANCH  17  18
ATOM     18  N   UNL     1      -2.111  -0.132  -1.227  0.00  0.00    +0.379 N 
ATOM     19  H   UNL     1      -2.129   0.875  -1.293  0.00  0.00    -0.090 HD
ATOM     20  H   UNL     1      -1.614  -0.512  -2.018  0.00  0.00    -0.090 HD
ATOM     21  H   UNL     1      -3.056  -0.485  -1.222  0.00  0.00    -0.090 HD
ENDBRANCH  17  18
ENDBRANCH  16  17
ENDBRANCH   1  16
TORSDOF 5
