REMARK  Name = ZINC65227437
REMARK  6 active torsions:
REMARK  status: ('A' for Active; 'I' for Inactive)
REMARK    1  A    between atoms: C_1  and  C_2
REMARK    2  A    between atoms: C_3  and  C_28
REMARK    3  A    between atoms: C_9  and  N_12
REMARK    4  A    between atoms: C_15  and  C_18
REMARK    5  A    between atoms: N_20  and  C_21
REMARK    6  A    between atoms: C_21  and  C_22
REMARK                            x       y       z     vdW  Elec       q    Type
REMARK                         _______ _______ _______ _____ _____    ______ ____
ROOT
ATOM      1  N   UNL     1       0.085  -4.882   3.413  0.00  0.00    -0.329 N 
ATOM      2  C   UNL     1       0.187  -4.245   4.733  0.00  0.00    +0.106 C 
ATOM      3  C   UNL     1       1.362  -4.870   5.492  0.00  0.00    +0.031 C 
ATOM      4  C   UNL     1       1.183  -6.389   5.540  0.00  0.00    +0.078 C 
ATOM      5  C   UNL     1       1.177  -6.949   4.115  0.00  0.00    +0.031 C 
ATOM      6  C   UNL     1      -0.005  -6.347   3.341  0.00  0.00    +0.106 C 
ENDROOT
BRANCH   1  15
ATOM      7  C   UNL     1      -0.064   1.502   0.010  0.00  0.00    +0.067 C 
ATOM      8  C   UNL     1      -0.027  -0.005   0.002  0.00  0.00    +0.060 A 
ATOM      9  C   UNL     1      -0.007  -0.690  -1.214  0.00  0.00    +0.062 A 
ATOM     10  N   UNL     1       0.026  -2.002  -1.247  0.00  0.00    -0.229 NA
ATOM     11  C   UNL     1       0.040  -2.696  -0.103  0.00  0.00    +0.179 A 
ATOM     12  C   UNL     1       0.019  -1.998   1.132  0.00  0.00    +0.110 A 
ATOM     13  N   UNL     1      -0.008  -0.662   1.140  0.00  0.00    -0.247 NA
ATOM     14  C   UNL     1       0.034  -2.732   2.332  0.00  0.00    +0.056 A 
ATOM     15  C   UNL     1       0.069  -4.111   2.250  0.00  0.00    +0.050 A 
ATOM     16  C   UNL     1       0.087  -4.730   0.993  0.00  0.00    +0.136 A 
ATOM     17  N   UNL     1       0.073  -4.032  -0.115  0.00  0.00    -0.233 NA
ATOM     18  C   UNL     1      -0.023   0.087  -2.506  0.00  0.00    +0.067 C 
ENDBRANCH   1  15
BRANCH   4  19
ATOM     19  C   UNL     1       2.320  -7.004   6.316  0.00  0.00    +0.216 C 
ATOM     20  O   UNL     1       3.187  -6.297   6.784  0.00  0.00    -0.276 OA
ATOM     21  N   UNL     1       2.372  -8.340   6.489  0.00  0.00    -0.313 N 
ATOM     22  H   UNL     1       1.679  -8.905   6.114  0.00  0.00    +0.149 HD
BRANCH  21  23
ATOM     23  C   UNL     1       3.477  -8.938   7.243  0.00  0.00    +0.135 C 
BRANCH  23  24
ATOM     24  C   UNL     1       3.298 -10.456   7.291  0.00  0.00    +0.135 C 
ATOM     25  C   UNL     1       4.439 -11.106   8.114  0.00  0.00    +0.035 C 
ATOM     26  C   UNL     1       3.757 -12.424   8.573  0.00  0.00    +0.031 C 
ATOM     27  C   UNL     1       2.289 -11.985   8.762  0.00  0.00    +0.160 C 
ATOM     28  O   UNL     1       2.089 -10.795   7.988  0.00  0.00    -0.375 OA
ENDBRANCH  23  24
ENDBRANCH  21  23
ENDBRANCH   4  19
TORSDOF 4
