REMARK  Name = ZINC58948710
REMARK  8 active torsions:
REMARK  status: ('A' for Active; 'I' for Inactive)
REMARK    1  A    between atoms: C_1  and  C_2
REMARK    2  A    between atoms: C_2  and  O_3
REMARK    3  A    between atoms: O_3  and  C_4
REMARK    4  A    between atoms: C_4  and  C_6
REMARK    5  A    between atoms: C_7  and  C_31
REMARK    6  A    between atoms: C_9  and  N_30
REMARK    7  A    between atoms: C_10  and  C_27
REMARK    8  A    between atoms: C_11  and  C_13
REMARK                            x       y       z     vdW  Elec       q    Type
REMARK                         _______ _______ _______ _____ _____    ______ ____
ROOT
ATOM      1  C   UNL     1      -2.760  -2.424   0.235  0.00  0.00    +0.086 C 
ATOM      2  C   UNL     1      -2.932  -3.752   0.210  0.00  0.00    +0.115 C 
ATOM      3  O   UNL     1      -4.149  -4.309   0.104  0.00  0.00    -0.446 OA
ATOM      4  C   UNL     1      -5.245  -3.586   0.394  0.00  0.00    +0.193 C 
ATOM      5  C   UNL     1      -5.208  -2.230   0.431  0.00  0.00    +0.083 C 
ATOM      6  C   UNL     1      -3.933  -1.486   0.152  0.00  0.00    +0.100 C 
ATOM      7  C   UNL     1      -1.723  -4.647   0.301  0.00  0.00    +0.087 C 
ENDROOT
BRANCH   6   8
ATOM      8  C   UNL     1      -3.999  -0.889  -1.230  0.00  0.00    -0.020 A 
ATOM      9  C   UNL     1      -3.789   0.477  -1.415  0.00  0.00    -0.013 A 
ATOM     10  C   UNL     1      -3.511   1.326  -0.322  0.00  0.00    +0.009 A 
ATOM     11  C   UNL     1      -3.312   2.651  -0.538  0.00  0.00    +0.001 A 
ATOM     12  C   UNL     1      -3.374   3.204  -1.818  0.00  0.00    +0.001 A 
ATOM     13  C   UNL     1      -3.637   2.444  -2.911  0.00  0.00    +0.008 A 
ATOM     14  C   UNL     1      -3.854   1.058  -2.760  0.00  0.00    -0.017 A 
ATOM     15  C   UNL     1      -4.127   0.248  -3.861  0.00  0.00    +0.017 A 
ATOM     16  C   UNL     1      -4.338  -1.117  -3.676  0.00  0.00    -0.017 A 
ATOM     17  C   UNL     1      -4.265  -1.699  -2.332  0.00  0.00    -0.013 A 
ATOM     18  C   UNL     1      -4.477  -3.087  -2.182  0.00  0.00    +0.009 A 
ATOM     19  C   UNL     1      -4.734  -3.848  -3.276  0.00  0.00    +0.001 A 
ATOM     20  C   UNL     1      -4.796  -3.295  -4.556  0.00  0.00    +0.001 A 
ATOM     21  C   UNL     1      -4.616  -1.966  -4.769  0.00  0.00    +0.008 A 
ENDBRANCH   6   8
BRANCH   5  22
ATOM     22  C   UNL     1      -6.378  -1.512   0.739  0.00  0.00    +0.243 C 
ATOM     23  O   UNL     1      -6.546  -1.074   1.863  0.00  0.00    -0.271 OA
ATOM     24  N   UNL     1      -7.312  -1.307  -0.211  0.00  0.00    -0.325 N 
ATOM     25  H   UNL     1      -7.178  -1.655  -1.106  0.00  0.00    +0.145 HD
ATOM     26  H   UNL     1      -8.119  -0.811   0.001  0.00  0.00    +0.145 HD
ENDBRANCH   5  22
BRANCH   4  27
ATOM     27  N   UNL     1      -6.424  -4.232   0.657  0.00  0.00    -0.329 N 
ATOM     28  H   UNL     1      -6.446  -5.200   0.706  0.00  0.00    +0.145 HD
ATOM     29  H   UNL     1      -7.236  -3.721   0.796  0.00  0.00    +0.145 HD
ENDBRANCH   4  27
BRANCH   1  30
ATOM     30  C   UNL     1      -1.451  -1.894   0.347  0.00  0.00    +0.339 C 
ATOM     31  O   UNL     1      -1.072  -1.429   1.405  0.00  0.00    -0.245 OA
BRANCH  30  32
ATOM     32  O   UNL     1      -0.625  -1.905  -0.720  0.00  0.00    -0.462 OA
BRANCH  32  34
ATOM     33  C   UNL     1       1.466  -1.453  -1.844  0.00  0.00    +0.048 C 
ATOM     34  C   UNL     1       0.680  -1.354  -0.535  0.00  0.00    +0.229 C 
ENDBRANCH  32  34
ENDBRANCH  30  32
ENDBRANCH   1  30
TORSDOF 6
