REMARK  Name = ZINC09312248
REMARK  15 active torsions:
REMARK  status: ('A' for Active; 'I' for Inactive)
REMARK    1  A    between atoms: C_1  and  C_2
REMARK    2  A    between atoms: C_2  and  O_3
REMARK    3  A    between atoms: O_3  and  C_4
REMARK    4  A    between atoms: C_7  and  C_13
REMARK    5  A    between atoms: C_9  and  O_10
REMARK    6  A    between atoms: O_10  and  C_11
REMARK    7  A    between atoms: C_11  and  C_12
REMARK    8  A    between atoms: C_16  and  C_17
REMARK    9  A    between atoms: C_16  and  O_27
REMARK   10  A    between atoms: N_32  and  C_33
REMARK   11  A    between atoms: C_33  and  C_34
REMARK   12  A    between atoms: C_34  and  C_35
REMARK   13  A    between atoms: C_35  and  N_71
REMARK   14  A    between atoms: C_36  and  N_71
REMARK   15  A    between atoms: C_37  and  N_71
REMARK                            x       y       z     vdW  Elec       q    Type
REMARK                         _______ _______ _______ _____ _____    ______ ____
ROOT
ATOM      1  C   UNL     1      -6.249  -0.712   0.259  0.00  0.00    +0.145 C 
ATOM      2  C   UNL     1      -4.873  -0.100   0.134  0.00  0.00    +0.071 C 
ATOM      3  C   UNL     1      -3.672  -0.774   0.018  0.00  0.00    +0.133 C 
ATOM      4  C   UNL     1      -5.059   1.290   0.166  0.00  0.00    +0.249 C 
ATOM      5  O   UNL     1      -4.180   2.130   0.094  0.00  0.00    -0.282 OA
ATOM      6  C   UNL     1      -6.516   1.560   0.298  0.00  0.00    +0.288 C 
ATOM      7  O   UNL     1      -7.017   2.664   0.350  0.00  0.00    -0.266 OA
ATOM      8  N   UNL     1      -7.196   0.402   0.354  0.00  0.00    -0.284 N 
ENDROOT
BRANCH   3   9
ATOM      9  C   UNL     1      -2.433  -0.029  -0.254  0.00  0.00    +0.021 A 
ATOM     10  C   UNL     1      -2.384   0.890  -1.309  0.00  0.00    +0.015 A 
ATOM     11  C   UNL     1      -1.222   1.583  -1.563  0.00  0.00    +0.050 A 
ATOM     12  C   UNL     1      -0.096   1.378  -0.772  0.00  0.00    +0.162 A 
ATOM     13  C   UNL     1      -0.139   0.466   0.281  0.00  0.00    +0.163 A 
ATOM     14  C   UNL     1      -1.300  -0.236   0.540  0.00  0.00    +0.061 A 
ATOM     15  O   UNL     1       0.955   0.255   1.064  0.00  0.00    -0.485 OA
ATOM     16  C   UNL     1       2.213   0.700   0.544  0.00  0.00    +0.270 C 
ATOM     17  C   UNL     1       2.029   2.119  -0.009  0.00  0.00    +0.270 C 
ATOM     18  O   UNL     1       1.040   2.073  -1.043  0.00  0.00    -0.485 OA
ENDBRANCH   3   9
BRANCH   1  22
ATOM     19  C   UNL     1      -7.118  -3.076  -3.197  0.00  0.00    +0.162 A 
ATOM     20  C   UNL     1      -7.229  -1.696  -3.252  0.00  0.00    +0.050 A 
ATOM     21  C   UNL     1      -6.948  -0.935  -2.133  0.00  0.00    +0.009 A 
ATOM     22  C   UNL     1      -6.555  -1.547  -0.958  0.00  0.00    -0.019 A 
ATOM     23  C   UNL     1      -6.437  -2.923  -0.897  0.00  0.00    +0.055 A 
ATOM     24  C   UNL     1      -6.722  -3.693  -2.014  0.00  0.00    +0.162 A 
BRANCH  19  25
ATOM     25  O   UNL     1      -7.394  -3.827  -4.297  0.00  0.00    -0.489 OA
BRANCH  25  27
ATOM     26  C   UNL     1      -8.061  -4.130  -6.600  0.00  0.00    +0.048 C 
ATOM     27  C   UNL     1      -7.795  -3.127  -5.476  0.00  0.00    +0.226 C 
ENDBRANCH  25  27
ENDBRANCH  19  25
BRANCH  24  28
ATOM     28  O   UNL     1      -6.612  -5.047  -1.954  0.00  0.00    -0.489 OA
BRANCH  28  29
ATOM     29  C   UNL     1      -6.200  -5.610  -0.707  0.00  0.00    +0.226 C 
ATOM     30  C   UNL     1      -6.133  -7.133  -0.833  0.00  0.00    +0.048 C 
ENDBRANCH  28  29
ENDBRANCH  24  28
ENDBRANCH   1  22
BRANCH   3  31
ATOM     31  O   UNL     1      -3.636  -2.117   0.155  0.00  0.00    -0.506 OA
ATOM     32  H   UNL     1      -2.696  -2.438   0.043  0.00  0.00    +0.292 HD
ENDBRANCH   3  31
BRANCH   8  33
ATOM     33  C   UNL     1      -8.649   0.275   0.489  0.00  0.00    +0.107 C 
BRANCH  33  34
ATOM     34  C   UNL     1      -9.021   0.222   1.973  0.00  0.00    +0.000 C 
BRANCH  34  35
ATOM     35  C   UNL     1     -10.539   0.089   2.114  0.00  0.00    -0.078 C 
BRANCH  35  38
ATOM     36  C   UNL     1     -10.593   1.313   4.202  0.00  0.00    -0.097 C 
ATOM     37  C   UNL     1     -12.308  -0.326   3.714  0.00  0.00    -0.097 C 
ATOM     38  N   UNL     1     -10.880   0.018   3.550  0.00  0.00    +0.376 N 
ATOM     39  H   UNL     1     -10.308  -0.712   3.993  0.00  0.00    -0.083 HD
ENDBRANCH  35  38
ENDBRANCH  34  35
ENDBRANCH  33  34
ENDBRANCH   8  33
TORSDOF 11
