REMARK  Name = ZINC23616858
REMARK  11 active torsions:
REMARK  status: ('A' for Active; 'I' for Inactive)
REMARK    1  A    between atoms: C_1  and  C_2
REMARK    2  A    between atoms: C_7  and  C_8
REMARK    3  A    between atoms: C_8  and  N_9
REMARK    4  A    between atoms: N_9  and  C_10
REMARK    5  A    between atoms: C_11  and  C_13
REMARK    6  A    between atoms: C_13  and  C_15
REMARK    7  A    between atoms: C_13  and  S_16
REMARK    8  A    between atoms: S_16  and  C_17
REMARK    9  A    between atoms: C_20  and  C_23
REMARK   10  A    between atoms: N_21  and  N_22
REMARK   11  A    between atoms: C_27  and  C_28
REMARK                            x       y       z     vdW  Elec       q    Type
REMARK                         _______ _______ _______ _____ _____    ______ ____
ROOT
ATOM      1  S   UNL     1       0.001   1.894   0.159  0.00  0.00    -0.072 S 
ENDROOT
BRANCH   1   2
ATOM      2  C   UNL     1       1.712   2.235   0.407  0.00  0.00    +0.209 A 
ATOM      3  N   UNL     1       2.657   1.352   0.631  0.00  0.00    -0.121 NA
ATOM      4  N   UNL     1       3.790   1.943   0.766  0.00  0.00    -0.127 NA
ATOM      5  C   UNL     1       3.638   3.240   0.637  0.00  0.00    +0.185 A 
ATOM      6  N   UNL     1       2.303   3.467   0.397  0.00  0.00    -0.224 N 
BRANCH   5   7
ATOM      7  C   UNL     1       4.702   4.263   0.726  0.00  0.00    +0.061 A 
ATOM      8  C   UNL     1       4.548   5.717   0.584  0.00  0.00    +0.053 A 
ATOM      9  C   UNL     1       5.777   6.237   0.741  0.00  0.00    +0.196 A 
ATOM     10  O   UNL     1       6.649   5.241   0.962  0.00  0.00    -0.467 OA
ATOM     11  C   UNL     1       6.025   4.054   0.962  0.00  0.00    +0.112 A 
ATOM     12  C   UNL     1       6.680   2.715   1.183  0.00  0.00    +0.087 C 
ENDBRANCH   5   7
BRANCH   6  13
ATOM     13  N   UNL     1       1.694   4.673   0.194  0.00  0.00    -0.295 N 
ATOM     14  H   UNL     1       2.288   5.599   0.211  0.00  0.00    +0.163 HD
ATOM     15  H   UNL     1       0.610   4.719   0.014  0.00  0.00    +0.163 HD
ENDBRANCH   6  13
ENDBRANCH   1   2
BRANCH   1  16
ATOM     16  C   UNL     1       0.015   0.090   0.307  0.00  0.00    +0.137 C 
ATOM     17  C   UNL     1       0.828  -0.510  -0.842  0.00  0.00    +0.029 C 
BRANCH  16  20
ATOM     18  N   UNL     1      -1.706  -1.612   0.818  0.00  0.00    -0.299 N 
ATOM     19  C   UNL     1      -0.667  -2.391   1.496  0.00  0.00    +0.132 C 
ATOM     20  C   UNL     1      -1.398  -0.430   0.247  0.00  0.00    +0.229 C 
ATOM     21  O   UNL     1      -2.258   0.214  -0.315  0.00  0.00    -0.274 OA
BRANCH  18  22
ATOM     22  C   UNL     1      -3.080  -2.117   0.759  0.00  0.00    +0.142 C 
BRANCH  22  29
ATOM     23  C   UNL     1      -5.711  -3.071   0.042  0.00  0.00    +0.044 C 
ATOM     24  C   UNL     1      -4.540  -3.333  -0.870  0.00  0.00    -0.046 A 
ATOM     25  C   UNL     1      -4.726  -4.029  -2.050  0.00  0.00    +0.003 A 
ATOM     26  C   UNL     1      -3.652  -4.268  -2.887  0.00  0.00    +0.000 A 
ATOM     27  C   UNL     1      -2.393  -3.811  -2.544  0.00  0.00    +0.000 A 
ATOM     28  C   UNL     1      -2.209  -3.111  -1.367  0.00  0.00    +0.005 A 
ATOM     29  C   UNL     1      -3.282  -2.876  -0.527  0.00  0.00    -0.027 A 
ENDBRANCH  22  29
ENDBRANCH  18  22
ENDBRANCH  16  20
ENDBRANCH   1  16
TORSDOF 7
