REMARK  Name = ZINC02420128
REMARK  13 active torsions:
REMARK  status: ('A' for Active; 'I' for Inactive)
REMARK    1  A    between atoms: C_1  and  C_2
REMARK    2  A    between atoms: C_2  and  C_3
REMARK    3  A    between atoms: C_3  and  C_4
REMARK    4  A    between atoms: C_4  and  C_5
REMARK    5  A    between atoms: C_11  and  N_17
REMARK    6  A    between atoms: C_13  and  S_15
REMARK    7  A    between atoms: S_15  and  C_16
REMARK    8  A    between atoms: N_17  and  C_18
REMARK    9  A    between atoms: C_18  and  C_19
REMARK   10  A    between atoms: C_19  and  C_20
REMARK   11  A    between atoms: C_20  and  N_60
REMARK   12  A    between atoms: C_21  and  N_60
REMARK   13  A    between atoms: C_22  and  N_60
REMARK                            x       y       z     vdW  Elec       q    Type
REMARK                         _______ _______ _______ _____ _____    ______ ____
ROOT
ATOM      1  C   UNL     1      -2.595   8.740   4.437  0.00  0.00    +0.046 A 
ATOM      2  C   UNL     1      -2.848   7.456   4.901  0.00  0.00    -0.022 A 
ATOM      3  C   UNL     1      -2.424   6.369   4.171  0.00  0.00    -0.031 A 
ATOM      4  C   UNL     1      -1.736   6.575   2.956  0.00  0.00    +0.037 A 
ATOM      5  C   UNL     1      -1.204   5.553   2.035  0.00  0.00    +0.094 A 
ATOM      6  C   UNL     1      -0.561   6.036   0.890  0.00  0.00    +0.080 A 
ATOM      7  C   UNL     1      -0.021   5.167  -0.049  0.00  0.00    +0.138 A 
ATOM      8  N   UNL     1      -0.125   3.857   0.167  0.00  0.00    -0.206 NA
ATOM      9  C   UNL     1      -0.741   3.411   1.254  0.00  0.00    +0.190 A 
ATOM     10  N   UNL     1      -1.262   4.208   2.163  0.00  0.00    -0.221 NA
ATOM     11  S   UNL     1      -0.658   7.800   1.032  0.00  0.00    -0.064 S 
ATOM     12  C   UNL     1      -1.532   7.913   2.574  0.00  0.00    +0.111 A 
ATOM     13  N   UNL     1      -1.952   8.927   3.301  0.00  0.00    -0.244 NA
ATOM     14  C   UNL     1      -2.812   5.088   4.872  0.00  0.00    +0.036 C 
ATOM     15  C   UNL     1      -3.896   5.501   5.891  0.00  0.00    +0.009 C 
ATOM     16  C   UNL     1      -3.555   6.984   6.154  0.00  0.00    +0.037 C 
ENDROOT
BRANCH   9  17
ATOM     17  S   UNL     1      -0.860   1.669   1.497  0.00  0.00    -0.089 S 
ATOM     18  C   UNL     1      -0.013   1.086   0.008  0.00  0.00    +0.093 C 
ENDBRANCH   9  17
BRANCH   7  19
ATOM     19  N   UNL     1       0.614   5.652  -1.181  0.00  0.00    -0.328 N 
ATOM     20  H   UNL     1       0.685   6.608  -1.326  0.00  0.00    +0.147 HD
BRANCH  19  21
ATOM     21  C   UNL     1       1.177   4.719  -2.161  0.00  0.00    +0.101 C 
BRANCH  21  22
ATOM     22  C   UNL     1       1.816   5.507  -3.306  0.00  0.00    +0.000 C 
BRANCH  22  23
ATOM     23  C   UNL     1       2.405   4.533  -4.329  0.00  0.00    -0.078 C 
BRANCH  23  26
ATOM     24  C   UNL     1       4.184   6.050  -4.959  0.00  0.00    -0.097 C 
ATOM     25  C   UNL     1       3.382   4.401  -6.540  0.00  0.00    -0.097 C 
ATOM     26  N   UNL     1       2.999   5.308  -5.438  0.00  0.00    +0.376 N 
ATOM     27  H   UNL     1       2.304   5.980  -5.786  0.00  0.00    -0.083 HD
ENDBRANCH  23  26
ENDBRANCH  22  23
ENDBRANCH  21  22
ENDBRANCH  19  21
ENDBRANCH   7  19
BRANCH   1  28
ATOM     28  C   UNL     1      -3.059   9.929   5.238  0.00  0.00    +0.056 C 
BRANCH  28  29
ATOM     29  C   UNL     1      -1.961  10.342   6.220  0.00  0.00    +0.006 C 
BRANCH  29  31
ATOM     30  C   UNL     1      -1.334  11.963   8.015  0.00  0.00    +0.004 C 
ATOM     31  C   UNL     1      -2.432  11.550   7.033  0.00  0.00    -0.003 C 
ENDBRANCH  29  31
ENDBRANCH  28  29
ENDBRANCH   1  28
TORSDOF 9
