REMARK  Name = ZINC02945125
REMARK  4 active torsions:
REMARK  status: ('A' for Active; 'I' for Inactive)
REMARK    1  A    between atoms: C_6  and  N_7
REMARK    2  A    between atoms: C_11  and  N_55
REMARK    3  A    between atoms: C_17  and  C_20
REMARK    4  A    between atoms: C_17  and  N_57
REMARK                            x       y       z     vdW  Elec       q    Type
REMARK                         _______ _______ _______ _____ _____    ______ ____
ROOT
ATOM      1  C   UNL     1       6.167   5.294   0.783  0.00  0.00    -0.079 C 
ATOM      2  C   UNL     1       6.715   5.714   2.149  0.00  0.00    -0.021 C 
ATOM      3  C   UNL     1       6.235   7.132   2.472  0.00  0.00    +0.009 C 
ATOM      4  C   UNL     1       4.704   7.163   2.444  0.00  0.00    -0.021 C 
ATOM      5  C   UNL     1       4.215   6.701   1.070  0.00  0.00    -0.079 C 
ATOM      6  N   UNL     1       4.689   5.322   0.830  0.00  0.00    +0.388 N 
ATOM      7  H   UNL     1       4.369   4.721   1.599  0.00  0.00    -0.081 HD
ENDROOT
BRANCH   6  12
ATOM      8  N   UNL     1       2.346   3.323  -0.478  0.00  0.00    -0.212 N 
ATOM      9  C   UNL     1       3.407   2.539  -0.709  0.00  0.00    +0.225 C 
ATOM     10  O   UNL     1       3.370   1.341  -0.884  0.00  0.00    -0.275 OA
ATOM     11  C   UNL     1       4.660   3.388  -0.718  0.00  0.00    +0.090 C 
ATOM     12  C   UNL     1       4.134   4.811  -0.441  0.00  0.00    +0.029 C 
ATOM     13  C   UNL     1       2.639   4.618  -0.309  0.00  0.00    +0.213 C 
ATOM     14  O   UNL     1       1.835   5.497  -0.086  0.00  0.00    -0.277 OA
BRANCH   8  20
ATOM     15  C   UNL     1       0.350   2.829   0.793  0.00  0.00    +0.025 A 
ATOM     16  C   UNL     1      -0.940   2.340   0.854  0.00  0.00    +0.023 A 
ATOM     17  C   UNL     1      -1.550   1.848  -0.286  0.00  0.00    +0.059 A 
ATOM     18  C   UNL     1      -0.868   1.844  -1.492  0.00  0.00    +0.061 A 
ATOM     19  C   UNL     1       0.423   2.332  -1.558  0.00  0.00    +0.045 A 
ATOM     20  C   UNL     1       1.036   2.826  -0.414  0.00  0.00    +0.045 A 
ATOM     21 CL   UNL     1      -1.636   1.225  -2.920  0.00  0.00    -0.082 Cl
ATOM     22 CL   UNL     1      -3.172   1.234  -0.205  0.00  0.00    -0.082 Cl
ENDBRANCH   8  20
ENDBRANCH   6  12
BRANCH   3  28
ATOM     23  C   UNL     1       6.171   8.827   4.199  0.00  0.00    -0.077 C 
ATOM     24  C   UNL     1       6.566   9.130   5.646  0.00  0.00    -0.019 C 
ATOM     25  C   UNL     1       8.092   9.130   5.765  0.00  0.00    -0.004 C 
ATOM     26  C   UNL     1       8.632   7.773   5.305  0.00  0.00    -0.019 C 
ATOM     27  C   UNL     1       8.177   7.509   3.868  0.00  0.00    -0.077 C 
ATOM     28  N   UNL     1       6.699   7.498   3.826  0.00  0.00    +0.389 N 
ATOM     29  H   UNL     1       6.352   6.802   4.497  0.00  0.00    -0.080 HD
ENDBRANCH   3  28
BRANCH   3  30
ATOM     30  C   UNL     1       6.777   8.093   1.446  0.00  0.00    +0.200 C 
ATOM     31  O   UNL     1       6.044   8.916   0.940  0.00  0.00    -0.278 OA
ATOM     32  N   UNL     1       8.076   8.038   1.091  0.00  0.00    -0.330 N 
ATOM     33  H   UNL     1       8.678   7.429   1.546  0.00  0.00    +0.145 HD
ATOM     34  H   UNL     1       8.409   8.608   0.380  0.00  0.00    +0.145 HD
ENDBRANCH   3  30
TORSDOF 4
