REMARK  Name = ZINC40329514
REMARK  3 active torsions:
REMARK  status: ('A' for Active; 'I' for Inactive)
REMARK    1  A    between atoms: C_3  and  C_7
REMARK    2  A    between atoms: C_13  and  C_15
REMARK    3  A    between atoms: C_17  and  N_21
REMARK                            x       y       z     vdW  Elec       q    Type
REMARK                         _______ _______ _______ _____ _____    ______ ____
ROOT
ATOM      1  C   UNL     1       3.839   0.781   0.047  0.00  0.00    +0.123 C 
ATOM      2  C   UNL     1       4.604   0.998  -1.276  0.00  0.00    +0.030 C 
ATOM      3  C   UNL     1       5.874   0.127  -1.090  0.00  0.00    +0.021 C 
ATOM      4  C   UNL     1       5.313  -1.074  -0.288  0.00  0.00    +0.109 C 
ATOM      5  N   UNL     1       4.313  -0.484   0.626  0.00  0.00    -0.288 N 
ATOM      6  C   UNL     1       3.903  -1.015   1.795  0.00  0.00    +0.263 C 
ATOM      7  O   UNL     1       3.147  -0.390   2.516  0.00  0.00    -0.268 OA
ENDROOT
BRANCH   1  10
ATOM      8  C   UNL     1       0.227   1.224  -0.569  0.00  0.00    +0.019 A 
ATOM      9  C   UNL     1       1.509   1.742  -0.300  0.00  0.00    +0.024 A 
ATOM     10  C   UNL     1       2.359   0.698  -0.225  0.00  0.00    +0.037 A 
ATOM     11  N   UNL     1       1.649  -0.446  -0.438  0.00  0.00    -0.363 N 
ATOM     12  H   UNL     1       2.013  -1.345  -0.440  0.00  0.00    +0.165 HD
ATOM     13  C   UNL     1       0.342  -0.118  -0.648  0.00  0.00    +0.083 A 
ENDBRANCH   1  10
BRANCH   6  14
ATOM     14  C   UNL     1       4.367  -2.346   2.199  0.00  0.00    +0.104 A 
ATOM     15  C   UNL     1       4.131  -2.958   3.413  0.00  0.00    +0.055 A 
ATOM     16  C   UNL     1       4.752  -4.213   3.371  0.00  0.00    +0.043 A 
ATOM     17  C   UNL     1       5.344  -4.343   2.154  0.00  0.00    +0.106 A 
ATOM     18  N   UNL     1       5.111  -3.214   1.432  0.00  0.00    -0.355 N 
ATOM     19  H   UNL     1       5.419  -3.047   0.528  0.00  0.00    +0.166 HD
BRANCH  16  20
ATOM     20  N   UNL     1       4.761  -5.170   4.403  0.00  0.00    -0.357 N 
ATOM     21  H   UNL     1       4.308  -4.984   5.240  0.00  0.00    +0.142 HD
ATOM     22  H   UNL     1       5.221  -6.014   4.278  0.00  0.00    +0.142 HD
ENDBRANCH  16  20
ENDBRANCH   6  14
TORSDOF 3
