REMARK  Name = ZINC36007415
REMARK  13 active torsions:
REMARK  status: ('A' for Active; 'I' for Inactive)
REMARK    1  A    between atoms: C_1  and  C_2
REMARK    2  A    between atoms: C_3  and  C_33
REMARK    3  A    between atoms: C_4  and  C_32
REMARK    4  A    between atoms: C_7  and  C_8
REMARK    5  A    between atoms: C_8  and  C_10
REMARK    6  A    between atoms: C_10  and  C_12
REMARK    7  A    between atoms: C_10  and  N_13
REMARK    8  A    between atoms: N_16  and  C_19
REMARK    9  A    between atoms: C_19  and  C_20
REMARK   10  A    between atoms: C_24  and  C_31
REMARK   11  A    between atoms: C_27  and  C_30
REMARK   12  A    between atoms: C_33  and  O_35
REMARK   13  A    between atoms: O_35  and  C_36
REMARK                            x       y       z     vdW  Elec       q    Type
REMARK                         _______ _______ _______ _____ _____    ______ ____
ROOT
ATOM      1  N   UNL     1      -0.414  -0.826   4.810  0.00  0.00    -0.296 NA
ATOM      2  C   UNL     1      -1.753  -0.244   4.640  0.00  0.00    +0.066 C 
ATOM      3  C   UNL     1      -2.180   0.436   5.942  0.00  0.00    -0.063 C 
ATOM      4  N   UNL     1      -2.191  -0.552   7.030  0.00  0.00    +0.387 N 
ATOM      5  C   UNL     1      -0.842  -1.106   7.204  0.00  0.00    -0.063 C 
ATOM      6  C   UNL     1      -0.404  -1.799   5.912  0.00  0.00    +0.066 C 
ATOM      7  H   UNL     1      -2.833  -1.296   6.801  0.00  0.00    -0.081 HD
ENDROOT
BRANCH   1   8
ATOM      8  C   UNL     1       0.056  -1.440   3.561  0.00  0.00    +0.126 C 
ATOM      9  C   UNL     1       1.485  -1.952   3.750  0.00  0.00    +0.033 C 
BRANCH   8  10
ATOM     10  C   UNL     1       0.031  -0.415   2.457  0.00  0.00    +0.196 C 
ATOM     11  O   UNL     1       0.018   0.769   2.728  0.00  0.00    -0.289 OA
BRANCH  10  18
ATOM     12  C   UNL     1      -0.018   1.503   0.010  0.00  0.00    +0.047 C 
ATOM     13  C   UNL     1       0.002  -0.004   0.002  0.00  0.00    -0.008 A 
ATOM     14  C   UNL     1       0.009  -0.839  -1.136  0.00  0.00    +0.083 A 
ATOM     15  C   UNL     1       0.028  -2.147  -0.683  0.00  0.00    +0.028 A 
ATOM     16  N   UNL     1       0.034  -2.137   0.658  0.00  0.00    -0.355 N 
ATOM     17  H   UNL     1       0.047  -2.924   1.225  0.00  0.00    +0.166 HD
ATOM     18  C   UNL     1       0.024  -0.832   1.104  0.00  0.00    +0.088 A 
ATOM     19  C   UNL     1       0.041  -3.377  -1.553  0.00  0.00    +0.064 C 
BRANCH  14  20
ATOM     20  C   UNL     1      -0.003  -0.401  -2.542  0.00  0.00    +0.341 C 
ATOM     21  O   UNL     1       1.044  -0.205  -3.126  0.00  0.00    -0.245 OA
BRANCH  20  22
ATOM     22  O   UNL     1      -1.176  -0.216  -3.180  0.00  0.00    -0.464 OA
ATOM     23  C   UNL     1      -1.113   0.209  -4.543  0.00  0.00    +0.280 C 
ENDBRANCH  20  22
ENDBRANCH  14  20
ENDBRANCH  10  18
ENDBRANCH   8  10
ENDBRANCH   1   8
BRANCH   4  24
ATOM     24  C   UNL     1      -2.618   0.097   8.276  0.00  0.00    +0.019 C 
BRANCH  24  25
ATOM     25  C   UNL     1      -2.748  -0.938   9.363  0.00  0.00    +0.199 C 
ATOM     26  O   UNL     1      -2.509  -2.103   9.123  0.00  0.00    -0.278 OA
ATOM     27  N   UNL     1      -3.131  -0.571  10.602  0.00  0.00    -0.303 N 
ATOM     28  C   UNL     1      -3.430   0.835  10.907  0.00  0.00    +0.111 C 
ATOM     29  C   UNL     1      -4.828   0.917  11.530  0.00  0.00    +0.004 C 
ATOM     30  C   UNL     1      -4.898  -0.017  12.740  0.00  0.00    +0.009 C 
ATOM     31  C   UNL     1      -4.655  -1.459  12.288  0.00  0.00    +0.004 C 
ATOM     32  C   UNL     1      -3.262  -1.569  11.672  0.00  0.00    +0.111 C 
ATOM     33  C   UNL     1      -4.759  -2.396  13.493  0.00  0.00    +0.009 C 
ATOM     34  C   UNL     1      -5.873   0.495  10.496  0.00  0.00    +0.009 C 
ENDBRANCH  24  25
ENDBRANCH   4  24
TORSDOF 7
