REMARK  Name = ZINC02234812
REMARK  11 active torsions:
REMARK  status: ('A' for Active; 'I' for Inactive)
REMARK    1  A    between atoms: C_1  and  C_2
REMARK    2  A    between atoms: C_2  and  C_3
REMARK    3  A    between atoms: C_3  and  O_4
REMARK    4  A    between atoms: O_4  and  C_5
REMARK    5  A    between atoms: C_5  and  C_7
REMARK    6  A    between atoms: C_10  and  O_13
REMARK    7  A    between atoms: O_13  and  C_14
REMARK    8  A    between atoms: C_23  and  O_34
REMARK    9  A    between atoms: C_24  and  C_25
REMARK   10  A    between atoms: C_25  and  N_26
REMARK   11  A    between atoms: C_31  and  C_33
REMARK                            x       y       z     vdW  Elec       q    Type
REMARK                         _______ _______ _______ _____ _____    ______ ____
ROOT
ATOM      1  C   UNL     1      -6.377   5.842   2.089  0.00  0.00    +0.210 A 
ATOM      2  C   UNL     1      -5.891   5.876   0.832  0.00  0.00    +0.245 A 
ATOM      3  O   UNL     1      -4.611   6.159   0.557  0.00  0.00    -0.459 OA
ATOM      4  C   UNL     1      -3.708   6.432   1.520  0.00  0.00    +0.143 A 
ATOM      5  C   UNL     1      -4.103   6.420   2.870  0.00  0.00    +0.068 A 
ATOM      6  C   UNL     1      -5.507   6.104   3.185  0.00  0.00    +0.235 A 
ATOM      7  O   UNL     1      -5.910   6.082   4.336  0.00  0.00    -0.283 OA
ATOM      8  C   UNL     1      -3.179   6.708   3.876  0.00  0.00    +0.019 A 
ATOM      9  C   UNL     1      -1.886   6.996   3.545  0.00  0.00    +0.046 A 
ATOM     10  C   UNL     1      -1.485   7.005   2.211  0.00  0.00    +0.122 A 
ATOM     11  C   UNL     1      -2.390   6.722   1.201  0.00  0.00    +0.020 A 
ENDROOT
BRANCH  10  12
ATOM     12  O   UNL     1      -0.196   7.294   1.897  0.00  0.00    -0.506 OA
ATOM     13  H   UNL     1       0.126   7.303   0.845  0.00  0.00    +0.292 HD
ENDBRANCH  10  12
BRANCH   1  14
ATOM     14  O   UNL     1      -7.687   5.548   2.309  0.00  0.00    -0.449 OA
BRANCH  14  18
ATOM     15  C   UNL     1     -10.068   4.736  -0.963  0.00  0.00    +0.059 A 
ATOM     16  C   UNL     1      -9.385   3.700  -0.319  0.00  0.00    +0.018 A 
ATOM     17  C   UNL     1      -8.592   3.975   0.772  0.00  0.00    +0.047 A 
ATOM     18  C   UNL     1      -8.470   5.281   1.234  0.00  0.00    +0.129 A 
ATOM     19  C   UNL     1      -9.152   6.314   0.599  0.00  0.00    +0.047 A 
ATOM     20  C   UNL     1      -9.943   6.048  -0.496  0.00  0.00    +0.018 A 
BRANCH  15  21
ATOM     21  C   UNL     1     -10.918   4.446  -2.133  0.00  0.00    +0.339 C 
ATOM     22  O   UNL     1     -11.025   3.306  -2.538  0.00  0.00    -0.245 OA
BRANCH  21  23
ATOM     23  O   UNL     1     -11.575   5.446  -2.752  0.00  0.00    -0.461 OA
BRANCH  23  24
ATOM     24  C   UNL     1     -12.394   5.087  -3.897  0.00  0.00    +0.232 C 
BRANCH  24  26
ATOM     25  C   UNL     1     -13.919   5.966  -5.670  0.00  0.00    +0.007 C 
ATOM     26  C   UNL     1     -13.057   6.344  -4.464  0.00  0.00    +0.038 C 
ENDBRANCH  24  26
ENDBRANCH  23  24
ENDBRANCH  21  23
ENDBRANCH  15  21
ENDBRANCH  14  18
ENDBRANCH   1  14
BRANCH  11  27
ATOM     27  C   UNL     1      -1.945   6.735  -0.239  0.00  0.00    -0.035 C 
BRANCH  27  28
ATOM     28  N   UNL     1      -1.478   5.396  -0.619  0.00  0.00    +0.384 N 
ATOM     29  C   UNL     1      -0.592   4.836   0.409  0.00  0.00    -0.078 C 
ATOM     30  C   UNL     1      -0.241   3.389   0.052  0.00  0.00    -0.019 C 
ATOM     31  C   UNL     1       0.448   3.359  -1.316  0.00  0.00    -0.003 C 
ATOM     32  C   UNL     1      -0.477   3.992  -2.360  0.00  0.00    -0.016 C 
ATOM     33  C   UNL     1      -0.819   5.421  -1.931  0.00  0.00    -0.071 C 
ATOM     34  C   UNL     1      -1.760   6.050  -2.962  0.00  0.00    -0.013 C 
ATOM     35  H   UNL     1      -2.357   4.739  -0.698  0.00  0.00    -0.081 HD
ENDBRANCH  27  28
ENDBRANCH  11  27
TORSDOF 9
