REMARK  Name = ZINC09092524
REMARK  12 active torsions:
REMARK  status: ('A' for Active; 'I' for Inactive)
REMARK    1  A    between atoms: C_1  and  C_2
REMARK    2  A    between atoms: C_2  and  C_4
REMARK    3  A    between atoms: C_2  and  N_14
REMARK    4  A    between atoms: C_7  and  C_10
REMARK    5  A    between atoms: C_10  and  C_11
REMARK    6  A    between atoms: C_11  and  C_12
REMARK    7  A    between atoms: C_11  and  C_13
REMARK    8  A    between atoms: C_15  and  C_17
REMARK    9  A    between atoms: C_17  and  S_18
REMARK   10  A    between atoms: S_18  and  C_19
REMARK   11  A    between atoms: C_22  and  C_25
REMARK   12  A    between atoms: N_23  and  N_24
REMARK                            x       y       z     vdW  Elec       q    Type
REMARK                         _______ _______ _______ _____ _____    ______ ____
ROOT
ATOM      1  C   UNL     1       2.734  -1.026  -2.480  0.00  0.00    +0.173 C 
ENDROOT
BRANCH   1   3
ATOM      2  N   UNL     1       0.683  -0.429  -1.232  0.00  0.00    -0.308 N 
ATOM      3  C   UNL     1       2.030  -0.454  -1.276  0.00  0.00    +0.224 C 
ATOM      4  O   UNL     1       2.675  -0.017  -0.347  0.00  0.00    -0.275 OA
ATOM      5  H   UNL     1       0.167  -0.778  -1.976  0.00  0.00    +0.149 HD
BRANCH   2   7
ATOM      6  C   UNL     1      -0.124   1.644  -0.216  0.00  0.00    +0.033 C 
ATOM      7  C   UNL     1      -0.001   0.127  -0.062  0.00  0.00    +0.100 C 
BRANCH   7   8
ATOM      8  C   UNL     1      -1.377  -0.479   0.050  0.00  0.00    -0.027 A 
ATOM      9  C   UNL     1      -2.132  -0.695  -1.088  0.00  0.00    +0.006 A 
ATOM     10  C   UNL     1      -3.393  -1.252  -0.985  0.00  0.00    +0.004 A 
ATOM     11  C   UNL     1      -3.899  -1.592   0.256  0.00  0.00    -0.047 A 
ATOM     12  C   UNL     1      -3.144  -1.376   1.393  0.00  0.00    +0.004 A 
ATOM     13  C   UNL     1      -1.881  -0.824   1.290  0.00  0.00    +0.006 A 
BRANCH  11  14
ATOM     14  C   UNL     1      -5.275  -2.197   0.368  0.00  0.00    +0.038 C 
BRANCH  14  15
ATOM     15  C   UNL     1      -5.170  -3.721   0.277  0.00  0.00    -0.013 C 
ATOM     16  C   UNL     1      -6.548  -4.341   0.516  0.00  0.00    +0.007 C 
ATOM     17  C   UNL     1      -4.667  -4.115  -1.113  0.00  0.00    +0.007 C 
ENDBRANCH  14  15
ENDBRANCH  11  14
ENDBRANCH   7   8
ENDBRANCH   2   7
ENDBRANCH   1   3
BRANCH   1  18
ATOM     18  S   UNL     1       4.529  -0.918  -2.238  0.00  0.00    -0.075 S 
BRANCH  18  19
ATOM     19  C   UNL     1       5.200  -1.616  -3.710  0.00  0.00    +0.209 A 
ATOM     20  N   UNL     1       4.518  -2.089  -4.729  0.00  0.00    -0.121 NA
ATOM     21  N   UNL     1       5.321  -2.522  -5.635  0.00  0.00    -0.127 NA
ATOM     22  C   UNL     1       6.565  -2.352  -5.249  0.00  0.00    +0.183 A 
ATOM     23  N   UNL     1       6.525  -1.761  -4.007  0.00  0.00    -0.224 N 
BRANCH  22  24
ATOM     24  C   UNL     1       7.778  -2.721  -6.008  0.00  0.00    +0.035 A 
ATOM     25  C   UNL     1       8.811  -3.421  -5.382  0.00  0.00    +0.013 A 
ATOM     26  C   UNL     1       9.941  -3.763  -6.097  0.00  0.00    +0.001 A 
ATOM     27  C   UNL     1      10.052  -3.412  -7.431  0.00  0.00    +0.001 A 
ATOM     28  C   UNL     1       9.033  -2.718  -8.057  0.00  0.00    +0.016 A 
ATOM     29  C   UNL     1       7.894  -2.374  -7.356  0.00  0.00    +0.029 A 
ATOM     30 BR   UNL     1       6.499  -1.432  -8.216  0.00  0.00    -0.050 Br
ENDBRANCH  22  24
BRANCH  23  31
ATOM     31  N   UNL     1       7.589  -1.398  -3.231  0.00  0.00    -0.295 N 
ATOM     32  H   UNL     1       7.921  -2.179  -2.685  0.00  0.00    +0.163 HD
ATOM     33  H   UNL     1       8.331  -1.009  -3.794  0.00  0.00    +0.163 HD
ENDBRANCH  23  31
ENDBRANCH  18  19
ENDBRANCH   1  18
TORSDOF 9
