REMARK  Name = ZINC58171184
REMARK  6 active torsions:
REMARK  status: ('A' for Active; 'I' for Inactive)
REMARK    1  A    between atoms: C_1  and  C_2
REMARK    2  A    between atoms: C_5  and  C_8
REMARK    3  A    between atoms: C_8  and  C_29
REMARK    4  A    between atoms: N_11  and  C_15
REMARK    5  A    between atoms: C_15  and  C_16
REMARK    6  A    between atoms: C_16  and  C_17
REMARK                            x       y       z     vdW  Elec       q    Type
REMARK                         _______ _______ _______ _____ _____    ______ ____
ROOT
ATOM      1  C   UNL     1       0.059  -4.275  -0.021  0.00  0.00    +0.135 C 
ATOM      2  C   UNL     1      -0.728  -4.825   1.151  0.00  0.00    +0.251 C 
ATOM      3  O   UNL     1      -0.502  -4.654   2.330  0.00  0.00    -0.272 OA
ATOM      4  N   UNL     1      -1.732  -5.543   0.611  0.00  0.00    -0.224 N 
ATOM      5  C   UNL     1      -1.689  -5.524  -0.726  0.00  0.00    +0.310 C 
ATOM      6  O   UNL     1      -2.490  -6.100  -1.437  0.00  0.00    -0.252 OA
ATOM      7  N   UNL     1      -0.660  -4.796  -1.197  0.00  0.00    -0.281 N 
ATOM      8  C   UNL     1       1.499  -4.794   0.002  0.00  0.00    +0.047 C 
ATOM      9  H   UNL     1      -0.435  -4.644  -2.128  0.00  0.00    +0.152 HD
ENDROOT
BRANCH   1  14
ATOM     10  C   UNL     1      -0.018   1.503   0.010  0.00  0.00    +0.044 C 
ATOM     11  C   UNL     1       0.002  -0.004   0.002  0.00  0.00    -0.050 A 
ATOM     12  C   UNL     1       0.006  -0.689  -1.199  0.00  0.00    +0.004 A 
ATOM     13  C   UNL     1       0.025  -2.071  -1.206  0.00  0.00    +0.006 A 
ATOM     14  C   UNL     1       0.040  -2.768  -0.013  0.00  0.00    -0.015 A 
ATOM     15  C   UNL     1       0.037  -2.084   1.188  0.00  0.00    +0.006 A 
ATOM     16  C   UNL     1       0.023  -0.702   1.195  0.00  0.00    +0.004 A 
ENDBRANCH   1  14
BRANCH   4  17
ATOM     17  C   UNL     1      -2.746  -6.258   1.391  0.00  0.00    +0.126 C 
BRANCH  17  18
ATOM     18  C   UNL     1      -3.934  -5.331   1.653  0.00  0.00    +0.094 C 
BRANCH  18  19
ATOM     19  C   UNL     1      -4.977  -6.066   2.456  0.00  0.00    +0.112 A 
ATOM     20  N   UNL     1      -6.118  -5.408   2.787  0.00  0.00    -0.310 N 
ATOM     21  H   UNL     1      -6.241  -4.488   2.505  0.00  0.00    +0.170 HD
ATOM     22  C   UNL     1      -7.085  -6.024   3.507  0.00  0.00    +0.259 A 
ATOM     23  O   UNL     1      -8.113  -5.446   3.809  0.00  0.00    -0.267 OA
ATOM     24  C   UNL     1      -6.846  -7.418   3.908  0.00  0.00    +0.065 A 
ATOM     25  C   UNL     1      -7.777  -8.142   4.650  0.00  0.00    +0.015 A 
ATOM     26  C   UNL     1      -7.502  -9.445   4.999  0.00  0.00    +0.001 A 
ATOM     27  C   UNL     1      -6.306 -10.041   4.617  0.00  0.00    +0.002 A 
ATOM     28  C   UNL     1      -5.373  -9.344   3.884  0.00  0.00    +0.028 A 
ATOM     29  C   UNL     1      -5.629  -8.021   3.518  0.00  0.00    +0.078 A 
ATOM     30  N   UNL     1      -4.740  -7.298   2.791  0.00  0.00    -0.234 NA
ENDBRANCH  18  19
ENDBRANCH  17  18
ENDBRANCH   4  17
TORSDOF 4
