REMARK  Name = ZINC12218483
REMARK  7 active torsions:
REMARK  status: ('A' for Active; 'I' for Inactive)
REMARK    1  A    between atoms: C_4  and  C_7
REMARK    2  A    between atoms: C_7  and  C_8
REMARK    3  A    between atoms: C_7  and  C_14
REMARK    4  A    between atoms: C_14  and  C_16
REMARK    5  A    between atoms: C_14  and  O_33
REMARK    6  A    between atoms: C_26  and  C_27
REMARK    7  A    between atoms: C_26  and  N_59
REMARK                            x       y       z     vdW  Elec       q    Type
REMARK                         _______ _______ _______ _____ _____    ______ ____
ROOT
ATOM      1  C   UNL     1       0.439   5.402   2.573  0.00  0.00    -0.018 A 
ATOM      2  C   UNL     1       0.701   4.384   3.473  0.00  0.00    +0.010 A 
ATOM      3  C   UNL     1       0.246   3.103   3.225  0.00  0.00    +0.046 A 
ATOM      4  C   UNL     1      -0.474   2.841   2.068  0.00  0.00    +0.122 A 
ATOM      5  C   UNL     1      -0.747   3.865   1.181  0.00  0.00    -0.022 A 
ATOM      6  C   UNL     1      -0.287   5.143   1.425  0.00  0.00    +0.011 A 
ATOM      7  C   UNL     1      -1.562   3.572  -0.064  0.00  0.00    -0.039 C 
ATOM      8  C   UNL     1      -0.877   1.303  -0.621  0.00  0.00    -0.036 C 
ATOM      9  C   UNL     1      -0.215   0.941   0.691  0.00  0.00    +0.210 C 
ATOM     10  O   UNL     1      -0.884   1.573   1.789  0.00  0.00    -0.494 OA
ATOM     11  N   UNL     1      -0.734   2.735  -0.963  0.00  0.00    +0.388 N 
ATOM     12  H   UNL     1       0.251   3.004  -0.849  0.00  0.00    -0.081 HD
ENDROOT
BRANCH   1  13
ATOM     13  C   UNL     1       0.946   6.795   2.845  0.00  0.00    +0.156 C 
BRANCH  13  14
ATOM     14  O   UNL     1       0.907   7.050   4.250  0.00  0.00    -0.386 OA
ATOM     15  H   UNL     1       1.446   6.443   4.776  0.00  0.00    +0.210 HD
ENDBRANCH  13  14
BRANCH  13  16
ATOM     16  C   UNL     1       2.386   6.920   2.344  0.00  0.00    +0.082 C 
BRANCH  16  20
ATOM     17  C   UNL     1       2.503   6.154  -1.857  0.00  0.00    +0.000 A 
ATOM     18  C   UNL     1       3.339   5.458  -1.004  0.00  0.00    +0.000 A 
ATOM     19  C   UNL     1       3.301   5.706   0.355  0.00  0.00    +0.004 A 
ATOM     20  C   UNL     1       2.428   6.650   0.862  0.00  0.00    -0.037 A 
ATOM     21  C   UNL     1       1.588   7.342   0.009  0.00  0.00    +0.004 A 
ATOM     22  C   UNL     1       1.630   7.098  -1.351  0.00  0.00    +0.000 A 
ENDBRANCH  16  20
BRANCH  16  23
ATOM     23  C   UNL     1       2.894   8.312   2.615  0.00  0.00    -0.037 A 
ATOM     24  C   UNL     1       2.163   9.408   2.196  0.00  0.00    +0.004 A 
ATOM     25  C   UNL     1       2.626  10.686   2.449  0.00  0.00    +0.000 A 
ATOM     26  C   UNL     1       3.825  10.868   3.112  0.00  0.00    +0.000 A 
ATOM     27  C   UNL     1       4.558   9.772   3.527  0.00  0.00    +0.000 A 
ATOM     28  C   UNL     1       4.093   8.494   3.278  0.00  0.00    +0.004 A 
ENDBRANCH  16  23
ENDBRANCH  13  16
ENDBRANCH   1  13
BRANCH  11  29
ATOM     29  C   UNL     1      -1.129   2.955  -2.363  0.00  0.00    -0.020 C 
BRANCH  29  30
ATOM     30  C   UNL     1      -2.590   2.646  -2.567  0.00  0.00    +0.046 A 
ATOM     31  C   UNL     1      -3.637   3.572  -2.529  0.00  0.00    +0.042 A 
ATOM     32  C   UNL     1      -4.792   2.905  -2.759  0.00  0.00    +0.105 A 
ATOM     33  N   UNL     1      -4.486   1.603  -2.937  0.00  0.00    -0.285 N 
ATOM     34  H   UNL     1      -5.136   0.866  -3.121  0.00  0.00    +0.188 HD
ATOM     35  N   UNL     1      -3.097   1.466  -2.818  0.00  0.00    -0.181 NA
ENDBRANCH  29  30
ENDBRANCH  11  29
TORSDOF 7
