REMARK  Name = ZINC04544606
REMARK  7 active torsions:
REMARK  status: ('A' for Active; 'I' for Inactive)
REMARK    1  A    between atoms: C_1  and  C_2
REMARK    2  A    between atoms: C_4  and  O_25
REMARK    3  A    between atoms: C_6  and  O_24
REMARK    4  A    between atoms: C_8  and  O_23
REMARK    5  A    between atoms: C_10  and  O_13
REMARK    6  A    between atoms: O_13  and  C_14
REMARK    7  A    between atoms: C_17  and  N_20
REMARK                            x       y       z     vdW  Elec       q    Type
REMARK                         _______ _______ _______ _____ _____    ______ ____
ROOT
ATOM      1  C   UNL     1       2.661   3.626   2.486  0.00  0.00    +0.041 C 
ATOM      2  C   UNL     1       1.267   2.996   2.502  0.00  0.00    +0.150 C 
ATOM      3  C   UNL     1       0.458   3.515   1.311  0.00  0.00    +0.174 C 
ATOM      4  C   UNL     1       1.146   3.087   0.011  0.00  0.00    +0.180 C 
ATOM      5  C   UNL     1       1.286   1.562  -0.002  0.00  0.00    +0.214 C 
ATOM      6  C   UNL     1       2.064   1.117   1.240  0.00  0.00    +0.339 C 
ATOM      7  O   UNL     1       1.385   1.574   2.413  0.00  0.00    -0.334 OA
ENDROOT
BRANCH   5   8
ATOM      8  O   UNL     1      -0.011   0.963   0.007  0.00  0.00    -0.383 OA
ATOM      9  H   UNL     1       0.002  -0.004   0.002  0.00  0.00    +0.210 HD
ENDBRANCH   5   8
BRANCH   4  10
ATOM     10  O   UNL     1       0.361   3.504  -1.108  0.00  0.00    -0.386 OA
ATOM     11  H   UNL     1       0.736   3.260  -1.965  0.00  0.00    +0.210 HD
ENDBRANCH   4  10
BRANCH   3  12
ATOM     12  O   UNL     1      -0.862   2.967   1.355  0.00  0.00    -0.387 OA
ATOM     13  H   UNL     1      -1.357   3.198   2.152  0.00  0.00    +0.210 HD
ENDBRANCH   3  12
BRANCH   6  14
ATOM     14  O   UNL     1       2.150  -0.309   1.262  0.00  0.00    -0.461 OA
BRANCH  14  15
ATOM     15  C   UNL     1       2.900  -0.865   2.245  0.00  0.00    +0.124 A 
ATOM     16  C   UNL     1       3.547  -0.043   3.171  0.00  0.00    +0.048 A 
ATOM     17  C   UNL     1       4.298  -0.590   4.166  0.00  0.00    +0.032 A 
ATOM     18  C   UNL     1       4.431  -2.000   4.253  0.00  0.00    +0.074 A 
ATOM     19  C   UNL     1       3.773  -2.824   3.304  0.00  0.00    +0.032 A 
ATOM     20  C   UNL     1       3.023  -2.254   2.321  0.00  0.00    +0.048 A 
BRANCH  18  21
ATOM     21  N   UNL     1       5.164  -2.543   5.214  0.00  0.00    -0.197 NA
ATOM     22  C   UNL     1       5.741  -1.812   6.049  0.00  0.00    +0.041 C 
ATOM     23  S   UNL     1       6.458  -0.905   7.085  0.00  0.00    +0.021 S 
ENDBRANCH  18  21
ENDBRANCH  14  15
ENDBRANCH   6  14
TORSDOF 6
