REMARK  Name = ZINC54641689
REMARK  8 active torsions:
REMARK  status: ('A' for Active; 'I' for Inactive)
REMARK    1  A    between atoms: C_1  and  C_2
REMARK    2  A    between atoms: C_5  and  C_8
REMARK    3  A    between atoms: C_8  and  O_9
REMARK    4  A    between atoms: O_9  and  C_10
REMARK    5  A    between atoms: C_13  and  C_16
REMARK    6  A    between atoms: C_29  and  S_31
REMARK    7  A    between atoms: S_31  and  C_32
REMARK    8  A    between atoms: C_32  and  C_33
REMARK                            x       y       z     vdW  Elec       q    Type
REMARK                         _______ _______ _______ _____ _____    ______ ____
ROOT
ATOM      1  C   UNL     1       2.223 -10.308  -0.067  0.00  0.00    +0.175 C 
ATOM      2  C   UNL     1       2.995 -10.695  -1.308  0.00  0.00    +0.041 C 
ATOM      3  C   UNL     1       4.298 -11.048  -1.262  0.00  0.00    +0.020 C 
ATOM      4  C   UNL     1       5.048 -11.412  -2.522  0.00  0.00    +0.052 C 
ATOM      5  C   UNL     1       4.088 -12.056  -3.524  0.00  0.00    +0.014 C 
ATOM      6  C   UNL     1       2.962 -11.060  -3.821  0.00  0.00    +0.080 C 
ATOM      7  C   UNL     1       2.296 -10.676  -2.529  0.00  0.00    +0.163 C 
ATOM      8  O   UNL     1       1.128 -10.341  -2.539  0.00  0.00    -0.292 OA
ATOM      9  N   UNL     1       4.994 -11.095  -0.078  0.00  0.00    -0.287 N 
ATOM     10  C   UNL     1       4.272 -11.060   1.104  0.00  0.00    +0.219 A 
ATOM     11  N   UNL     1       2.969 -10.696   1.124  0.00  0.00    -0.220 N 
ATOM     12  N   UNL     1       2.556 -10.776   2.453  0.00  0.00    -0.141 NA
ATOM     13  C   UNL     1       3.601 -11.167   3.151  0.00  0.00    +0.211 A 
ATOM     14  N   UNL     1       4.637 -11.337   2.326  0.00  0.00    -0.187 NA
ATOM     15  H   UNL     1       5.962 -11.152  -0.070  0.00  0.00    +0.155 HD
ENDROOT
BRANCH   1  19
ATOM     16  C   UNL     1       1.608  -6.079  -0.040  0.00  0.00    +0.121 A 
ATOM     17  C   UNL     1       0.520  -6.939  -0.044  0.00  0.00    +0.046 A 
ATOM     18  C   UNL     1       0.721  -8.306  -0.053  0.00  0.00    +0.009 A 
ATOM     19  C   UNL     1       2.006  -8.817  -0.058  0.00  0.00    -0.018 A 
ATOM     20  C   UNL     1       3.092  -7.961  -0.053  0.00  0.00    +0.009 A 
ATOM     21  C   UNL     1       2.896  -6.594  -0.050  0.00  0.00    +0.046 A 
BRANCH  16  22
ATOM     22  O   UNL     1       1.413  -4.734  -0.032  0.00  0.00    -0.487 OA
BRANCH  22  23
ATOM     23  C   UNL     1       0.059  -4.275  -0.021  0.00  0.00    +0.264 C 
BRANCH  23  28
ATOM     24  C   UNL     1      -0.018   1.503   0.010  0.00  0.00    +0.044 C 
ATOM     25  C   UNL     1       0.002  -0.004   0.002  0.00  0.00    -0.050 A 
ATOM     26  C   UNL     1       0.006  -0.689  -1.199  0.00  0.00    +0.004 A 
ATOM     27  C   UNL     1       0.025  -2.071  -1.206  0.00  0.00    +0.007 A 
ATOM     28  C   UNL     1       0.040  -2.768  -0.013  0.00  0.00    -0.010 A 
ATOM     29  C   UNL     1       0.037  -2.084   1.188  0.00  0.00    +0.007 A 
ATOM     30  C   UNL     1       0.023  -0.702   1.195  0.00  0.00    +0.004 A 
ENDBRANCH  23  28
ENDBRANCH  22  23
ENDBRANCH  16  22
ENDBRANCH   1  19
BRANCH  13  31
ATOM     31  S   UNL     1       3.629 -11.427   4.893  0.00  0.00    -0.080 S 
BRANCH  31  32
ATOM     32  C   UNL     1       5.332 -11.949   5.232  0.00  0.00    +0.115 C 
BRANCH  32  33
ATOM     33  C   UNL     1       5.495 -12.207   6.708  0.00  0.00    -0.002 A 
ATOM     34  C   UNL     1       5.881 -11.182   7.551  0.00  0.00    +0.007 A 
ATOM     35  C   UNL     1       6.029 -11.419   8.905  0.00  0.00    +0.000 A 
ATOM     36  C   UNL     1       5.792 -12.681   9.417  0.00  0.00    +0.003 A 
ATOM     37  C   UNL     1       5.406 -13.707   8.576  0.00  0.00    +0.038 A 
ATOM     38  C   UNL     1       5.251 -13.470   7.221  0.00  0.00    +0.127 A 
ATOM     39  F   UNL     1       4.869 -14.471   6.398  0.00  0.00    -0.205 F 
ENDBRANCH  32  33
ENDBRANCH  31  32
ENDBRANCH  13  31
TORSDOF 7
