REMARK  Name = ZINC03841081
REMARK  14 active torsions:
REMARK  status: ('A' for Active; 'I' for Inactive)
REMARK    1  A    between atoms: C_1  and  C_2
REMARK    2  A    between atoms: C_5  and  O_40
REMARK    3  A    between atoms: C_7  and  C_37
REMARK    4  A    between atoms: C_7  and  C_38
REMARK    5  A    between atoms: C_17  and  C_19
REMARK    6  A    between atoms: C_19  and  C_20
REMARK    7  A    between atoms: C_20  and  C_21
REMARK    8  A    between atoms: C_20  and  C_22
REMARK    9  A    between atoms: C_20  and  C_23
REMARK   10  A    between atoms: C_24  and  C_26
REMARK   11  A    between atoms: C_26  and  C_27
REMARK   12  A    between atoms: N_29  and  C_30
REMARK   13  A    between atoms: C_30  and  C_31
REMARK   14  A    between atoms: C_38  and  O_39
REMARK                            x       y       z     vdW  Elec       q    Type
REMARK                         _______ _______ _______ _____ _____    ______ ____
ROOT
ATOM      1  C   UNL     1      -1.625  -2.027  -2.229  0.00  0.00    +0.012 C 
ATOM      2  C   UNL     1      -0.939  -2.640  -1.007  0.00  0.00    -0.019 C 
ATOM      3  C   UNL     1       0.535  -2.221  -0.983  0.00  0.00    +0.010 C 
ATOM      4  C   UNL     1       0.654  -0.705  -0.843  0.00  0.00    +0.032 C 
ATOM      5  C   UNL     1      -0.001  -0.279   0.474  0.00  0.00    +0.123 C 
ATOM      6  C   UNL     1      -1.480  -0.653   0.431  0.00  0.00    +0.021 C 
ATOM      7  C   UNL     1      -1.642  -2.168   0.267  0.00  0.00    +0.011 C 
ATOM      8  C   UNL     1      -3.152  -2.453   0.140  0.00  0.00    +0.049 C 
ATOM      9  C   UNL     1      -3.344  -3.838  -0.368  0.00  0.00    +0.015 A 
ATOM     10  C   UNL     1      -2.414  -4.651  -0.932  0.00  0.00    +0.058 A 
ATOM     11  N   UNL     1      -2.843  -5.854  -1.309  0.00  0.00    -0.229 NA
ATOM     12  C   UNL     1      -4.092  -6.237  -1.143  0.00  0.00    +0.165 A 
ATOM     13  S   UNL     1      -4.806  -4.839  -0.396  0.00  0.00    -0.057 S 
ATOM     14  N   UNL     1      -4.687  -7.447  -1.480  0.00  0.00    -0.265 N 
ATOM     15  C   UNL     1      -5.995  -7.649  -1.226  0.00  0.00    +0.219 C 
ATOM     16  O   UNL     1      -6.654  -6.774  -0.704  0.00  0.00    -0.275 OA
ATOM     17  C   UNL     1      -0.981  -4.171  -1.099  0.00  0.00    +0.054 C 
ATOM     18  C   UNL     1      -2.153  -0.210   1.731  0.00  0.00    +0.016 C 
ATOM     19  H   UNL     1      -4.160  -8.147  -1.897  0.00  0.00    +0.157 HD
ENDROOT
BRANCH   5  20
ATOM     20  O   UNL     1       0.131   1.135   0.639  0.00  0.00    -0.391 OA
ATOM     21  H   UNL     1       1.047   1.444   0.664  0.00  0.00    +0.210 HD
ENDBRANCH   5  20
BRANCH  15  22
ATOM     22  C   UNL     1      -6.640  -8.962  -1.591  0.00  0.00    +0.102 C 
BRANCH  22  23
ATOM     23  C   UNL     1      -8.118  -8.930  -1.199  0.00  0.00    -0.029 C 
ATOM     24  C   UNL     1      -8.819  -7.793  -1.945  0.00  0.00    +0.011 C 
ATOM     25  C   UNL     1      -8.773 -10.262  -1.569  0.00  0.00    +0.011 C 
ATOM     26  C   UNL     1      -8.242  -8.703   0.309  0.00  0.00    +0.011 C 
ENDBRANCH  22  23
ENDBRANCH  15  22
BRANCH  17  27
ATOM     27  C   UNL     1      -0.449  -4.615  -2.463  0.00  0.00    +0.106 C 
BRANCH  27  28
ATOM     28  C   UNL     1      -0.303  -6.115  -2.482  0.00  0.00    +0.214 C 
ATOM     29  O   UNL     1      -0.596  -6.765  -1.500  0.00  0.00    -0.276 OA
ATOM     30  N   UNL     1       0.152  -6.734  -3.589  0.00  0.00    -0.311 N 
ATOM     31  H   UNL     1       0.385  -6.215  -4.374  0.00  0.00    +0.149 HD
BRANCH  30  32
ATOM     32  C   UNL     1       0.294  -8.193  -3.607  0.00  0.00    +0.139 C 
BRANCH  32  33
ATOM     33  C   UNL     1       0.817  -8.630  -4.951  0.00  0.00    -0.030 A 
ATOM     34  C   UNL     1      -0.066  -8.940  -5.968  0.00  0.00    +0.005 A 
ATOM     35  C   UNL     1       0.414  -9.337  -7.202  0.00  0.00    +0.000 A 
ATOM     36  C   UNL     1       1.777  -9.433  -7.416  0.00  0.00    +0.000 A 
ATOM     37  C   UNL     1       2.659  -9.127  -6.397  0.00  0.00    +0.000 A 
ATOM     38  C   UNL     1       2.179  -8.726  -5.164  0.00  0.00    +0.005 A 
ENDBRANCH  32  33
ENDBRANCH  30  32
ENDBRANCH  27  28
ENDBRANCH  17  27
BRANCH   6  39
ATOM     39  C   UNL     1      -2.148   0.057  -0.748  0.00  0.00    +0.165 C 
BRANCH  39  40
ATOM     40  O   UNL     1      -2.158   1.466  -0.511  0.00  0.00    -0.394 OA
ATOM     41  H   UNL     1      -2.568   1.982  -1.220  0.00  0.00    +0.209 HD
ENDBRANCH  39  40
ENDBRANCH   6  39
TORSDOF 9
