REMARK  Name = ZINC26961092
REMARK  11 active torsions:
REMARK  status: ('A' for Active; 'I' for Inactive)
REMARK    1  A    between atoms: C_1  and  C_2
REMARK    2  A    between atoms: C_2  and  C_3
REMARK    3  A    between atoms: C_3  and  C_4
REMARK    4  A    between atoms: C_4  and  C_5
REMARK    5  A    between atoms: C_14  and  C_16
REMARK    6  A    between atoms: C_14  and  C_17
REMARK    7  A    between atoms: C_18  and  S_22
REMARK    8  A    between atoms: N_20  and  N_21
REMARK    9  A    between atoms: S_22  and  C_23
REMARK   10  A    between atoms: C_23  and  C_24
REMARK   11  A    between atoms: N_26  and  C_27
REMARK                            x       y       z     vdW  Elec       q    Type
REMARK                         _______ _______ _______ _____ _____    ______ ____
ROOT
ATOM      1  C   UNL     1      -1.193   2.049   0.047  0.00  0.00    +0.114 C 
ATOM      2  N   UNL     1      -1.309   3.217   0.638  0.00  0.00    -0.228 NA
ATOM      3  C   UNL     1      -0.195   3.780   1.151  0.00  0.00    +0.109 A 
ATOM      4  C   UNL     1       1.094   3.339   0.929  0.00  0.00    +0.021 A 
ATOM      5  C   UNL     1       2.130   4.031   1.555  0.00  0.00    -0.024 A 
ATOM      6  C   UNL     1       1.791   5.099   2.334  0.00  0.00    +0.021 A 
ATOM      7  S   UNL     1       0.023   5.169   2.224  0.00  0.00    -0.071 S 
ATOM      8  C   UNL     1       2.729   5.980   3.093  0.00  0.00    +0.203 C 
ATOM      9  O   UNL     1       4.013   5.335   3.122  0.00  0.00    -0.368 OA
ATOM     10  C   UNL     1       4.443   4.864   1.842  0.00  0.00    +0.068 C 
ATOM     11  C   UNL     1       3.604   3.659   1.410  0.00  0.00    +0.071 C 
ATOM     12  C   UNL     1       5.915   4.454   1.922  0.00  0.00    +0.041 C 
ATOM     13  C   UNL     1       4.288   5.985   0.812  0.00  0.00    +0.041 C 
ATOM     14  C   UNL     1       1.280   2.129   0.014  0.00  0.00    +0.182 C 
ATOM     15  N   UNL     1       0.008   1.389   0.034  0.00  0.00    -0.239 N 
ENDROOT
BRANCH  15  16
ATOM     16  N   UNL     1       0.025   0.023   0.033  0.00  0.00    -0.252 NA
ATOM     17  H   UNL     1       1.067  -0.330   0.022  0.00  0.00    +0.141 HD
ATOM     18  H   UNL     1      -0.479  -0.350   0.937  0.00  0.00    +0.141 HD
ENDBRANCH  15  16
BRANCH   1  19
ATOM     19  C   UNL     1      -2.392   1.425  -0.621  0.00  0.00    +0.073 C 
BRANCH  19  20
ATOM     20  C   UNL     1      -3.600   2.352  -0.468  0.00  0.00    +0.007 C 
BRANCH  20  22
ATOM     21  C   UNL     1      -6.025   2.645  -0.993  0.00  0.00    +0.004 C 
ATOM     22  C   UNL     1      -4.817   1.718  -1.145  0.00  0.00    -0.003 C 
ENDBRANCH  20  22
ENDBRANCH  19  20
ENDBRANCH   1  19
BRANCH  14  23
ATOM     23  S   UNL     1       1.653   2.678  -1.674  0.00  0.00    -0.123 S 
BRANCH  23  24
ATOM     24  C   UNL     1       2.968   1.554  -2.220  0.00  0.00    +0.167 C 
BRANCH  24  25
ATOM     25  C   UNL     1       3.377   1.906  -3.627  0.00  0.00    +0.227 C 
ATOM     26  O   UNL     1       2.835   2.824  -4.205  0.00  0.00    -0.275 OA
ATOM     27  N   UNL     1       4.345   1.199  -4.244  0.00  0.00    -0.284 N 
ATOM     28  H   UNL     1       4.888   0.415  -3.696  0.00  0.00    +0.155 HD
BRANCH  27  29
ATOM     29  C   UNL     1       4.660   1.464  -5.582  0.00  0.00    +0.052 A 
ATOM     30  C   UNL     1       4.589   2.762  -6.070  0.00  0.00    +0.025 A 
ATOM     31  C   UNL     1       4.906   3.021  -7.389  0.00  0.00    +0.002 A 
ATOM     32  C   UNL     1       5.283   1.988  -8.227  0.00  0.00    +0.002 A 
ATOM     33  C   UNL     1       5.349   0.693  -7.747  0.00  0.00    +0.022 A 
ATOM     34  C   UNL     1       5.039   0.427  -6.426  0.00  0.00    +0.062 A 
ATOM     35 CL   UNL     1       5.122  -1.198  -5.824  0.00  0.00    -0.082 Cl
ENDBRANCH  27  29
ENDBRANCH  24  25
ENDBRANCH  23  24
ENDBRANCH  14  23
TORSDOF 8
