REMARK  Name = ZINC24858543
REMARK  9 active torsions:
REMARK  status: ('A' for Active; 'I' for Inactive)
REMARK    1  A    between atoms: C_1  and  C_2
REMARK    2  A    between atoms: C_2  and  C_3
REMARK    3  A    between atoms: C_3  and  C_30
REMARK    4  A    between atoms: N_6  and  N_10
REMARK    5  A    between atoms: C_11  and  C_13
REMARK    6  A    between atoms: C_13  and  N_14
REMARK    7  A    between atoms: C_17  and  C_20
REMARK    8  A    between atoms: N_22  and  C_23
REMARK    9  A    between atoms: C_23  and  C_24
REMARK                            x       y       z     vdW  Elec       q    Type
REMARK                         _______ _______ _______ _____ _____    ______ ____
ROOT
ATOM      1  N   UNL     1       6.121   4.861  -3.064  0.00  0.00    -0.225 N 
ATOM      2  C   UNL     1       5.012   4.215  -2.653  0.00  0.00    +0.213 C 
ATOM      3  O   UNL     1       3.961   4.385  -3.233  0.00  0.00    -0.276 OA
ATOM      4  H   UNL     1       7.074   4.707  -2.538  0.00  0.00    +0.173 HD
ENDROOT
BRANCH   1   8
ATOM      5  C   UNL     1       5.993   7.584  -5.493  0.00  0.00    +0.139 C 
ATOM      6  C   UNL     1       6.076   7.072  -4.069  0.00  0.00    +0.268 C 
ATOM      7  O   UNL     1       6.143   7.734  -3.055  0.00  0.00    -0.271 OA
ATOM      8  N   UNL     1       6.060   5.728  -4.163  0.00  0.00    -0.137 N 
ATOM      9  C   UNL     1       5.983   5.324  -5.436  0.00  0.00    +0.327 C 
ATOM     10  O   UNL     1       5.958   4.156  -5.774  0.00  0.00    -0.251 OA
ATOM     11  N   UNL     1       5.933   6.354  -6.300  0.00  0.00    -0.280 N 
ATOM     12  H   UNL     1       5.863   6.418  -7.396  0.00  0.00    +0.152 HD
BRANCH   5  13
ATOM     13  C   UNL     1       7.218   8.391  -5.839  0.00  0.00    -0.015 A 
ATOM     14  C   UNL     1       7.229   9.757  -5.627  0.00  0.00    +0.006 A 
ATOM     15  C   UNL     1       8.354  10.496  -5.940  0.00  0.00    +0.000 A 
ATOM     16  C   UNL     1       9.465   9.870  -6.474  0.00  0.00    +0.000 A 
ATOM     17  C   UNL     1       9.453   8.505  -6.691  0.00  0.00    +0.000 A 
ATOM     18  C   UNL     1       8.329   7.765  -6.373  0.00  0.00    +0.006 A 
ENDBRANCH   5  13
BRANCH   5  20
ATOM     19  C   UNL     1       3.497   7.563  -5.385  0.00  0.00    +0.007 C 
ATOM     20  C   UNL     1       4.726   8.420  -5.691  0.00  0.00    +0.037 C 
ENDBRANCH   5  20
ENDBRANCH   1   8
BRANCH   2  21
ATOM     21  C   UNL     1       5.078   3.282  -1.471  0.00  0.00    +0.020 C 
BRANCH  21  22
ATOM     22  N   UNL     1       3.789   2.595  -1.317  0.00  0.00    +0.385 N 
ATOM     23  C   UNL     1       3.534   1.695  -2.449  0.00  0.00    -0.077 C 
ATOM     24  C   UNL     1       2.125   1.109  -2.330  0.00  0.00    -0.006 C 
ATOM     25  C   UNL     1       2.006   0.344  -1.009  0.00  0.00    +0.071 C 
ATOM     26  C   UNL     1       2.324   1.292   0.151  0.00  0.00    -0.006 C 
ATOM     27  C   UNL     1       3.727   1.872  -0.040  0.00  0.00    -0.077 C 
ATOM     28  H   UNL     1       2.996   3.357  -1.310  0.00  0.00    -0.081 HD
BRANCH  25  29
ATOM     29  C   UNL     1       0.603  -0.185  -0.858  0.00  0.00    +0.216 C 
ATOM     30  O   UNL     1      -0.222   0.029  -1.721  0.00  0.00    -0.276 OA
ATOM     31  N   UNL     1       0.263  -0.890   0.239  0.00  0.00    -0.311 N 
ATOM     32  H   UNL     1       1.011  -1.084   1.022  0.00  0.00    +0.149 HD
BRANCH  31  33
ATOM     33  C   UNL     1      -1.102  -1.399   0.389  0.00  0.00    +0.139 C 
BRANCH  33  34
ATOM     34  C   UNL     1      -1.219  -2.147   1.692  0.00  0.00    -0.030 A 
ATOM     35  C   UNL     1      -0.962  -3.505   1.735  0.00  0.00    +0.005 A 
ATOM     36  C   UNL     1      -1.064  -4.190   2.931  0.00  0.00    +0.000 A 
ATOM     37  C   UNL     1      -1.435  -3.520   4.082  0.00  0.00    +0.000 A 
ATOM     38  C   UNL     1      -1.698  -2.163   4.038  0.00  0.00    +0.000 A 
ATOM     39  C   UNL     1      -1.590  -1.477   2.843  0.00  0.00    +0.005 A 
ENDBRANCH  33  34
ENDBRANCH  31  33
ENDBRANCH  25  29
ENDBRANCH  21  22
ENDBRANCH   2  21
TORSDOF 8
