REMARK  Name = ZINC35885680
REMARK  6 active torsions:
REMARK  status: ('A' for Active; 'I' for Inactive)
REMARK    1  A    between atoms: C_1  and  C_2
REMARK    2  A    between atoms: C_5  and  C_8
REMARK    3  A    between atoms: C_13  and  C_15
REMARK    4  A    between atoms: C_15  and  N_16
REMARK    5  A    between atoms: C_26  and  C_28
REMARK    6  A    between atoms: C_31  and  C_34
REMARK                            x       y       z     vdW  Elec       q    Type
REMARK                         _______ _______ _______ _____ _____    ______ ____
ROOT
ATOM      1  C   UNL     1       0.086  -4.328  -0.041  0.00  0.00    +0.039 C 
ATOM      2  C   UNL     1       1.304  -4.848   0.754  0.00  0.00    +0.116 C 
ATOM      3  N   UNL     1       0.786  -5.079   2.123  0.00  0.00    -0.297 N 
ATOM      4  C   UNL     1      -0.562  -5.655   1.912  0.00  0.00    +0.110 C 
ATOM      5  C   UNL     1      -1.145  -4.860   0.720  0.00  0.00    -0.001 C 
ATOM      6  C   UNL     1       1.402  -4.824   3.294  0.00  0.00    +0.247 C 
ATOM      7  O   UNL     1       2.544  -4.407   3.302  0.00  0.00    -0.270 OA
ENDROOT
BRANCH   1  12
ATOM      8  C   UNL     1       0.054   1.450  -0.118  0.00  0.00    +0.044 C 
ATOM      9  C   UNL     1       0.062  -0.057  -0.098  0.00  0.00    -0.050 A 
ATOM     10  C   UNL     1       0.069  -0.764  -1.286  0.00  0.00    +0.003 A 
ATOM     11  C   UNL     1       0.077  -2.146  -1.267  0.00  0.00    +0.004 A 
ATOM     12  C   UNL     1       0.079  -2.821  -0.061  0.00  0.00    -0.043 A 
ATOM     13  C   UNL     1       0.073  -2.114   1.127  0.00  0.00    +0.004 A 
ATOM     14  C   UNL     1       0.070  -0.732   1.108  0.00  0.00    +0.003 A 
ENDBRANCH   1  12
BRANCH   6  15
ATOM     15  C   UNL     1       0.689  -5.051   4.569  0.00  0.00    +0.037 A 
ATOM     16  C   UNL     1      -0.218  -6.105   4.686  0.00  0.00    +0.013 A 
ATOM     17  C   UNL     1      -0.880  -6.311   5.879  0.00  0.00    +0.004 A 
ATOM     18  C   UNL     1      -0.646  -5.476   6.957  0.00  0.00    -0.050 A 
ATOM     19  C   UNL     1       0.252  -4.429   6.847  0.00  0.00    +0.004 A 
ATOM     20  C   UNL     1       0.925  -4.216   5.662  0.00  0.00    +0.013 A 
ATOM     21  C   UNL     1      -1.373  -5.708   8.257  0.00  0.00    +0.044 C 
ENDBRANCH   6  15
BRANCH   5  22
ATOM     22  C   UNL     1      -1.971  -5.780  -0.182  0.00  0.00    -0.073 C 
BRANCH  22  23
ATOM     23  N   UNL     1      -3.199  -6.179   0.519  0.00  0.00    +0.383 N 
ATOM     24  C   UNL     1      -3.941  -7.148  -0.302  0.00  0.00    -0.074 C 
ATOM     25  C   UNL     1      -5.037  -7.779   0.558  0.00  0.00    +0.017 C 
ATOM     26  C   UNL     1      -5.840  -6.697   1.235  0.00  0.00    -0.048 A 
ATOM     27  C   UNL     1      -7.074  -7.024   1.774  0.00  0.00    +0.004 A 
ATOM     28  C   UNL     1      -7.836  -6.060   2.404  0.00  0.00    +0.000 A 
ATOM     29  C   UNL     1      -7.366  -4.764   2.498  0.00  0.00    +0.000 A 
ATOM     30  C   UNL     1      -6.137  -4.437   1.960  0.00  0.00    +0.002 A 
ATOM     31  C   UNL     1      -5.371  -5.404   1.325  0.00  0.00    -0.061 A 
ATOM     32  C   UNL     1      -4.041  -5.001   0.745  0.00  0.00    -0.043 C 
ATOM     33  H   UNL     1      -2.961  -6.599   1.405  0.00  0.00    -0.081 HD
ENDBRANCH  22  23
ENDBRANCH   5  22
TORSDOF 4
