REMARK  Name = ZINC22064648
REMARK  8 active torsions:
REMARK  status: ('A' for Active; 'I' for Inactive)
REMARK    1  A    between atoms: C_1  and  C_2
REMARK    2  A    between atoms: C_7  and  C_8
REMARK    3  A    between atoms: C_13  and  C_16
REMARK    4  A    between atoms: C_19  and  N_22
REMARK    5  A    between atoms: N_22  and  S_23
REMARK    6  A    between atoms: S_23  and  C_26
REMARK    7  A    between atoms: C_28  and  C_32
REMARK    8  A    between atoms: C_28  and  C_33
REMARK                            x       y       z     vdW  Elec       q    Type
REMARK                         _______ _______ _______ _____ _____    ______ ____
ROOT
ATOM      1  C   UNL     1       1.975  -4.188   0.198  0.00  0.00    +0.266 C 
ATOM      2  O   UNL     1       0.845  -4.637   0.149  0.00  0.00    -0.268 OA
ATOM      3  N   UNL     1       2.171  -2.854   0.197  0.00  0.00    -0.259 N 
ATOM      4  C   UNL     1       1.083  -1.993   0.142  0.00  0.00    +0.165 A 
ATOM      5  N   UNL     1       1.062  -0.673   0.127  0.00  0.00    -0.225 NA
ATOM      6  C   UNL     1      -0.080  -0.004   0.075  0.00  0.00    +0.080 A 
ATOM      7  C   UNL     1      -1.259  -0.693   0.026  0.00  0.00    +0.076 A 
ATOM      8  S   UNL     1      -0.661  -2.378   0.065  0.00  0.00    -0.060 S 
ATOM      9  H   UNL     1       3.192  -2.448   0.241  0.00  0.00    +0.157 HD
ENDROOT
BRANCH   1  16
ATOM     10  C   UNL     1       1.817  -7.309   0.224  0.00  0.00    +0.047 C 
ATOM     11  C   UNL     1       3.063  -6.464   0.268  0.00  0.00    -0.010 A 
ATOM     12  C   UNL     1       4.384  -6.924   0.325  0.00  0.00    +0.042 A 
ATOM     13  C   UNL     1       5.221  -5.808   0.358  0.00  0.00    +0.028 A 
ATOM     14  N   UNL     1       4.453  -4.719   0.314  0.00  0.00    -0.354 N 
ATOM     15  H   UNL     1       4.914  -3.720   0.327  0.00  0.00    +0.166 HD
ATOM     16  C   UNL     1       3.125  -5.098   0.256  0.00  0.00    +0.106 A 
ATOM     17  C   UNL     1       6.723  -5.913   0.434  0.00  0.00    +0.060 C 
ATOM     18  C   UNL     1       7.106  -7.296   0.969  0.00  0.00    -0.023 C 
ATOM     19  C   UNL     1       6.427  -8.400   0.152  0.00  0.00    +0.086 C 
ATOM     20  C   UNL     1       4.923  -8.293   0.356  0.00  0.00    +0.166 C 
ATOM     21  O   UNL     1       4.219  -9.265   0.531  0.00  0.00    -0.292 OA
ATOM     22  C   UNL     1       6.668  -7.410   2.430  0.00  0.00    +0.011 C 
ATOM     23  C   UNL     1       8.624  -7.467   0.882  0.00  0.00    +0.011 C 
ENDBRANCH   1  16
BRANCH   6  24
ATOM     24  C   UNL     1      -0.078   1.479   0.064  0.00  0.00    +0.001 A 
ATOM     25  C   UNL     1      -1.283   2.178  -0.002  0.00  0.00    +0.012 A 
ATOM     26  C   UNL     1      -1.279   3.557  -0.008  0.00  0.00    +0.025 A 
ATOM     27  C   UNL     1      -0.076   4.250   0.042  0.00  0.00    +0.048 A 
ATOM     28  C   UNL     1       1.127   3.555   0.103  0.00  0.00    +0.025 A 
ATOM     29  C   UNL     1       1.128   2.176   0.114  0.00  0.00    +0.012 A 
BRANCH  27  30
ATOM     30  N   UNL     1      -0.074   5.647   0.030  0.00  0.00    -0.221 N 
ATOM     31  H   UNL     1       0.553   6.202   0.743  0.00  0.00    +0.173 HD
BRANCH  30  32
ATOM     32  S   UNL     1      -1.018   6.467  -1.056  0.00  0.00    +0.040 S 
ATOM     33  O   UNL     1      -2.330   5.964  -0.848  0.00  0.00    -0.155 OA
ATOM     34  O   UNL     1      -0.723   7.838  -0.830  0.00  0.00    -0.155 OA
ATOM     35  C   UNL     1      -0.404   5.956  -2.685  0.00  0.00    +0.218 C 
ENDBRANCH  30  32
ENDBRANCH  27  30
ENDBRANCH   6  24
TORSDOF 4
