REMARK  Name = ZINC21120162
REMARK  10 active torsions:
REMARK  status: ('A' for Active; 'I' for Inactive)
REMARK    1  A    between atoms: C_1  and  C_2
REMARK    2  A    between atoms: C_2  and  O_3
REMARK    3  A    between atoms: O_3  and  C_4
REMARK    4  A    between atoms: C_7  and  C_10
REMARK    5  A    between atoms: C_13  and  S_22
REMARK    6  A    between atoms: N_14  and  C_15
REMARK    7  A    between atoms: S_22  and  C_23
REMARK    8  A    between atoms: C_23  and  C_24
REMARK    9  A    between atoms: N_29  and  C_30
REMARK   10  A    between atoms: C_30  and  C_31
REMARK                            x       y       z     vdW  Elec       q    Type
REMARK                         _______ _______ _______ _____ _____    ______ ____
ROOT
ATOM      1  C   UNL     1       1.242  -0.437  -0.012  0.00  0.00    +0.169 A 
ATOM      2  N   UNL     1       0.002  -0.004   0.002  0.00  0.00    -0.128 NA
ATOM      3  N   UNL     1      -0.015   1.281   0.009  0.00  0.00    -0.122 NA
ATOM      4  C   UNL     1       1.212   1.750  -0.000  0.00  0.00    +0.197 A 
ATOM      5  N   UNL     1       2.057   0.674  -0.014  0.00  0.00    -0.267 N 
ENDROOT
BRANCH   5   6
ATOM      6  C   UNL     1       3.459   0.696  -0.028  0.00  0.00    +0.086 A 
ATOM      7  C   UNL     1       4.143   0.714  -1.235  0.00  0.00    +0.029 A 
ATOM      8  C   UNL     1       5.524   0.737  -1.246  0.00  0.00    +0.002 A 
ATOM      9  C   UNL     1       6.227   0.741  -0.055  0.00  0.00    +0.003 A 
ATOM     10  C   UNL     1       5.551   0.724   1.151  0.00  0.00    +0.040 A 
ATOM     11  C   UNL     1       4.168   0.707   1.169  0.00  0.00    +0.147 A 
ATOM     12  F   UNL     1       3.506   0.695   2.346  0.00  0.00    -0.203 F 
ENDBRANCH   5   6
BRANCH   1  16
ATOM     13  C   UNL     1       2.501  -4.495  -0.046  0.00  0.00    +0.121 A 
ATOM     14  C   UNL     1       1.182  -4.176  -0.343  0.00  0.00    +0.046 A 
ATOM     15  C   UNL     1       0.769  -2.861  -0.333  0.00  0.00    +0.015 A 
ATOM     16  C   UNL     1       1.680  -1.848  -0.024  0.00  0.00    +0.020 A 
ATOM     17  C   UNL     1       3.006  -2.172   0.268  0.00  0.00    +0.015 A 
ATOM     18  C   UNL     1       3.409  -3.490   0.262  0.00  0.00    +0.046 A 
BRANCH  13  19
ATOM     19  O   UNL     1       2.903  -5.792  -0.057  0.00  0.00    -0.492 OA
BRANCH  19  21
ATOM     20  C   UNL     1       4.537  -7.555   0.196  0.00  0.00    +0.048 C 
ATOM     21  C   UNL     1       4.273  -6.049   0.258  0.00  0.00    +0.225 C 
ENDBRANCH  19  21
ENDBRANCH  13  19
ENDBRANCH   1  16
BRANCH   4  22
ATOM     22  S   UNL     1       1.682   3.448   0.004  0.00  0.00    -0.076 S 
BRANCH  22  23
ATOM     23  C   UNL     1       0.048   4.226   0.024  0.00  0.00    +0.173 C 
BRANCH  23  24
ATOM     24  C   UNL     1       0.205   5.725   0.030  0.00  0.00    +0.231 C 
ATOM     25  O   UNL     1       1.313   6.218   0.022  0.00  0.00    -0.274 OA
ATOM     26  N   UNL     1      -0.885   6.517   0.045  0.00  0.00    -0.239 N 
ATOM     27  C   UNL     1      -0.744   7.858   0.051  0.00  0.00    +0.306 C 
ATOM     28  O   UNL     1       0.366   8.352   0.042  0.00  0.00    -0.252 OA
ATOM     29  N   UNL     1      -1.834   8.650   0.065  0.00  0.00    -0.292 N 
ATOM     30  H   UNL     1      -1.890   6.070   0.053  0.00  0.00    +0.159 HD
ATOM     31  H   UNL     1      -2.839   8.203   0.073  0.00  0.00    +0.151 HD
BRANCH  29  32
ATOM     32  C   UNL     1      -1.681  10.107   0.071  0.00  0.00    +0.180 C 
BRANCH  32  33
ATOM     33  C   UNL     1      -3.042  10.755   0.088  0.00  0.00    +0.122 A 
ATOM     34  C   UNL     1      -3.741  11.088   1.188  0.00  0.00    +0.046 A 
ATOM     35  C   UNL     1      -4.953  11.665   0.744  0.00  0.00    +0.041 A 
ATOM     36  C   UNL     1      -4.921  11.651  -0.601  0.00  0.00    +0.195 A 
ATOM     37  O   UNL     1      -3.759  11.104  -0.993  0.00  0.00    -0.466 OA
ENDBRANCH  32  33
ENDBRANCH  29  32
ENDBRANCH  23  24
ENDBRANCH  22  23
ENDBRANCH   4  22
TORSDOF 9
