REMARK  Name = ZINC65432732
REMARK  5 active torsions:
REMARK  status: ('A' for Active; 'I' for Inactive)
REMARK    1  A    between atoms: C_6  and  O_7
REMARK    2  A    between atoms: O_7  and  C_8
REMARK    3  A    between atoms: C_8  and  C_14
REMARK    4  A    between atoms: N_16  and  C_17
REMARK    5  A    between atoms: C_17  and  C_22
REMARK                            x       y       z     vdW  Elec       q    Type
REMARK                         _______ _______ _______ _____ _____    ______ ____
ROOT
ATOM      1  C   UNL     1      -0.972  -1.767   0.013  0.00  0.00    +0.182 C 
ATOM      2  C   UNL     1      -0.309  -2.176   1.332  0.00  0.00    +0.038 C 
ATOM      3  C   UNL     1      -0.335  -3.701   1.457  0.00  0.00    -0.078 C 
ATOM      4  N   UNL     1      -1.724  -4.173   1.439  0.00  0.00    +0.379 N 
ATOM      5  C   UNL     1      -2.344  -3.847   0.149  0.00  0.00    -0.078 C 
ATOM      6  C   UNL     1      -2.396  -2.328  -0.027  0.00  0.00    +0.038 C 
ATOM      7  H   UNL     1      -1.740  -5.173   1.575  0.00  0.00    -0.086 HD
ATOM      8  H   UNL     1      -2.240  -3.726   2.182  0.00  0.00    -0.086 HD
ENDROOT
BRANCH   1   9
ATOM      9  C   UNL     1      -0.179  -2.319  -1.144  0.00  0.00    +0.258 C 
ATOM     10  O   UNL     1      -0.537  -3.341  -1.691  0.00  0.00    -0.271 OA
ATOM     11  N   UNL     1       0.926  -1.678  -1.571  0.00  0.00    -0.298 N 
ATOM     12  H   UNL     1       1.170  -0.822  -1.184  0.00  0.00    +0.150 HD
BRANCH  11  13
ATOM     13  C   UNL     1       1.760  -2.273  -2.618  0.00  0.00    +0.110 C 
ATOM     14  C   UNL     1       2.255  -3.660  -2.173  0.00  0.00    +0.035 C 
ATOM     15  C   UNL     1       3.796  -3.591  -2.147  0.00  0.00    +0.003 C 
ATOM     16  C   UNL     1       4.106  -2.083  -1.975  0.00  0.00    +0.003 C 
ATOM     17  C   UNL     1       3.018  -1.409  -2.847  0.00  0.00    +0.035 C 
BRANCH  13  18
ATOM     18  C   UNL     1       0.974  -2.390  -3.898  0.00  0.00    +0.234 C 
ATOM     19  O   UNL     1       1.163  -3.330  -4.642  0.00  0.00    -0.274 OA
ATOM     20  N   UNL     1       0.062  -1.451  -4.218  0.00  0.00    -0.328 N 
ATOM     21  H   UNL     1      -0.037  -0.662  -3.662  0.00  0.00    +0.145 HD
ATOM     22  H   UNL     1      -0.496  -1.564  -5.003  0.00  0.00    +0.145 HD
ENDBRANCH  13  18
ENDBRANCH  11  13
ENDBRANCH   1   9
BRANCH   1  23
ATOM     23  O   UNL     1      -1.017  -0.341  -0.076  0.00  0.00    -0.477 OA
BRANCH  23  29
ATOM     24  C   UNL     1      -1.584   1.709   0.989  0.00  0.00    +0.047 A 
ATOM     25  C   UNL     1      -2.188   2.382   2.033  0.00  0.00    +0.023 A 
ATOM     26  C   UNL     1      -2.818   1.674   3.042  0.00  0.00    +0.041 A 
ATOM     27  C   UNL     1      -2.845   0.291   3.006  0.00  0.00    +0.023 A 
ATOM     28  C   UNL     1      -2.242  -0.385   1.963  0.00  0.00    +0.047 A 
ATOM     29  C   UNL     1      -1.610   0.323   0.951  0.00  0.00    +0.122 A 
ATOM     30 CL   UNL     1      -3.574   2.522   4.354  0.00  0.00    -0.084 Cl
ENDBRANCH  23  29
ENDBRANCH   1  23
TORSDOF 5
