REMARK  Name = ZINC33059597
REMARK  3 active torsions:
REMARK  status: ('A' for Active; 'I' for Inactive)
REMARK    1  A    between atoms: C_10  and  N_12
REMARK    2  A    between atoms: C_13  and  C_15
REMARK    3  A    between atoms: C_15  and  N_16
REMARK                            x       y       z     vdW  Elec       q    Type
REMARK                         _______ _______ _______ _____ _____    ______ ____
ROOT
ATOM      1  C   UNL     1      -0.176   2.496  -7.276  0.00  0.00    +0.222 C 
ENDROOT
BRANCH   1   2
ATOM      2  N   UNL     1      -0.769   2.463  -5.937  0.00  0.00    -0.290 N 
ATOM      3  C   UNL     1      -2.044   2.891  -5.754  0.00  0.00    +0.204 A 
ATOM      4  N   UNL     1      -2.640   2.895  -4.600  0.00  0.00    -0.218 NA
ATOM      5  C   UNL     1      -2.019   2.463  -3.475  0.00  0.00    +0.167 A 
ATOM      6  C   UNL     1      -0.688   1.998  -3.571  0.00  0.00    +0.084 A 
ATOM      7  C   UNL     1      -0.041   2.007  -4.890  0.00  0.00    +0.264 A 
ATOM      8  O   UNL     1       1.104   1.620  -5.036  0.00  0.00    -0.267 OA
ATOM      9  C   UNL     1      -0.039   1.550  -2.425  0.00  0.00    +0.022 A 
ATOM     10  C   UNL     1      -0.730   1.579  -1.220  0.00  0.00    -0.025 A 
ATOM     11  C   UNL     1      -2.030   2.050  -1.190  0.00  0.00    +0.047 A 
ATOM     12  N   UNL     1      -2.627   2.468  -2.297  0.00  0.00    -0.232 NA
ATOM     13  C   UNL     1      -2.828   2.121   0.088  0.00  0.00    +0.056 C 
ATOM     14  C   UNL     1      -2.206   1.229   1.160  0.00  0.00    +0.006 C 
ATOM     15  C   UNL     1      -0.717   1.573   1.273  0.00  0.00    +0.005 C 
ATOM     16  C   UNL     1      -0.013   1.086   0.008  0.00  0.00    +0.037 C 
ENDBRANCH   1   2
BRANCH   1  18
ATOM     17  N   UNL     1       0.005   0.992  -9.231  0.00  0.00    -0.307 N 
ATOM     18  C   UNL     1      -0.449   1.190  -7.978  0.00  0.00    +0.233 C 
ATOM     19  O   UNL     1      -1.077   0.319  -7.415  0.00  0.00    -0.274 OA
ATOM     20  H   UNL     1       0.575   1.782  -9.742  0.00  0.00    +0.149 HD
BRANCH  17  30
ATOM     21  C   UNL     1      -4.190  -0.084 -11.589  0.00  0.00    +0.000 A 
ATOM     22  C   UNL     1      -3.935   0.410 -10.323  0.00  0.00    +0.000 A 
ATOM     23  C   UNL     1      -2.659   0.338  -9.805  0.00  0.00    +0.006 A 
ATOM     24  C   UNL     1      -1.627  -0.227 -10.543  0.00  0.00    -0.024 A 
ATOM     25  C   UNL     1      -1.880  -0.715 -11.805  0.00  0.00    -0.042 A 
ATOM     26  C   UNL     1      -3.167  -0.644 -12.325  0.00  0.00    +0.004 A 
ATOM     27  C   UNL     1      -0.810  -1.334 -12.665  0.00  0.00    +0.035 C 
ATOM     28  C   UNL     1       0.400  -1.724 -11.819  0.00  0.00    +0.007 C 
ATOM     29  C   UNL     1       0.812  -0.512 -10.976  0.00  0.00    +0.027 C 
ATOM     30  C   UNL     1      -0.260  -0.278  -9.914  0.00  0.00    +0.103 C 
ENDBRANCH  17  30
ENDBRANCH   1  18
TORSDOF 3
