REMARK  Name = ZINC13021557
REMARK  11 active torsions:
REMARK  status: ('A' for Active; 'I' for Inactive)
REMARK    1  A    between atoms: C_1  and  N_2
REMARK    2  A    between atoms: C_3  and  C_28
REMARK    3  A    between atoms: C_6  and  S_7
REMARK    4  A    between atoms: S_7  and  C_8
REMARK    5  A    between atoms: C_8  and  C_9
REMARK    6  A    between atoms: N_11  and  C_12
REMARK    7  A    between atoms: C_12  and  C_13
REMARK    8  A    between atoms: C_13  and  C_15
REMARK    9  A    between atoms: C_13  and  N_61
REMARK   10  A    between atoms: C_18  and  O_21
REMARK   11  A    between atoms: O_21  and  C_22
REMARK                            x       y       z     vdW  Elec       q    Type
REMARK                         _______ _______ _______ _____ _____    ______ ____
ROOT
ATOM      1  C   UNL     1      -0.296  -2.497   2.731  0.00  0.00    +0.223 C 
ATOM      2  O   UNL     1      -0.298  -1.836   3.748  0.00  0.00    -0.275 OA
ATOM      3  N   UNL     1      -0.239  -1.887   1.530  0.00  0.00    -0.316 N 
ATOM      4  H   UNL     1      -0.238  -2.415   0.717  0.00  0.00    +0.149 HD
ENDROOT
BRANCH   1   5
ATOM      5  C   UNL     1      -0.358  -4.001   2.809  0.00  0.00    +0.173 C 
BRANCH   5   6
ATOM      6  S   UNL     1      -0.426  -4.513   4.544  0.00  0.00    -0.077 S 
BRANCH   6  12
ATOM      7  C   UNL     1      -0.571  -6.936   6.789  0.00  0.00    +0.153 C 
ATOM      8  N   UNL     1      -0.548  -7.190   5.346  0.00  0.00    -0.303 N 
ATOM      9  C   UNL     1      -0.584  -8.415   4.716  0.00  0.00    +0.200 A 
ATOM     10  N   UNL     1      -0.539  -8.182   3.422  0.00  0.00    -0.125 NA
ATOM     11  N   UNL     1      -0.483  -6.917   3.205  0.00  0.00    -0.122 NA
ATOM     12  C   UNL     1      -0.489  -6.262   4.344  0.00  0.00    +0.192 A 
BRANCH   9  13
ATOM     13  C   UNL     1      -0.654  -9.732   5.367  0.00  0.00    +0.172 A 
ATOM     14  C   UNL     1      -0.404 -10.933   4.772  0.00  0.00    +0.053 A 
ATOM     15  C   UNL     1      -0.585 -11.920   5.760  0.00  0.00    +0.042 A 
ATOM     16  C   UNL     1      -0.941 -11.284   6.894  0.00  0.00    +0.196 A 
ATOM     17  O   UNL     1      -0.981  -9.963   6.653  0.00  0.00    -0.460 OA
ENDBRANCH   9  13
ENDBRANCH   6  12
ENDBRANCH   5   6
ENDBRANCH   1   5
BRANCH   3  18
ATOM     18  C   UNL     1      -0.180  -0.425   1.454  0.00  0.00    +0.093 C 
BRANCH  18  19
ATOM     19  C   UNL     1       0.014   0.003  -0.002  0.00  0.00    -0.020 C 
BRANCH  19  25
ATOM     20  C   UNL     1      -1.317   0.372  -1.990  0.00  0.00    -0.078 C 
ATOM     21  C   UNL     1      -2.406  -0.236  -2.877  0.00  0.00    -0.019 C 
ATOM     22  C   UNL     1      -3.708  -0.343  -2.079  0.00  0.00    -0.004 C 
ATOM     23  C   UNL     1      -3.462  -1.189  -0.827  0.00  0.00    -0.019 C 
ATOM     24  C   UNL     1      -2.342  -0.553   0.001  0.00  0.00    -0.078 C 
ATOM     25  N   UNL     1      -1.111  -0.502  -0.816  0.00  0.00    +0.385 N 
ATOM     26  H   UNL     1      -0.888  -1.450  -1.141  0.00  0.00    -0.081 HD
ENDBRANCH  19  25
BRANCH  19  27
ATOM     27  C   UNL     1       0.086   1.506  -0.079  0.00  0.00    -0.059 A 
ATOM     28  C   UNL     1      -1.047   2.264   0.149  0.00  0.00    +0.005 A 
ATOM     29  C   UNL     1      -0.982   3.643   0.085  0.00  0.00    +0.046 A 
ATOM     30  C   UNL     1       0.219   4.266  -0.220  0.00  0.00    +0.120 A 
ATOM     31  C   UNL     1       1.354   3.502  -0.454  0.00  0.00    +0.046 A 
ATOM     32  C   UNL     1       1.285   2.125  -0.383  0.00  0.00    +0.005 A 
BRANCH  30  33
ATOM     33  O   UNL     1       0.284   5.621  -0.290  0.00  0.00    -0.495 OA
ATOM     34  C   UNL     1      -0.923   6.343  -0.038  0.00  0.00    +0.277 C 
ENDBRANCH  30  33
ENDBRANCH  19  27
ENDBRANCH  18  19
ENDBRANCH   3  18
TORSDOF 9
