REMARK  Name = ZINC32622153
REMARK  6 active torsions:
REMARK  status: ('A' for Active; 'I' for Inactive)
REMARK    1  A    between atoms: C_6  and  C_7
REMARK    2  A    between atoms: C_9  and  C_12
REMARK    3  A    between atoms: N_14  and  C_15
REMARK    4  A    between atoms: C_15  and  C_16
REMARK    5  A    between atoms: C_16  and  C_18
REMARK    6  A    between atoms: C_16  and  N_25
REMARK                            x       y       z     vdW  Elec       q    Type
REMARK                         _______ _______ _______ _____ _____    ______ ____
ROOT
ATOM      1  C   UNL     1       5.850   0.935  -1.508  0.00  0.00    +0.266 C 
ATOM      2  O   UNL     1       5.114   1.575  -0.782  0.00  0.00    -0.268 OA
ATOM      3  N   UNL     1       6.074  -0.370  -1.259  0.00  0.00    -0.311 N 
ATOM      4  H   UNL     1       6.740  -0.949  -1.915  0.00  0.00    +0.149 HD
ENDROOT
BRANCH   1   7
ATOM      5  C   UNL     1       7.160   3.043  -4.174  0.00  0.00    +0.168 A 
ATOM      6  C   UNL     1       6.369   2.948  -3.063  0.00  0.00    +0.086 A 
ATOM      7  C   UNL     1       6.502   1.592  -2.667  0.00  0.00    +0.168 A 
ATOM      8  N   UNL     1       7.315   1.034  -3.531  0.00  0.00    -0.073 NA
ATOM      9  O   UNL     1       7.687   1.822  -4.369  0.00  0.00    -0.354 OA
BRANCH   5  15
ATOM     10  C   UNL     1       6.767   5.453  -4.665  0.00  0.00    +0.013 A 
ATOM     11  C   UNL     1       6.992   6.578  -5.432  0.00  0.00    +0.021 A 
ATOM     12  C   UNL     1       7.833   6.513  -6.531  0.00  0.00    +0.041 A 
ATOM     13  C   UNL     1       8.454   5.321  -6.864  0.00  0.00    +0.021 A 
ATOM     14  C   UNL     1       8.240   4.191  -6.103  0.00  0.00    +0.013 A 
ATOM     15  C   UNL     1       7.394   4.251  -4.994  0.00  0.00    +0.020 A 
ATOM     16 CL   UNL     1       8.107   7.931  -7.494  0.00  0.00    -0.084 Cl
ENDBRANCH   5  15
ENDBRANCH   1   7
BRANCH   3  17
ATOM     17  C   UNL     1       5.430  -1.018  -0.113  0.00  0.00    +0.094 C 
BRANCH  17  18
ATOM     18  C   UNL     1       5.754  -2.514  -0.125  0.00  0.00    -0.020 C 
BRANCH  18  19
ATOM     19  C   UNL     1       7.232  -2.708   0.096  0.00  0.00    -0.059 A 
ATOM     20  C   UNL     1       7.756  -2.634   1.374  0.00  0.00    +0.003 A 
ATOM     21  C   UNL     1       9.110  -2.819   1.578  0.00  0.00    +0.020 A 
ATOM     22  C   UNL     1       9.944  -3.066   0.502  0.00  0.00    +0.041 A 
ATOM     23  C   UNL     1       9.421  -3.135  -0.777  0.00  0.00    +0.020 A 
ATOM     24  C   UNL     1       8.065  -2.956  -0.979  0.00  0.00    +0.003 A 
ATOM     25 CL   UNL     1      11.647  -3.290   0.756  0.00  0.00    -0.084 Cl
ENDBRANCH  18  19
BRANCH  18  26
ATOM     26  N   UNL     1       5.006  -3.185   0.946  0.00  0.00    +0.385 N 
ATOM     27  C   UNL     1       3.544  -2.990   0.777  0.00  0.00    -0.078 C 
ATOM     28  C   UNL     1       2.933  -4.142   1.614  0.00  0.00    -0.020 C 
ATOM     29  C   UNL     1       3.910  -5.312   1.355  0.00  0.00    -0.020 C 
ATOM     30  C   UNL     1       5.225  -4.647   0.909  0.00  0.00    -0.078 C 
ATOM     31  H   UNL     1       5.371  -2.747   1.887  0.00  0.00    -0.081 HD
ENDBRANCH  18  26
ENDBRANCH  17  18
ENDBRANCH   3  17
TORSDOF 6
