REMARK  Name = ZINC13064831
REMARK  11 active torsions:
REMARK  status: ('A' for Active; 'I' for Inactive)
REMARK    1  A    between atoms: C_1  and  C_2
REMARK    2  A    between atoms: C_2  and  C_3
REMARK    3  A    between atoms: C_3  and  C_5
REMARK    4  A    between atoms: C_3  and  N_72
REMARK    5  A    between atoms: N_9  and  C_10
REMARK    6  A    between atoms: C_16  and  C_17
REMARK    7  A    between atoms: C_16  and  N_72
REMARK    8  A    between atoms: C_23  and  C_24
REMARK    9  A    between atoms: C_23  and  N_72
REMARK   10  A    between atoms: C_27  and  C_37
REMARK   11  A    between atoms: C_29  and  C_36
REMARK                            x       y       z     vdW  Elec       q    Type
REMARK                         _______ _______ _______ _____ _____    ______ ____
ROOT
ATOM      1  N   UNL     1       5.290   4.593  -1.809  0.00  0.00    +0.392 N 
ATOM      2  H   UNL     1       5.332   3.901  -2.566  0.00  0.00    -0.080 HD
ENDROOT
BRANCH   1   3
ATOM      3  C   UNL     1       6.529   5.399  -1.826  0.00  0.00    +0.003 C 
BRANCH   3   4
ATOM      4  C   UNL     1       7.672   4.513  -2.249  0.00  0.00    +0.138 A 
ATOM      5  N   UNL     1       7.891   3.280  -1.863  0.00  0.00    -0.115 NA
ATOM      6  N   UNL     1       8.963   2.865  -2.445  0.00  0.00    -0.023 NA
ATOM      7  N   UNL     1       9.438   3.804  -3.187  0.00  0.00    -0.044 NA
ATOM      8  N   UNL     1       8.670   4.836  -3.093  0.00  0.00    -0.228 N 
BRANCH   8   9
ATOM      9  C   UNL     1       8.849   6.119  -3.777  0.00  0.00    +0.111 C 
ATOM     10  C   UNL     1       8.707   5.917  -5.287  0.00  0.00    +0.027 C 
ATOM     11  C   UNL     1       8.895   7.257  -6.001  0.00  0.00    +0.002 C 
ATOM     12  C   UNL     1      10.287   7.811  -5.689  0.00  0.00    +0.000 C 
ATOM     13  C   UNL     1      10.429   8.013  -4.179  0.00  0.00    +0.002 C 
ATOM     14  C   UNL     1      10.241   6.673  -3.465  0.00  0.00    +0.027 C 
ENDBRANCH   8   9
ENDBRANCH   3   4
BRANCH   3  16
ATOM     15  C   UNL     1       5.721   6.973  -0.063  0.00  0.00    +0.002 C 
ATOM     16  C   UNL     1       6.814   5.970  -0.436  0.00  0.00    -0.011 C 
ENDBRANCH   3  16
ENDBRANCH   1   3
BRANCH   1  17
ATOM     17  C   UNL     1       4.116   5.466  -2.022  0.00  0.00    -0.042 C 
BRANCH  17  18
ATOM     18  C   UNL     1       4.117   5.940  -3.452  0.00  0.00    -0.064 A 
ATOM     19  C   UNL     1       4.656   7.172  -3.772  0.00  0.00    +0.002 A 
ATOM     20  C   UNL     1       4.661   7.604  -5.085  0.00  0.00    +0.000 A 
ATOM     21  C   UNL     1       4.118   6.809  -6.077  0.00  0.00    +0.000 A 
ATOM     22  C   UNL     1       3.574   5.579  -5.756  0.00  0.00    +0.000 A 
ATOM     23  C   UNL     1       3.574   5.144  -4.444  0.00  0.00    +0.002 A 
ENDBRANCH  17  18
ENDBRANCH   1  17
BRANCH   1  24
ATOM     24  C   UNL     1       5.165   3.885  -0.517  0.00  0.00    -0.036 C 
BRANCH  24  25
ATOM     25  C   UNL     1       4.087   2.839  -0.640  0.00  0.00    +0.001 A 
ATOM     26  C   UNL     1       4.417   1.565  -0.966  0.00  0.00    +0.017 A 
ATOM     27  C   UNL     1       3.346   0.572  -1.076  0.00  0.00    +0.002 A 
ATOM     28  C   UNL     1       3.624  -0.758  -1.409  0.00  0.00    -0.041 A 
ATOM     29  C   UNL     1       2.603  -1.659  -1.504  0.00  0.00    +0.007 A 
ATOM     30  C   UNL     1       1.291  -1.268  -1.275  0.00  0.00    -0.048 A 
ATOM     31  C   UNL     1       0.994   0.037  -0.946  0.00  0.00    +0.029 A 
ATOM     32  C   UNL     1       2.017   0.973  -0.842  0.00  0.00    +0.050 A 
ATOM     33  N   UNL     1       1.749   2.285  -0.515  0.00  0.00    -0.322 N 
ATOM     34  H   UNL     1       0.833   2.560  -0.354  0.00  0.00    +0.169 HD
ATOM     35  C   UNL     1       2.739   3.189  -0.415  0.00  0.00    +0.251 A 
ATOM     36  O   UNL     1       2.464   4.341  -0.125  0.00  0.00    -0.268 OA
ATOM     37  C   UNL     1       0.180  -2.280  -1.386  0.00  0.00    +0.044 C 
ATOM     38  C   UNL     1       5.045  -1.194  -1.660  0.00  0.00    +0.044 C 
ENDBRANCH  24  25
ENDBRANCH   1  24
TORSDOF 8
