REMARK  Name = ZINC50659207
REMARK  6 active torsions:
REMARK  status: ('A' for Active; 'I' for Inactive)
REMARK    1  A    between atoms: C_1  and  C_2
REMARK    2  A    between atoms: C_2  and  C_20
REMARK    3  A    between atoms: N_4  and  S_8
REMARK    4  A    between atoms: S_8  and  C_11
REMARK    5  A    between atoms: C_16  and  N_17
REMARK    6  A    between atoms: N_17  and  C_18
REMARK                            x       y       z     vdW  Elec       q    Type
REMARK                         _______ _______ _______ _____ _____    ______ ____
ROOT
ATOM      1  S   UNL     1      -3.219   0.189   1.604  0.00  0.00    +0.064 S 
ATOM      2  O   UNL     1      -3.283   0.706   2.925  0.00  0.00    -0.153 OA
ATOM      3  O   UNL     1      -3.186   1.029   0.458  0.00  0.00    -0.153 OA
ENDROOT
BRANCH   1   7
ATOM      4  C   UNL     1       0.550   0.830   0.881  0.00  0.00    +0.042 C 
ATOM      5  C   UNL     1       0.361  -0.651   0.546  0.00  0.00    +0.078 C 
ATOM      6  C   UNL     1      -1.122  -0.929   0.273  0.00  0.00    +0.144 C 
ATOM      7  N   UNL     1      -1.865  -0.762   1.533  0.00  0.00    -0.172 NA
ATOM      8  C   UNL     1      -1.368  -1.463   2.727  0.00  0.00    +0.137 C 
ATOM      9  C   UNL     1       0.126  -1.159   2.880  0.00  0.00    +0.177 C 
ATOM     10  O   UNL     1       0.794  -1.450   1.650  0.00  0.00    -0.371 OA
ATOM     11  C   UNL     1       1.184  -1.004  -0.694  0.00  0.00    +0.042 C 
ENDBRANCH   1   7
BRANCH   1  12
ATOM     12  C   UNL     1      -4.612  -0.873   1.410  0.00  0.00    +0.146 A 
ATOM     13  C   UNL     1      -5.510  -1.047   2.448  0.00  0.00    +0.048 A 
ATOM     14  C   UNL     1      -6.593  -1.894   2.252  0.00  0.00    +0.038 A 
ATOM     15  C   UNL     1      -6.741  -2.532   1.035  0.00  0.00    +0.128 A 
ATOM     16  N   UNL     1      -5.868  -2.347   0.064  0.00  0.00    -0.237 NA
ATOM     17  C   UNL     1      -4.826  -1.543   0.210  0.00  0.00    +0.145 A 
ATOM     18 BR   UNL     1      -7.853  -2.170   3.635  0.00  0.00    -0.049 Br
BRANCH  17  19
ATOM     19  N   UNL     1      -3.934  -1.372  -0.843  0.00  0.00    -0.331 N 
ATOM     20  C   UNL     1      -4.085  -2.163  -2.066  0.00  0.00    +0.127 C 
ATOM     21  H   UNL     1      -3.212  -0.729  -0.767  0.00  0.00    +0.147 HD
ENDBRANCH  17  19
ENDBRANCH   1  12
TORSDOF 3
