REMARK  Name = ZINC41325202
REMARK  6 active torsions:
REMARK  status: ('A' for Active; 'I' for Inactive)
REMARK    1  A    between atoms: C_3  and  O_25
REMARK    2  A    between atoms: C_6  and  C_7
REMARK    3  A    between atoms: C_7  and  N_8
REMARK    4  A    between atoms: C_9  and  C_11
REMARK    5  A    between atoms: N_13  and  C_14
REMARK    6  A    between atoms: C_16  and  N_22
REMARK                            x       y       z     vdW  Elec       q    Type
REMARK                         _______ _______ _______ _____ _____    ______ ____
ROOT
ATOM      1  C   UNL     1      -3.307  -1.944  -3.012  0.00  0.00    +0.303 C 
ATOM      2  O   UNL     1      -2.640  -1.533  -3.939  0.00  0.00    -0.265 OA
ATOM      3  N   UNL     1      -4.452  -2.614  -3.250  0.00  0.00    -0.275 N 
ATOM      4  H   UNL     1      -4.951  -2.999  -2.512  0.00  0.00    +0.155 HD
ENDROOT
BRANCH   3   5
ATOM      5  C   UNL     1      -4.920  -2.755  -4.561  0.00  0.00    +0.072 A 
ATOM      6  C   UNL     1      -4.021  -2.897  -5.609  0.00  0.00    +0.062 A 
ATOM      7  C   UNL     1      -4.486  -3.036  -6.902  0.00  0.00    +0.163 A 
ATOM      8  C   UNL     1      -5.847  -3.034  -7.155  0.00  0.00    +0.156 A 
ATOM      9  C   UNL     1      -6.747  -2.892  -6.112  0.00  0.00    +0.081 A 
ATOM     10  C   UNL     1      -6.288  -2.759  -4.815  0.00  0.00    +0.147 A 
ATOM     11  F   UNL     1      -7.166  -2.627  -3.797  0.00  0.00    -0.203 F 
ATOM     12  F   UNL     1      -6.298  -3.170  -8.421  0.00  0.00    -0.203 F 
BRANCH   7  13
ATOM     13  N   UNL     1      -3.527  -3.186  -8.020  0.00  0.00    +0.059 N 
ATOM     14  O   UNL     1      -2.338  -3.188  -7.800  0.00  0.00    -0.126 OA
ATOM     15  O   UNL     1      -3.932  -3.308  -9.152  0.00  0.00    -0.126 OA
ENDBRANCH   7  13
ENDBRANCH   3   5
BRANCH   1  17
ATOM     16  N   UNL     1      -1.713  -1.038  -1.369  0.00  0.00    -0.303 N 
ATOM     17  C   UNL     1      -2.858  -1.708  -1.607  0.00  0.00    +0.300 C 
ATOM     18  O   UNL     1      -3.525  -2.118  -0.680  0.00  0.00    -0.265 OA
ATOM     19  H   UNL     1      -1.180  -0.709  -2.110  0.00  0.00    +0.149 HD
BRANCH  16  20
ATOM     20  C   UNL     1      -1.273  -0.805   0.009  0.00  0.00    +0.140 C 
BRANCH  20  26
ATOM     21  C   UNL     1       0.012   1.342   0.015  0.00  0.00    +0.009 A 
ATOM     22  C   UNL     1       1.201   2.046   0.007  0.00  0.00    +0.046 A 
ATOM     23  C   UNL     1       2.409   1.364  -0.017  0.00  0.00    +0.117 A 
ATOM     24  C   UNL     1       2.419  -0.023  -0.033  0.00  0.00    +0.046 A 
ATOM     25  C   UNL     1       1.228  -0.722  -0.025  0.00  0.00    +0.009 A 
ATOM     26  C   UNL     1       0.025  -0.040  -0.001  0.00  0.00    -0.030 A 
BRANCH  23  27
ATOM     27  O   UNL     1       3.579   2.054  -0.026  0.00  0.00    -0.507 OA
ATOM     28  H   UNL     1       3.930   2.244   0.855  0.00  0.00    +0.292 HD
ENDBRANCH  23  27
ENDBRANCH  20  26
ENDBRANCH  16  20
ENDBRANCH   1  17
TORSDOF 6
