REMARK  Name = ZINC40377264
REMARK  7 active torsions:
REMARK  status: ('A' for Active; 'I' for Inactive)
REMARK    1  A    between atoms: C_1  and  C_2
REMARK    2  A    between atoms: C_5  and  S_7
REMARK    3  A    between atoms: S_7  and  N_10
REMARK    4  A    between atoms: N_10  and  C_11
REMARK    5  A    between atoms: C_11  and  C_18
REMARK    6  A    between atoms: C_14  and  C_17
REMARK    7  A    between atoms: N_19  and  O_20
REMARK                            x       y       z     vdW  Elec       q    Type
REMARK                         _______ _______ _______ _____ _____    ______ ____
ROOT
ATOM      1  C   UNL     1       2.316  -4.166  -2.302  0.00  0.00    +0.098 C 
ATOM      2  C   UNL     1       3.693  -4.548  -1.757  0.00  0.00    +0.032 C 
ATOM      3  C   UNL     1       3.893  -6.059  -1.887  0.00  0.00    +0.005 C 
ATOM      4  C   UNL     1       3.799  -6.461  -3.361  0.00  0.00    -0.014 C 
ATOM      5  C   UNL     1       2.421  -6.080  -3.906  0.00  0.00    +0.005 C 
ATOM      6  C   UNL     1       2.221  -4.568  -3.776  0.00  0.00    +0.032 C 
ATOM      7  C   UNL     1       3.998  -7.972  -3.491  0.00  0.00    +0.007 C 
ENDROOT
BRANCH   1   8
ATOM      8  C   UNL     1       2.119  -2.678  -2.174  0.00  0.00    +0.153 C 
ATOM      9  N   UNL     1       2.012  -1.947  -3.234  0.00  0.00    -0.075 NA
ATOM     10  N   UNL     1       2.053  -2.097  -0.927  0.00  0.00    -0.342 N 
ATOM     11  H   UNL     1       2.207  -2.633  -0.133  0.00  0.00    +0.144 HD
ATOM     12  H   UNL     1       1.853  -1.151  -0.842  0.00  0.00    +0.144 HD
BRANCH   9  13
ATOM     13  O   UNL     1       1.827  -0.548  -3.113  0.00  0.00    -0.408 OA
ATOM     14  H   UNL     1       1.758  -0.086  -3.960  0.00  0.00    +0.328 HD
ENDBRANCH   9  13
ENDBRANCH   1   8
BRANCH   1  15
ATOM     15  N   UNL     1       1.278  -4.864  -1.538  0.00  0.00    -0.176 NA
ATOM     16  H   UNL     1       1.526  -5.539  -0.887  0.00  0.00    +0.149 HD
BRANCH  15  17
ATOM     17  S   UNL     1      -0.318  -4.499  -1.785  0.00  0.00    +0.066 S 
ATOM     18  O   UNL     1      -0.414  -3.081  -1.792  0.00  0.00    -0.153 OA
ATOM     19  O   UNL     1      -1.063  -5.309  -0.886  0.00  0.00    -0.153 OA
BRANCH  17  24
ATOM     20  C   UNL     1      -1.574  -5.370  -7.501  0.00  0.00    +0.051 C 
ATOM     21  C   UNL     1      -1.300  -5.417  -6.019  0.00  0.00    -0.011 A 
ATOM     22  C   UNL     1      -1.339  -6.479  -5.178  0.00  0.00    +0.013 A 
ATOM     23  C   UNL     1      -1.047  -6.286  -3.841  0.00  0.00    +0.036 A 
ATOM     24  C   UNL     1      -0.731  -5.040  -3.410  0.00  0.00    +0.143 A 
ATOM     25  S   UNL     1      -0.834  -4.091  -4.919  0.00  0.00    -0.074 S 
ENDBRANCH  17  24
ENDBRANCH  15  17
ENDBRANCH   1  15
TORSDOF 5
