REMARK  Name = ZINC51046079
REMARK  5 active torsions:
REMARK  status: ('A' for Active; 'I' for Inactive)
REMARK    1  A    between atoms: C_6  and  N_7
REMARK    2  A    between atoms: C_13  and  C_15
REMARK    3  A    between atoms: C_15  and  N_16
REMARK    4  A    between atoms: C_20  and  C_23
REMARK    5  A    between atoms: N_25  and  C_26
REMARK                            x       y       z     vdW  Elec       q    Type
REMARK                         _______ _______ _______ _____ _____    ______ ____
ROOT
ATOM      1  C   UNL     1       2.889   4.282  -0.004  0.00  0.00    +0.019 C 
ENDROOT
BRANCH   1  11
ATOM      2  C   UNL     1      -0.017   1.378   0.010  0.00  0.00    +0.034 A 
ATOM      3  C   UNL     1       1.165   2.088   0.002  0.00  0.00    +0.026 A 
ATOM      4  C   UNL     1       2.389   1.418  -0.014  0.00  0.00    +0.040 A 
ATOM      5  C   UNL     1       2.397   0.032  -0.021  0.00  0.00    -0.022 A 
ATOM      6  C   UNL     1       1.211  -0.675  -0.013  0.00  0.00    +0.038 A 
ATOM      7  C   UNL     1       0.002  -0.004   0.002  0.00  0.00    +0.127 A 
ATOM      8  C   UNL     1       3.833  -0.441  -0.038  0.00  0.00    +0.056 C 
ATOM      9  C   UNL     1       4.667   0.851  -0.039  0.00  0.00    +0.118 C 
ATOM     10  N   UNL     1       3.686   1.940  -0.024  0.00  0.00    -0.272 N 
ATOM     11  C   UNL     1       3.990   3.253  -0.020  0.00  0.00    +0.203 C 
ATOM     12  O   UNL     1       5.150   3.607  -0.030  0.00  0.00    -0.277 OA
BRANCH   7  13
ATOM     13  N   UNL     1      -1.268  -0.763   0.011  0.00  0.00    +0.056 N 
ATOM     14  O   UNL     1      -2.324  -0.175   0.025  0.00  0.00    -0.126 OA
ATOM     15  O   UNL     1      -1.250  -1.972   0.004  0.00  0.00    -0.126 OA
ENDBRANCH   7  13
ENDBRANCH   1  11
BRANCH   1  16
ATOM     16  N   UNL     1       3.476   5.628  -0.003  0.00  0.00    +0.386 N 
ATOM     17  C   UNL     1       4.202   5.845  -1.260  0.00  0.00    -0.078 C 
ATOM     18  C   UNL     1       4.883   7.215  -1.230  0.00  0.00    -0.018 C 
ATOM     19  C   UNL     1       3.821   8.304  -1.059  0.00  0.00    +0.009 C 
ATOM     20  C   UNL     1       3.021   8.026   0.217  0.00  0.00    +0.058 C 
ATOM     21  C   UNL     1       2.408   6.626   0.134  0.00  0.00    -0.065 C 
ATOM     22  H   UNL     1       4.117   5.714   0.772  0.00  0.00    -0.081 HD
BRANCH  20  23
ATOM     23  C   UNL     1       1.923   9.049   0.355  0.00  0.00    +0.215 C 
ATOM     24  O   UNL     1       0.764   8.694   0.389  0.00  0.00    -0.276 OA
ATOM     25  N   UNL     1       2.229  10.359   0.442  0.00  0.00    -0.312 N 
ATOM     26  H   UNL     1       3.156  10.643   0.416  0.00  0.00    +0.149 HD
BRANCH  25  27
ATOM     27  C   UNL     1       1.162  11.353   0.577  0.00  0.00    +0.073 C 
ATOM     28  C   UNL     1       1.269  12.623  -0.269  0.00  0.00    +0.024 C 
ATOM     29  C   UNL     1       1.518  12.686   1.239  0.00  0.00    +0.024 C 
ENDBRANCH  25  27
ENDBRANCH  20  23
ENDBRANCH   1  16
TORSDOF 5
