REMARK  Name = ZINC64411269
REMARK  4 active torsions:
REMARK  status: ('A' for Active; 'I' for Inactive)
REMARK    1  A    between atoms: C_1  and  C_2
REMARK    2  A    between atoms: C_6  and  N_8
REMARK    3  A    between atoms: C_10  and  C_15
REMARK    4  A    between atoms: C_18  and  C_21
REMARK                            x       y       z     vdW  Elec       q    Type
REMARK                         _______ _______ _______ _____ _____    ______ ____
ROOT
ATOM      1  N   UNL     1       0.052  -2.797   2.393  0.00  0.00    -0.271 N 
ATOM      2  C   UNL     1      -0.027  -4.259   2.496  0.00  0.00    +0.125 C 
ATOM      3  C   UNL     1       0.456  -4.599   3.923  0.00  0.00    +0.082 C 
ATOM      4  C   UNL     1       0.140  -3.289   4.683  0.00  0.00    +0.109 C 
ATOM      5  C   UNL     1       0.147  -2.227   3.606  0.00  0.00    +0.221 C 
ATOM      6  O   UNL     1       0.225  -1.033   3.808  0.00  0.00    -0.275 OA
ENDROOT
BRANCH   1  12
ATOM      7  C   UNL     1       0.060  -2.812  -2.524  0.00  0.00    +0.044 C 
ATOM      8  C   UNL     1       0.041  -2.071  -1.212  0.00  0.00    -0.049 A 
ATOM      9  C   UNL     1       0.008  -0.688  -1.200  0.00  0.00    +0.003 A 
ATOM     10  C   UNL     1      -0.011  -0.004   0.002  0.00  0.00    +0.002 A 
ATOM     11  C   UNL     1       0.004  -0.701   1.194  0.00  0.00    +0.023 A 
ATOM     12  C   UNL     1       0.037  -2.089   1.186  0.00  0.00    +0.037 A 
ATOM     13  C   UNL     1       0.050  -2.773  -0.023  0.00  0.00    +0.027 A 
ENDBRANCH   1  12
BRANCH   3  14
ATOM     14  C   UNL     1      -0.321  -5.756   4.495  0.00  0.00    +0.142 C 
ATOM     15  N   UNL     1      -1.505  -6.085   4.123  0.00  0.00    -0.072 NA
ATOM     16  O   UNL     1      -1.968  -7.212   4.842  0.00  0.00    -0.369 OA
ATOM     17  C   UNL     1      -0.912  -7.578   5.744  0.00  0.00    +0.307 C 
ATOM     18  N   UNL     1       0.151  -6.596   5.476  0.00  0.00    -0.292 N 
ATOM     19  H   UNL     1       1.018  -6.549   5.909  0.00  0.00    +0.151 HD
BRANCH  17  20
ATOM     20  C   UNL     1      -1.388  -7.478   7.195  0.00  0.00    +0.161 C 
ATOM     21  C   UNL     1      -2.479  -8.512   7.402  0.00  0.00    -0.008 C 
ATOM     22  C   UNL     1      -3.678  -8.069   7.809  0.00  0.00    +0.014 C 
ATOM     23  C   UNL     1      -3.909  -6.698   8.032  0.00  0.00    +0.100 C 
ATOM     24  N   UNL     1      -3.009  -5.767   7.870  0.00  0.00    -0.188 NA
ATOM     25  C   UNL     1      -1.761  -6.035   7.468  0.00  0.00    +0.248 C 
ATOM     26  O   UNL     1      -0.948  -5.144   7.327  0.00  0.00    -0.273 OA
ENDBRANCH  17  20
ENDBRANCH   3  14
TORSDOF 3
