REMARK  Name = ZINC14752438
REMARK  10 active torsions:
REMARK  status: ('A' for Active; 'I' for Inactive)
REMARK    1  A    between atoms: C_1  and  O_2
REMARK    2  A    between atoms: O_2  and  C_3
REMARK    3  A    between atoms: C_3  and  C_4
REMARK    4  A    between atoms: C_4  and  C_5
REMARK    5  A    between atoms: C_5  and  N_6
REMARK    6  A    between atoms: N_9  and  C_28
REMARK    7  A    between atoms: C_17  and  N_73
REMARK    8  A    between atoms: C_28  and  C_29
REMARK    9  A    between atoms: C_32  and  O_35
REMARK   10  A    between atoms: O_35  and  C_36
REMARK                            x       y       z     vdW  Elec       q    Type
REMARK                         _______ _______ _______ _____ _____    ______ ____
ROOT
ATOM      1  N   UNL     1      -1.958   1.099   1.287  0.00  0.00    -0.271 N 
ATOM      2  C   UNL     1      -1.987   0.357   2.410  0.00  0.00    +0.312 C 
ATOM      3  O   UNL     1      -2.951  -0.290   2.768  0.00  0.00    -0.252 OA
ATOM      4  N   UNL     1      -0.834   0.412   3.088  0.00  0.00    -0.220 N 
ATOM      5  C   UNL     1       0.069   1.201   2.470  0.00  0.00    +0.247 C 
ATOM      6  O   UNL     1       1.198   1.450   2.835  0.00  0.00    -0.273 OA
ATOM      7  C   UNL     1      -0.625   1.710   1.228  0.00  0.00    +0.112 C 
ATOM      8  C   UNL     1       0.119   1.255  -0.023  0.00  0.00    +0.017 C 
ATOM      9  C   UNL     1      -0.589   1.808  -1.263  0.00  0.00    -0.076 C 
ATOM     10  C   UNL     1      -1.412   3.720  -0.021  0.00  0.00    -0.076 C 
ATOM     11  C   UNL     1      -0.731   3.232   1.261  0.00  0.00    +0.017 C 
ATOM     12  N   UNL     1      -0.609   3.284  -1.184  0.00  0.00    +0.382 N 
ATOM     13  H   UNL     1       0.353   3.625  -1.071  0.00  0.00    -0.081 HD
ENDROOT
BRANCH  12  14
ATOM     14  C   UNL     1      -1.175   3.848  -2.427  0.00  0.00    -0.064 C 
ATOM     15  C   UNL     1      -0.361   3.344  -3.624  0.00  0.00    -0.010 C 
ATOM     16  C   UNL     1      -0.781   4.137  -4.860  0.00  0.00    +0.034 C 
ATOM     17  C   UNL     1      -2.280   4.126  -5.012  0.00  0.00    -0.044 A 
ATOM     18  C   UNL     1      -2.807   4.467  -6.251  0.00  0.00    +0.004 A 
ATOM     19  C   UNL     1      -4.172   4.481  -6.452  0.00  0.00    +0.000 A 
ATOM     20  C   UNL     1      -5.022   4.154  -5.413  0.00  0.00    +0.000 A 
ATOM     21  C   UNL     1      -4.501   3.812  -4.183  0.00  0.00    +0.004 A 
ATOM     22  C   UNL     1      -3.127   3.796  -3.978  0.00  0.00    -0.046 A 
ATOM     23  C   UNL     1      -2.626   3.409  -2.611  0.00  0.00    +0.020 C 
ENDBRANCH  12  14
BRANCH   1  24
ATOM     24  C   UNL     1      -3.043   1.264   0.316  0.00  0.00    +0.112 C 
BRANCH  24  25
ATOM     25  C   UNL     1      -4.198   2.028   0.967  0.00  0.00    +0.047 C 
BRANCH  25  26
ATOM     26  C   UNL     1      -5.378   2.093  -0.004  0.00  0.00    +0.161 C 
BRANCH  26  28
ATOM     27  C   UNL     1      -7.615   2.924  -0.225  0.00  0.00    +0.193 C 
ATOM     28  O   UNL     1      -6.457   2.806   0.604  0.00  0.00    -0.383 OA
ENDBRANCH  26  28
ENDBRANCH  25  26
ENDBRANCH  24  25
ENDBRANCH   1  24
BRANCH   4  29
ATOM     29  C   UNL     1      -0.583  -0.298   4.345  0.00  0.00    +0.153 C 
BRANCH  29  30
ATOM     30  C   UNL     1      -0.016  -1.662   4.048  0.00  0.00    -0.029 A 
ATOM     31  C   UNL     1      -0.864  -2.741   3.882  0.00  0.00    +0.009 A 
ATOM     32  C   UNL     1      -0.347  -3.991   3.603  0.00  0.00    +0.046 A 
ATOM     33  C   UNL     1       1.026  -4.166   3.501  0.00  0.00    +0.120 A 
ATOM     34  C   UNL     1       1.875  -3.083   3.674  0.00  0.00    +0.046 A 
ATOM     35  C   UNL     1       1.353  -1.833   3.946  0.00  0.00    +0.009 A 
BRANCH  33  36
ATOM     36  O   UNL     1       1.537  -5.396   3.234  0.00  0.00    -0.495 OA
ATOM     37  C   UNL     1       0.604  -6.465   3.068  0.00  0.00    +0.277 C 
ENDBRANCH  33  36
ENDBRANCH  29  30
ENDBRANCH   4  29
TORSDOF 8
