REMARK  Name = ZINC13856033
REMARK  8 active torsions:
REMARK  status: ('A' for Active; 'I' for Inactive)
REMARK    1  A    between atoms: C_1  and  C_2
REMARK    2  A    between atoms: N_12  and  C_13
REMARK    3  A    between atoms: C_16  and  O_19
REMARK    4  A    between atoms: O_19  and  C_20
REMARK    5  A    between atoms: C_23  and  C_26
REMARK    6  A    between atoms: C_26  and  C_27
REMARK    7  A    between atoms: C_26  and  C_28
REMARK    8  A    between atoms: C_26  and  C_29
REMARK                            x       y       z     vdW  Elec       q    Type
REMARK                         _______ _______ _______ _____ _____    ______ ____
ROOT
ATOM      1  C   UNL     1       0.011  -4.050   4.357  0.00  0.00    +0.065 A 
ATOM      2  C   UNL     1       0.914  -3.351   5.170  0.00  0.00    +0.031 A 
ATOM      3  C   UNL     1       0.941  -3.587   6.520  0.00  0.00    +0.048 A 
ATOM      4  C   UNL     1       0.075  -4.519   7.084  0.00  0.00    +0.129 A 
ATOM      5  C   UNL     1      -0.823  -5.216   6.282  0.00  0.00    +0.048 A 
ATOM      6  C   UNL     1      -0.864  -4.984   4.931  0.00  0.00    +0.031 A 
ENDROOT
BRANCH   1  18
ATOM      7  C   UNL     1       0.071   1.449  -0.030  0.00  0.00    +0.045 C 
ATOM      8  C   UNL     1       0.019  -0.058  -0.028  0.00  0.00    -0.029 A 
ATOM      9  C   UNL     1      -0.040  -0.747  -1.224  0.00  0.00    +0.005 A 
ATOM     10  C   UNL     1      -0.088  -2.130  -1.239  0.00  0.00    +0.001 A 
ATOM     11  C   UNL     1      -0.077  -2.836  -0.052  0.00  0.00    +0.012 A 
ATOM     12  C   UNL     1      -0.018  -2.151   1.158  0.00  0.00    +0.027 A 
ATOM     13  C   UNL     1       0.036  -0.750   1.177  0.00  0.00    +0.046 A 
ATOM     14  N   UNL     1       0.096  -0.308   2.495  0.00  0.00    -0.279 N 
ATOM     15  C   UNL     1       0.091  -1.337   3.359  0.00  0.00    +0.267 C 
ATOM     16  O   UNL     1       0.134  -1.255   4.571  0.00  0.00    -0.268 OA
ATOM     17  C   UNL     1       0.009  -2.591   2.570  0.00  0.00    +0.135 C 
ATOM     18  N   UNL     1      -0.021  -3.821   3.025  0.00  0.00    -0.242 NA
ATOM     19  H   UNL     1       0.137   0.625   2.757  0.00  0.00    +0.155 HD
ENDBRANCH   1  18
BRANCH   4  20
ATOM     20  O   UNL     1       0.106  -4.749   8.421  0.00  0.00    -0.456 OA
BRANCH  20  21
ATOM     21  C   UNL     1       0.540  -5.963   8.849  0.00  0.00    +0.128 A 
ATOM     22  C   UNL     1       0.465  -6.293  10.195  0.00  0.00    +0.046 A 
ATOM     23  C   UNL     1       0.907  -7.528  10.628  0.00  0.00    +0.008 A 
ATOM     24  C   UNL     1       1.423  -8.436   9.721  0.00  0.00    -0.042 A 
ATOM     25  C   UNL     1       1.498  -8.110   8.379  0.00  0.00    +0.008 A 
ATOM     26  C   UNL     1       1.053  -6.878   7.941  0.00  0.00    +0.046 A 
BRANCH  24  27
ATOM     27  C   UNL     1       1.904  -9.783  10.196  0.00  0.00    -0.013 C 
ATOM     28  C   UNL     1       0.746 -10.535  10.855  0.00  0.00    +0.015 C 
ATOM     29  C   UNL     1       2.423 -10.589   9.004  0.00  0.00    +0.015 C 
ATOM     30  C   UNL     1       3.032  -9.592  11.212  0.00  0.00    +0.015 C 
ENDBRANCH  24  27
ENDBRANCH  20  21
ENDBRANCH   4  20
TORSDOF 4
