REMARK  Name = ZINC66983331
REMARK  5 active torsions:
REMARK  status: ('A' for Active; 'I' for Inactive)
REMARK    1  A    between atoms: C_1  and  N_2
REMARK    2  A    between atoms: N_2  and  C_3
REMARK    3  A    between atoms: C_4  and  C_6
REMARK    4  A    between atoms: C_6  and  N_7
REMARK    5  A    between atoms: C_16  and  C_18
REMARK                            x       y       z     vdW  Elec       q    Type
REMARK                         _______ _______ _______ _____ _____    ______ ____
ROOT
ATOM      1  N   UNL     1      -0.697  -2.526  -2.805  0.00  0.00    -0.291 N 
ATOM      2  C   UNL     1      -0.665  -3.855  -3.025  0.00  0.00    +0.303 C 
ATOM      3  O   UNL     1      -0.704  -4.628  -2.087  0.00  0.00    -0.253 OA
ATOM      4  N   UNL     1      -0.590  -4.328  -4.285  0.00  0.00    -0.283 N 
ATOM      5  C   UNL     1      -0.423  -3.409  -5.420  0.00  0.00    +0.128 C 
ATOM      6  C   UNL     1       0.817  -3.835  -6.216  0.00  0.00    +0.127 C 
ATOM      7  N   UNL     1       0.733  -5.278  -6.480  0.00  0.00    -0.298 N 
ATOM      8  C   UNL     1       0.566  -6.197  -5.345  0.00  0.00    +0.127 C 
ATOM      9  C   UNL     1      -0.668  -5.771  -4.548  0.00  0.00    +0.128 C 
ATOM     10  C   UNL     1       0.808  -5.751  -7.740  0.00  0.00    +0.219 C 
ATOM     11  O   UNL     1       1.048  -4.996  -8.658  0.00  0.00    -0.275 OA
ATOM     12  H   UNL     1      -0.593  -1.909  -3.546  0.00  0.00    +0.151 HD
ENDROOT
BRANCH  10  13
ATOM     13  C   UNL     1       0.593  -7.218  -8.008  0.00  0.00    +0.075 C 
ATOM     14  C   UNL     1       1.820  -8.006  -7.546  0.00  0.00    +0.013 C 
ATOM     15  C   UNL     1       1.602  -9.496  -7.818  0.00  0.00    +0.001 C 
ATOM     16  C   UNL     1       1.390  -9.715  -9.318  0.00  0.00    +0.000 C 
ATOM     17  C   UNL     1       0.163  -8.927  -9.780  0.00  0.00    +0.001 C 
ATOM     18  C   UNL     1       0.382  -7.437  -9.508  0.00  0.00    +0.013 C 
ENDBRANCH  10  13
BRANCH   1  19
ATOM     19  C   UNL     1      -0.888  -2.013  -1.446  0.00  0.00    +0.201 C 
BRANCH  19  23
ATOM     20  C   UNL     1      -1.043   1.654  -0.356  0.00  0.00    +0.131 C 
ATOM     21  N   UNL     1      -1.046   0.189  -0.330  0.00  0.00    -0.306 N 
ATOM     22  C   UNL     1      -1.223  -0.521   0.940  0.00  0.00    +0.131 C 
ATOM     23  C   UNL     1      -0.885  -0.506  -1.473  0.00  0.00    +0.232 C 
ATOM     24  O   UNL     1      -0.737   0.082  -2.524  0.00  0.00    -0.274 OA
ENDBRANCH  19  23
ENDBRANCH   1  19
TORSDOF 3
