REMARK  Name = ZINC65381937
REMARK  8 active torsions:
REMARK  status: ('A' for Active; 'I' for Inactive)
REMARK    1  A    between atoms: C_1  and  C_2
REMARK    2  A    between atoms: N_6  and  C_8
REMARK    3  A    between atoms: C_8  and  C_9
REMARK    4  A    between atoms: C_8  and  C_10
REMARK    5  A    between atoms: C_8  and  C_11
REMARK    6  A    between atoms: C_11  and  N_12
REMARK    7  A    between atoms: C_19  and  C_21
REMARK    8  A    between atoms: N_23  and  C_24
REMARK                            x       y       z     vdW  Elec       q    Type
REMARK                         _______ _______ _______ _____ _____    ______ ____
ROOT
ATOM      1  N   UNL     1       2.188  -4.461   1.137  0.00  0.00    -0.301 N 
ATOM      2  C   UNL     1       2.323  -5.782   0.909  0.00  0.00    +0.302 C 
ATOM      3  O   UNL     1       2.013  -6.582   1.771  0.00  0.00    -0.253 OA
ATOM      4  N   UNL     1       2.801  -6.217  -0.274  0.00  0.00    -0.285 N 
ATOM      5  C   UNL     1       3.288  -5.264  -1.280  0.00  0.00    +0.109 C 
ATOM      6  C   UNL     1       2.565  -5.532  -2.604  0.00  0.00    +0.020 C 
ATOM      7  C   UNL     1       2.747  -7.002  -2.990  0.00  0.00    +0.016 C 
ATOM      8  C   UNL     1       2.127  -7.895  -1.913  0.00  0.00    +0.092 C 
ATOM      9  C   UNL     1       2.850  -7.653  -0.579  0.00  0.00    +0.122 C 
ATOM     10  H   UNL     1       2.503  -3.821   0.480  0.00  0.00    +0.150 HD
ENDROOT
BRANCH   8  11
ATOM     11  C   UNL     1       2.278  -9.341  -2.310  0.00  0.00    +0.218 C 
ATOM     12  O   UNL     1       2.826  -9.629  -3.352  0.00  0.00    -0.275 OA
ATOM     13  N   UNL     1       1.803 -10.313  -1.506  0.00  0.00    -0.312 N 
ATOM     14  H   UNL     1       1.365 -10.082  -0.672  0.00  0.00    +0.149 HD
BRANCH  13  15
ATOM     15  C   UNL     1       1.949 -11.719  -1.892  0.00  0.00    +0.073 C 
ATOM     16  C   UNL     1       0.740 -12.635  -1.696  0.00  0.00    +0.024 C 
ATOM     17  C   UNL     1       1.954 -12.762  -0.773  0.00  0.00    +0.024 C 
ENDBRANCH  13  15
ENDBRANCH   8  11
BRANCH   1  18
ATOM     18  C   UNL     1       1.566  -3.991   2.377  0.00  0.00    +0.093 C 
BRANCH  18  19
ATOM     19  C   UNL     1       1.536  -2.461   2.385  0.00  0.00    -0.055 C 
ATOM     20  C   UNL     1       2.965  -1.923   2.296  0.00  0.00    -0.008 C 
ATOM     21  C   UNL     1       0.886  -1.970   3.681  0.00  0.00    -0.008 C 
BRANCH  19  27
ATOM     22  C   UNL     1      -0.022   1.524   0.007  0.00  0.00    +0.005 C 
ATOM     23  C   UNL     1       0.000  -0.005  -0.001  0.00  0.00    -0.031 C 
ATOM     24  C   UNL     1      -1.436  -0.537   0.014  0.00  0.00    -0.001 C 
ATOM     25  C   UNL     1      -1.403  -2.067   0.085  0.00  0.00    -0.018 C 
ATOM     26  C   UNL     1      -0.612  -2.497   1.322  0.00  0.00    -0.078 C 
ATOM     27  N   UNL     1       0.759  -1.980   1.235  0.00  0.00    +0.384 N 
ATOM     28  C   UNL     1       0.739  -0.513   1.239  0.00  0.00    -0.075 C 
ATOM     29  H   UNL     1       1.187  -2.308   0.382  0.00  0.00    -0.081 HD
ENDBRANCH  19  27
ENDBRANCH  18  19
ENDBRANCH   1  18
TORSDOF 5
