REMARK  Name = ZINC08817524
REMARK  9 active torsions:
REMARK  status: ('A' for Active; 'I' for Inactive)
REMARK    1  A    between atoms: C_1  and  C_2
REMARK    2  A    between atoms: C_2  and  C_27
REMARK    3  A    between atoms: N_3  and  N_4
REMARK    4  A    between atoms: C_5  and  C_7
REMARK    5  A    between atoms: C_7  and  S_8
REMARK    6  A    between atoms: S_8  and  C_9
REMARK    7  A    between atoms: C_12  and  C_20
REMARK    8  A    between atoms: N_13  and  C_14
REMARK    9  A    between atoms: C_30  and  N_33
REMARK                            x       y       z     vdW  Elec       q    Type
REMARK                         _______ _______ _______ _____ _____    ______ ____
ROOT
ATOM      1  S   UNL     1      -1.966  -0.077   2.754  0.00  0.00    -0.077 S 
ENDROOT
BRANCH   1   2
ATOM      2  C   UNL     1      -2.259  -0.584   1.092  0.00  0.00    +0.193 A 
ATOM      3  N   UNL     1      -3.432  -0.735   0.518  0.00  0.00    -0.122 NA
ATOM      4  N   UNL     1      -3.281  -1.115  -0.701  0.00  0.00    -0.128 NA
ATOM      5  C   UNL     1      -2.003  -1.224  -0.981  0.00  0.00    +0.165 A 
ATOM      6  N   UNL     1      -1.309  -0.892   0.160  0.00  0.00    -0.299 N 
BRANCH   5   7
ATOM      7  C   UNL     1      -1.420  -1.628  -2.278  0.00  0.00    +0.019 A 
ATOM      8  C   UNL     1      -0.188  -1.111  -2.684  0.00  0.00    +0.013 A 
ATOM      9  C   UNL     1       0.353  -1.497  -3.893  0.00  0.00    +0.021 A 
ATOM     10  C   UNL     1      -0.327  -2.386  -4.707  0.00  0.00    +0.041 A 
ATOM     11  C   UNL     1      -1.552  -2.898  -4.313  0.00  0.00    +0.021 A 
ATOM     12  C   UNL     1      -2.101  -2.524  -3.104  0.00  0.00    +0.013 A 
ATOM     13 CL   UNL     1       0.358  -2.861  -6.231  0.00  0.00    -0.084 Cl
ENDBRANCH   5   7
BRANCH   6  14
ATOM     14  C   UNL     1       0.145  -0.870   0.336  0.00  0.00    +0.091 C 
ATOM     15  C   UNL     1       0.607   0.568   0.581  0.00  0.00    +0.025 C 
ATOM     16  C   UNL     1       2.125   0.592   0.765  0.00  0.00    +0.002 C 
ATOM     17  C   UNL     1       2.507  -0.278   1.965  0.00  0.00    +0.000 C 
ATOM     18  C   UNL     1       2.045  -1.716   1.720  0.00  0.00    +0.002 C 
ATOM     19  C   UNL     1       0.526  -1.739   1.536  0.00  0.00    +0.025 C 
ENDBRANCH   6  14
ENDBRANCH   1   2
BRANCH   1  20
ATOM     20  C   UNL     1      -3.671   0.136   3.322  0.00  0.00    +0.174 C 
BRANCH  20  22
ATOM     21  N   UNL     1      -4.834   0.804   5.401  0.00  0.00    -0.206 N 
ATOM     22  C   UNL     1      -3.669   0.581   4.762  0.00  0.00    +0.242 C 
ATOM     23  O   UNL     1      -2.617   0.738   5.347  0.00  0.00    -0.273 OA
ATOM     24  H   UNL     1      -5.675   0.678   4.933  0.00  0.00    +0.177 HD
BRANCH  21  27
ATOM     25  C   UNL     1      -7.261   1.237   6.628  0.00  0.00    +0.068 C 
ATOM     26  C   UNL     1      -5.954   1.432   7.354  0.00  0.00    +0.063 C 
ATOM     27  N   UNL     1      -4.832   1.217   6.739  0.00  0.00    -0.185 NA
BRANCH  26  28
ATOM     28  C   UNL     1      -5.952   1.867   8.763  0.00  0.00    -0.002 A 
ATOM     29  C   UNL     1      -7.158   2.104   9.426  0.00  0.00    +0.012 A 
ATOM     30  C   UNL     1      -7.149   2.505  10.746  0.00  0.00    +0.033 A 
ATOM     31  C   UNL     1      -5.947   2.683  11.410  0.00  0.00    +0.126 A 
ATOM     32  C   UNL     1      -4.749   2.455  10.758  0.00  0.00    +0.033 A 
ATOM     33  C   UNL     1      -4.743   2.048   9.440  0.00  0.00    +0.012 A 
BRANCH  31  34
ATOM     34  N   UNL     1      -5.945   3.118  12.825  0.00  0.00    +0.056 N 
ATOM     35  O   UNL     1      -4.889   3.275  13.412  0.00  0.00    -0.126 OA
ATOM     36  O   UNL     1      -6.999   3.319  13.402  0.00  0.00    -0.126 OA
ENDBRANCH  31  34
ENDBRANCH  26  28
ENDBRANCH  21  27
ENDBRANCH  20  22
ENDBRANCH   1  20
TORSDOF 8
