REMARK  Name = ZINC23292002
REMARK  6 active torsions:
REMARK  status: ('A' for Active; 'I' for Inactive)
REMARK    1  A    between atoms: C_1  and  C_2
REMARK    2  A    between atoms: C_2  and  C_4
REMARK    3  A    between atoms: C_2  and  N_10
REMARK    4  A    between atoms: N_13  and  C_16
REMARK    5  A    between atoms: C_16  and  C_17
REMARK    6  A    between atoms: C_16  and  C_24
REMARK                            x       y       z     vdW  Elec       q    Type
REMARK                         _______ _______ _______ _____ _____    ______ ____
ROOT
ATOM      1  N   UNL     1      -3.364   3.088   0.856  0.00  0.00    +0.389 N 
ATOM      2  C   UNL     1      -3.973   2.589  -0.385  0.00  0.00    -0.062 C 
ATOM      3  C   UNL     1      -5.343   3.244  -0.576  0.00  0.00    +0.067 C 
ATOM      4  N   UNL     1      -5.184   4.704  -0.621  0.00  0.00    -0.295 NA
ATOM      5  C   UNL     1      -4.574   5.203   0.620  0.00  0.00    +0.067 C 
ATOM      6  C   UNL     1      -3.204   4.548   0.810  0.00  0.00    -0.062 C 
ATOM      7  H   UNL     1      -4.040   2.846   1.688  0.00  0.00    -0.081 HD
ENDROOT
BRANCH   1   9
ATOM      8  C   UNL     1      -1.006   3.016   0.195  0.00  0.00    -0.004 C 
ATOM      9  C   UNL     1      -2.078   2.425   1.114  0.00  0.00    +0.017 C 
BRANCH   9  10
ATOM     10  C   UNL     1      -1.682   2.641   2.551  0.00  0.00    +0.207 C 
ATOM     11  O   UNL     1      -2.264   3.465   3.224  0.00  0.00    -0.277 OA
ATOM     12  N   UNL     1      -0.680   1.918   3.090  0.00  0.00    -0.242 N 
ATOM     13  C   UNL     1      -0.325   2.111   4.376  0.00  0.00    +0.303 C 
ATOM     14  O   UNL     1      -0.906   2.940   5.048  0.00  0.00    -0.253 OA
ATOM     15  N   UNL     1       0.673   1.384   4.916  0.00  0.00    -0.313 N 
ATOM     16  H   UNL     1      -0.152   1.170   2.480  0.00  0.00    +0.159 HD
ATOM     17  H   UNL     1       0.962   1.541   5.965  0.00  0.00    +0.146 HD
ATOM     18  H   UNL     1       1.198   0.633   4.307  0.00  0.00    +0.146 HD
ENDBRANCH   9  10
ENDBRANCH   1   9
BRANCH   4  19
ATOM     19  C   UNL     1      -6.469   5.367  -0.879  0.00  0.00    +0.117 C 
BRANCH  19  20
ATOM     20  C   UNL     1      -6.249   6.850  -1.025  0.00  0.00    -0.026 A 
ATOM     21  C   UNL     1      -5.192   7.321  -1.781  0.00  0.00    +0.008 A 
ATOM     22  C   UNL     1      -4.993   8.681  -1.919  0.00  0.00    +0.038 A 
ATOM     23  C   UNL     1      -5.845   9.573  -1.291  0.00  0.00    +0.123 A 
ATOM     24  C   UNL     1      -6.901   9.101  -0.529  0.00  0.00    +0.038 A 
ATOM     25  C   UNL     1      -7.101   7.740  -0.397  0.00  0.00    +0.008 A 
ATOM     26  F   UNL     1      -5.648  10.903  -1.421  0.00  0.00    -0.205 F 
ENDBRANCH  19  20
BRANCH  19  27
ATOM     27  C   UNL     1      -7.070   4.821  -2.149  0.00  0.00    -0.026 A 
ATOM     28  C   UNL     1      -6.279   4.655  -3.271  0.00  0.00    +0.008 A 
ATOM     29  C   UNL     1      -6.827   4.150  -4.435  0.00  0.00    +0.038 A 
ATOM     30  C   UNL     1      -8.171   3.820  -4.480  0.00  0.00    +0.123 A 
ATOM     31  C   UNL     1      -8.963   3.992  -3.357  0.00  0.00    +0.038 A 
ATOM     32  C   UNL     1      -8.412   4.492  -2.193  0.00  0.00    +0.008 A 
ATOM     33  F   UNL     1      -8.710   3.331  -5.618  0.00  0.00    -0.205 F 
ENDBRANCH  19  27
ENDBRANCH   4  19
TORSDOF 5
