REMARK  Name = ZINC58870820
REMARK  10 active torsions:
REMARK  status: ('A' for Active; 'I' for Inactive)
REMARK    1  A    between atoms: C_1  and  C_2
REMARK    2  A    between atoms: C_2  and  O_3
REMARK    3  A    between atoms: O_3  and  C_4
REMARK    4  A    between atoms: C_4  and  C_6
REMARK    5  A    between atoms: C_9  and  N_12
REMARK    6  A    between atoms: C_16  and  S_20
REMARK    7  A    between atoms: S_20  and  C_21
REMARK    8  A    between atoms: N_23  and  N_24
REMARK    9  A    between atoms: C_25  and  C_26
REMARK   10  A    between atoms: C_25  and  C_27
REMARK                            x       y       z     vdW  Elec       q    Type
REMARK                         _______ _______ _______ _____ _____    ______ ____
ROOT
ATOM      1  N   UNL     1       3.369  -3.896  -5.888  0.00  0.00    -0.209 N 
ATOM      2  C   UNL     1       3.822  -3.124  -6.883  0.00  0.00    +0.228 C 
ATOM      3  O   UNL     1       3.736  -1.915  -6.930  0.00  0.00    -0.275 OA
ATOM      4  C   UNL     1       4.460  -3.998  -7.941  0.00  0.00    +0.120 C 
ATOM      5  C   UNL     1       4.294  -5.425  -7.378  0.00  0.00    +0.149 C 
ATOM      6  C   UNL     1       3.586  -5.206  -6.059  0.00  0.00    +0.240 C 
ATOM      7  O   UNL     1       3.263  -6.078  -5.282  0.00  0.00    -0.274 OA
ENDROOT
BRANCH   1  11
ATOM      8  C   UNL     1       1.455  -2.346  -2.524  0.00  0.00    +0.059 A 
ATOM      9  C   UNL     1       2.713  -2.943  -2.402  0.00  0.00    +0.017 A 
ATOM     10  C   UNL     1       3.342  -3.454  -3.515  0.00  0.00    +0.025 A 
ATOM     11  C   UNL     1       2.727  -3.376  -4.760  0.00  0.00    +0.044 A 
ATOM     12  C   UNL     1       1.475  -2.783  -4.886  0.00  0.00    +0.025 A 
ATOM     13  C   UNL     1       0.838  -2.275  -3.776  0.00  0.00    +0.017 A 
BRANCH   8  14
ATOM     14  C   UNL     1       0.778  -1.797  -1.334  0.00  0.00    +0.339 C 
ATOM     15  O   UNL     1      -0.318  -1.283  -1.442  0.00  0.00    -0.245 OA
BRANCH  14  16
ATOM     16  O   UNL     1       1.374  -1.866  -0.128  0.00  0.00    -0.461 OA
BRANCH  16  18
ATOM     17  C   UNL     1       1.490  -1.484   2.256  0.00  0.00    +0.048 C 
ATOM     18  C   UNL     1       0.661  -1.315   0.981  0.00  0.00    +0.229 C 
ENDBRANCH  16  18
ENDBRANCH  14  16
ENDBRANCH   8  14
ENDBRANCH   1  11
BRANCH   5  19
ATOM     19  S   UNL     1       5.913  -6.197  -7.111  0.00  0.00    -0.078 S 
BRANCH  19  20
ATOM     20  C   UNL     1       5.524  -7.843  -6.617  0.00  0.00    +0.146 C 
ATOM     21  N   UNL     1       4.278  -8.220  -6.527  0.00  0.00    -0.380 N 
ATOM     22  N   UNL     1       6.535  -8.732  -6.326  0.00  0.00    -0.217 N 
ATOM     23  H   UNL     1       4.064  -9.126  -6.256  0.00  0.00    +0.158 HD
ATOM     24  H   UNL     1       7.461  -8.453  -6.393  0.00  0.00    +0.176 HD
ATOM     25  H   UNL     1       3.566  -7.594  -6.732  0.00  0.00    +0.158 HD
BRANCH  22  26
ATOM     26  N   UNL     1       6.225 -10.041  -5.934  0.00  0.00    -0.185 NA
ATOM     27  C   UNL     1       7.177 -10.879  -5.660  0.00  0.00    +0.063 C 
ATOM     28  C   UNL     1       8.616 -10.444  -5.763  0.00  0.00    +0.068 C 
BRANCH  27  29
ATOM     29  C   UNL     1       6.851 -12.257  -5.247  0.00  0.00    -0.002 A 
ATOM     30  C   UNL     1       7.874 -13.159  -4.945  0.00  0.00    +0.011 A 
ATOM     31  C   UNL     1       7.562 -14.446  -4.560  0.00  0.00    +0.016 A 
ATOM     32  C   UNL     1       6.239 -14.844  -4.471  0.00  0.00    +0.018 A 
ATOM     33  C   UNL     1       5.221 -13.955  -4.769  0.00  0.00    +0.016 A 
ATOM     34  C   UNL     1       5.518 -12.663  -5.149  0.00  0.00    +0.011 A 
ATOM     35 BR   UNL     1       5.821 -16.611  -3.943  0.00  0.00    -0.050 Br
ENDBRANCH  27  29
ENDBRANCH  22  26
ENDBRANCH  19  20
ENDBRANCH   5  19
TORSDOF 8
