REMARK  Name = ZINC04908582
REMARK  10 active torsions:
REMARK  status: ('A' for Active; 'I' for Inactive)
REMARK    1  A    between atoms: C_1  and  C_2
REMARK    2  A    between atoms: C_2  and  O_28
REMARK    3  A    between atoms: C_6  and  O_10
REMARK    4  A    between atoms: C_11  and  C_19
REMARK    5  A    between atoms: C_13  and  C_15
REMARK    6  A    between atoms: C_15  and  O_17
REMARK    7  A    between atoms: O_17  and  C_18
REMARK    8  A    between atoms: C_22  and  O_27
REMARK    9  A    between atoms: C_23  and  O_25
REMARK   10  A    between atoms: O_25  and  C_26
REMARK                            x       y       z     vdW  Elec       q    Type
REMARK                         _______ _______ _______ _____ _____    ______ ____
ROOT
ATOM      1  C   UNL     1      -0.750  -1.782  -0.271  0.00  0.00    +0.042 C 
ATOM      2  C   UNL     1       0.687  -1.270  -0.148  0.00  0.00    +0.082 C 
ATOM      3  C   UNL     1       0.995  -0.326  -1.317  0.00  0.00    +0.090 C 
ATOM      4  C   UNL     1       0.204   0.944  -1.124  0.00  0.00    +0.046 A 
ATOM      5  C   UNL     1      -0.366   1.314   0.051  0.00  0.00    +0.044 A 
ATOM      6  C   UNL     1      -1.013   2.536  -0.150  0.00  0.00    +0.235 A 
ATOM      7  N   UNL     1      -0.833   2.888  -1.403  0.00  0.00    -0.136 NA
ATOM      8  N   UNL     1      -0.067   1.896  -2.032  0.00  0.00    -0.278 N 
ATOM      9  H   UNL     1       0.225   1.897  -2.989  0.00  0.00    +0.189 HD
ATOM     10  C   UNL     1      -0.285   0.507   1.323  0.00  0.00    +0.073 C 
ATOM     11  C   UNL     1       0.849  -0.516   1.174  0.00  0.00    +0.141 C 
ENDROOT
BRANCH  10  12
ATOM     12  C   UNL     1       0.005   1.421   2.486  0.00  0.00    -0.035 A 
ATOM     13  C   UNL     1       0.868   2.489   2.325  0.00  0.00    +0.008 A 
ATOM     14  C   UNL     1       1.137   3.329   3.389  0.00  0.00    +0.049 A 
ATOM     15  C   UNL     1       0.541   3.103   4.620  0.00  0.00    +0.158 A 
ATOM     16  C   UNL     1      -0.328   2.028   4.781  0.00  0.00    +0.162 A 
ATOM     17  C   UNL     1      -0.598   1.192   3.709  0.00  0.00    +0.053 A 
BRANCH  16  18
ATOM     18  O   UNL     1      -0.915   1.800   5.986  0.00  0.00    -0.491 OA
ATOM     19  C   UNL     1      -1.795   0.679   6.078  0.00  0.00    +0.277 C 
ENDBRANCH  16  18
BRANCH  15  20
ATOM     20  O   UNL     1       0.805   3.929   5.667  0.00  0.00    -0.503 OA
ATOM     21  H   UNL     1       0.202   4.681   5.736  0.00  0.00    +0.292 HD
ENDBRANCH  15  20
ENDBRANCH  10  12
BRANCH   6  22
ATOM     22  O   UNL     1      -1.706   3.238   0.787  0.00  0.00    -0.491 OA
ATOM     23  H   UNL     1      -2.065   4.076   0.377  0.00  0.00    +0.294 HD
ENDBRANCH   6  22
BRANCH  11  24
ATOM     24  C   UNL     1       2.175   0.200   1.185  0.00  0.00    +0.314 C 
ATOM     25  O   UNL     1       2.385   1.095   0.402  0.00  0.00    -0.250 OA
BRANCH  24  26
ATOM     26  O   UNL     1       3.123  -0.158   2.066  0.00  0.00    -0.468 OA
ATOM     27  C   UNL     1       4.376   0.575   2.020  0.00  0.00    +0.280 C 
ENDBRANCH  24  26
ENDBRANCH  11  24
BRANCH   2  28
ATOM     28  O   UNL     1       1.591  -2.376  -0.180  0.00  0.00    -0.388 OA
ATOM     29  H   UNL     1       1.543  -2.900  -0.991  0.00  0.00    +0.210 HD
ENDBRANCH   2  28
TORSDOF 7
