REMARK  Name = ZINC17191870
REMARK  10 active torsions:
REMARK  status: ('A' for Active; 'I' for Inactive)
REMARK    1  A    between atoms: C_1  and  C_2
REMARK    2  A    between atoms: C_5  and  C_27
REMARK    3  A    between atoms: C_6  and  N_8
REMARK    4  A    between atoms: C_9  and  C_11
REMARK    5  A    between atoms: C_11  and  C_17
REMARK    6  A    between atoms: N_12  and  N_13
REMARK    7  A    between atoms: N_13  and  C_14
REMARK    8  A    between atoms: C_14  and  N_16
REMARK    9  A    between atoms: C_17  and  C_19
REMARK   10  A    between atoms: C_17  and  C_21
REMARK                            x       y       z     vdW  Elec       q    Type
REMARK                         _______ _______ _______ _____ _____    ______ ____
ROOT
ATOM      1  C   UNL     1      -0.615   1.423   0.895  0.00  0.00    +0.142 C 
ATOM      2  N   UNL     1       0.112   2.031   1.787  0.00  0.00    -0.179 NA
ENDROOT
BRANCH   1   4
ATOM      3  N   UNL     1      -2.646   0.184   0.367  0.00  0.00    -0.280 N 
ATOM      4  C   UNL     1      -1.833   0.715   1.301  0.00  0.00    +0.266 C 
ATOM      5  O   UNL     1      -2.109   0.607   2.481  0.00  0.00    -0.268 OA
ATOM      6  H   UNL     1      -2.357   0.211  -0.694  0.00  0.00    +0.155 HD
BRANCH   3  12
ATOM      7  C   UNL     1      -6.004  -0.717   3.843  0.00  0.00    +0.044 C 
ATOM      8  C   UNL     1      -5.510  -0.855   2.426  0.00  0.00    -0.049 A 
ATOM      9  C   UNL     1      -6.255  -1.561   1.499  0.00  0.00    +0.004 A 
ATOM     10  C   UNL     1      -5.805  -1.690   0.198  0.00  0.00    +0.005 A 
ATOM     11  C   UNL     1      -4.608  -1.112  -0.180  0.00  0.00    -0.029 A 
ATOM     12  C   UNL     1      -3.858  -0.402   0.747  0.00  0.00    +0.037 A 
ATOM     13  C   UNL     1      -4.311  -0.278   2.055  0.00  0.00    +0.027 A 
ATOM     14  C   UNL     1      -4.119  -1.253  -1.599  0.00  0.00    +0.045 C 
ENDBRANCH   3  12
ENDBRANCH   1   4
BRANCH   2  15
ATOM     15  N   UNL     1      -0.355   2.162   3.101  0.00  0.00    -0.218 N 
ATOM     16  H   UNL     1      -1.367   1.818   3.362  0.00  0.00    +0.176 HD
BRANCH  15  17
ATOM     17  C   UNL     1       0.434   2.710   4.046  0.00  0.00    +0.147 C 
ATOM     18  S   UNL     1      -0.137   2.870   5.652  0.00  0.00    -0.017 S 
BRANCH  17  19
ATOM     19  N   UNL     1       1.674   3.131   3.726  0.00  0.00    -0.339 N 
ATOM     20  H   UNL     1       2.319   3.578   4.497  0.00  0.00    +0.144 HD
ATOM     21  H   UNL     1       2.041   3.028   2.694  0.00  0.00    +0.144 HD
ENDBRANCH  17  19
ENDBRANCH  15  17
ENDBRANCH   2  15
BRANCH   1  22
ATOM     22  C   UNL     1      -0.206   1.447  -0.555  0.00  0.00    +0.177 C 
BRANCH  22  23
ATOM     23  C   UNL     1       1.000   2.335  -0.722  0.00  0.00    -0.025 A 
ATOM     24  C   UNL     1       2.170   2.047  -0.044  0.00  0.00    +0.005 A 
ATOM     25  C   UNL     1       3.278   2.859  -0.201  0.00  0.00    +0.000 A 
ATOM     26  C   UNL     1       3.212   3.965  -1.027  0.00  0.00    +0.000 A 
ATOM     27  C   UNL     1       2.041   4.256  -1.701  0.00  0.00    +0.000 A 
ATOM     28  C   UNL     1       0.935   3.442  -1.548  0.00  0.00    +0.005 A 
ENDBRANCH  22  23
BRANCH  22  29
ATOM     29  C   UNL     1       0.126   0.082  -0.994  0.00  0.00    +0.077 C 
ATOM     30  N   UNL     1       0.382  -0.972  -1.333  0.00  0.00    -0.196 NA
ENDBRANCH  22  29
ENDBRANCH   1  22
TORSDOF 8
