REMARK  Name = ZINC03299501
REMARK  4 active torsions:
REMARK  status: ('A' for Active; 'I' for Inactive)
REMARK    1  A    between atoms: C_6  and  C_24
REMARK    2  A    between atoms: C_7  and  N_9
REMARK    3  A    between atoms: C_10  and  C_12
REMARK    4  A    between atoms: C_12  and  N_13
REMARK                            x       y       z     vdW  Elec       q    Type
REMARK                         _______ _______ _______ _____ _____    ______ ____
ROOT
ATOM      1  N   UNL     1      -1.119   2.575   0.022  0.00  0.00    -0.278 N 
ATOM      2  C   UNL     1      -2.366   2.062   0.026  0.00  0.00    +0.236 C 
ATOM      3  O   UNL     1      -2.527   0.860   0.020  0.00  0.00    -0.274 OA
ATOM      4  H   UNL     1      -0.991   3.537   0.026  0.00  0.00    +0.155 HD
ENDROOT
BRANCH   1  11
ATOM      5  C   UNL     1       4.473  -0.121   0.416  0.00  0.00    +0.005 C 
ATOM      6  C   UNL     1       3.951  -1.292  -0.422  0.00  0.00    +0.005 C 
ATOM      7  C   UNL     1       2.492  -1.568  -0.031  0.00  0.00    +0.043 C 
ATOM      8  C   UNL     1       1.753  -0.266  -0.016  0.00  0.00    -0.004 A 
ATOM      9  C   UNL     1       2.288   0.974  -0.014  0.00  0.00    -0.023 A 
ATOM     10  C   UNL     1       1.325   2.063   0.001  0.00  0.00    +0.068 A 
ATOM     11  C   UNL     1      -0.021   1.728   0.011  0.00  0.00    +0.084 A 
ATOM     12  S   UNL     1       0.002  -0.004   0.002  0.00  0.00    -0.077 S 
ATOM     13  C   UNL     1       3.798   1.178  -0.027  0.00  0.00    +0.037 C 
BRANCH  10  14
ATOM     14  C   UNL     1       1.761   3.463   0.004  0.00  0.00    +0.244 C 
ATOM     15  O   UNL     1       1.952   4.038   1.059  0.00  0.00    -0.270 OA
ATOM     16  N   UNL     1       1.950   4.113  -1.162  0.00  0.00    -0.325 N 
ATOM     17  H   UNL     1       1.797   3.654  -2.003  0.00  0.00    +0.145 HD
ATOM     18  H   UNL     1       2.238   5.039  -1.160  0.00  0.00    +0.145 HD
ENDBRANCH  10  14
ENDBRANCH   1  11
BRANCH   2  19
ATOM     19  C   UNL     1      -3.559   2.983   0.037  0.00  0.00    +0.214 C 
BRANCH  19  20
ATOM     20  N   UNL     1      -4.789   2.187   0.039  0.00  0.00    -0.215 N 
ATOM     21  C   UNL     1      -5.421   1.769   1.157  0.00  0.00    +0.247 C 
ATOM     22  O   UNL     1      -5.093   1.971   2.307  0.00  0.00    -0.273 OA
ATOM     23  C   UNL     1      -6.621   0.997   0.671  0.00  0.00    +0.113 C 
ATOM     24  C   UNL     1      -7.925   1.628   1.179  0.00  0.00    +0.035 C 
ATOM     25  C   UNL     1      -8.858   0.413   1.423  0.00  0.00    +0.003 C 
ATOM     26  C   UNL     1      -7.887  -0.662   1.974  0.00  0.00    +0.003 C 
ATOM     27  C   UNL     1      -6.588  -0.451   1.165  0.00  0.00    +0.035 C 
ATOM     28  N   UNL     1      -6.534   1.066  -0.789  0.00  0.00    -0.285 N 
ATOM     29  C   UNL     1      -5.431   1.789  -1.067  0.00  0.00    +0.310 C 
ATOM     30  O   UNL     1      -5.058   2.047  -2.195  0.00  0.00    -0.252 OA
ATOM     31  H   UNL     1      -7.149   0.673  -1.428  0.00  0.00    +0.151 HD
ENDBRANCH  19  20
ENDBRANCH   2  19
TORSDOF 4
