REMARK  Name = ZINC02143057
REMARK  12 active torsions:
REMARK  status: ('A' for Active; 'I' for Inactive)
REMARK    1  A    between atoms: C_1  and  C_2
REMARK    2  A    between atoms: C_2  and  O_3
REMARK    3  A    between atoms: O_3  and  C_4
REMARK    4  A    between atoms: C_4  and  C_6
REMARK    5  A    between atoms: C_6  and  C_8
REMARK    6  A    between atoms: C_6  and  O_9
REMARK    7  A    between atoms: O_9  and  C_10
REMARK    8  A    between atoms: C_13  and  C_16
REMARK    9  A    between atoms: C_18  and  C_30
REMARK   10  A    between atoms: C_19  and  C_24
REMARK   11  A    between atoms: N_32  and  C_33
REMARK   12  A    between atoms: C_36  and  C_39
REMARK                            x       y       z     vdW  Elec       q    Type
REMARK                         _______ _______ _______ _____ _____    ______ ____
ROOT
ATOM      1  C   UNL     1      -6.974   8.129   4.613  0.00  0.00    +0.139 C 
ATOM      2  C   UNL     1      -7.386   7.113   3.567  0.00  0.00    +0.061 C 
ATOM      3  C   UNL     1      -8.259   6.134   3.945  0.00  0.00    +0.050 C 
ATOM      4  N   UNL     1      -8.741   6.080   5.231  0.00  0.00    -0.296 N 
ATOM      5  C   UNL     1      -8.403   6.956   6.185  0.00  0.00    +0.135 C 
ATOM      6  S   UNL     1      -9.076   6.775   7.748  0.00  0.00    -0.019 S 
ATOM      7  N   UNL     1      -7.552   7.975   5.958  0.00  0.00    -0.315 N 
ATOM      8  H   UNL     1      -9.443   5.285   5.522  0.00  0.00    +0.154 HD
ATOM      9  H   UNL     1      -7.286   8.686   6.755  0.00  0.00    +0.149 HD
ENDROOT
BRANCH   1  13
ATOM     10  C   UNL     1      -2.719   7.984   4.984  0.00  0.00    +0.122 A 
ATOM     11  C   UNL     1      -3.498   6.965   5.514  0.00  0.00    +0.046 A 
ATOM     12  C   UNL     1      -4.874   7.018   5.398  0.00  0.00    +0.009 A 
ATOM     13  C   UNL     1      -5.474   8.077   4.744  0.00  0.00    -0.022 A 
ATOM     14  C   UNL     1      -4.699   9.091   4.209  0.00  0.00    +0.009 A 
ATOM     15  C   UNL     1      -3.324   9.046   4.328  0.00  0.00    +0.046 A 
BRANCH  10  16
ATOM     16  O   UNL     1      -1.366   7.937   5.102  0.00  0.00    -0.478 OA
BRANCH  16  17
ATOM     17  C   UNL     1      -0.805   6.758   5.682  0.00  0.00    +0.278 C 
ATOM     18  C   UNL     1      -0.824   6.882   7.207  0.00  0.00    +0.064 C 
BRANCH  17  19
ATOM     19  C   UNL     1       0.616   6.592   5.209  0.00  0.00    +0.348 C 
ATOM     20  O   UNL     1       1.129   7.447   4.525  0.00  0.00    -0.247 OA
BRANCH  19  21
ATOM     21  O   UNL     1       1.312   5.496   5.546  0.00  0.00    -0.462 OA
BRANCH  21  23
ATOM     22  C   UNL     1       3.304   4.094   5.539  0.00  0.00    +0.048 C 
ATOM     23  C   UNL     1       2.675   5.403   5.055  0.00  0.00    +0.229 C 
ENDBRANCH  21  23
ENDBRANCH  19  21
ENDBRANCH  17  19
ENDBRANCH  16  17
ENDBRANCH  10  16
ENDBRANCH   1  13
BRANCH   3  24
ATOM     24  C   UNL     1      -8.690   5.121   2.960  0.00  0.00    -0.003 A 
ATOM     25  C   UNL     1      -8.619   3.762   3.275  0.00  0.00    +0.010 A 
ATOM     26  C   UNL     1      -9.028   2.821   2.353  0.00  0.00    +0.001 A 
ATOM     27  C   UNL     1      -9.498   3.221   1.114  0.00  0.00    +0.000 A 
ATOM     28  C   UNL     1      -9.567   4.566   0.794  0.00  0.00    +0.001 A 
ATOM     29  C   UNL     1      -9.166   5.517   1.708  0.00  0.00    +0.010 A 
ENDBRANCH   3  24
BRANCH   2  30
ATOM     30  C   UNL     1      -6.886   7.176   2.250  0.00  0.00    +0.248 C 
ATOM     31  O   UNL     1      -7.278   8.044   1.490  0.00  0.00    -0.270 OA
ATOM     32  N   UNL     1      -5.973   6.277   1.831  0.00  0.00    -0.282 N 
ATOM     33  H   UNL     1      -5.695   5.434   2.480  0.00  0.00    +0.155 HD
BRANCH  32  34
ATOM     34  C   UNL     1      -5.379   6.417   0.573  0.00  0.00    +0.034 A 
ATOM     35  C   UNL     1      -5.144   7.683   0.051  0.00  0.00    +0.023 A 
ATOM     36  C   UNL     1      -4.553   7.817  -1.190  0.00  0.00    +0.005 A 
ATOM     37  C   UNL     1      -4.205   6.694  -1.917  0.00  0.00    -0.050 A 
ATOM     38  C   UNL     1      -4.443   5.432  -1.403  0.00  0.00    +0.005 A 
ATOM     39  C   UNL     1      -5.029   5.291  -0.160  0.00  0.00    +0.023 A 
ATOM     40  C   UNL     1      -3.566   6.844  -3.273  0.00  0.00    +0.044 C 
ENDBRANCH  32  34
ENDBRANCH   2  30
TORSDOF 9
