REMARK  Name = ZINC33121158
REMARK  12 active torsions:
REMARK  status: ('A' for Active; 'I' for Inactive)
REMARK    1  A    between atoms: C_1  and  C_2
REMARK    2  A    between atoms: C_2  and  C_3
REMARK    3  A    between atoms: C_2  and  C_4
REMARK    4  A    between atoms: C_4  and  N_5
REMARK    5  A    between atoms: C_6  and  C_8
REMARK    6  A    between atoms: C_10  and  N_20
REMARK    7  A    between atoms: C_13  and  N_14
REMARK    8  A    between atoms: N_20  and  S_21
REMARK    9  A    between atoms: S_21  and  C_24
REMARK   10  A    between atoms: C_27  and  C_30
REMARK   11  A    between atoms: C_30  and  C_31
REMARK   12  A    between atoms: C_30  and  C_32
REMARK                            x       y       z     vdW  Elec       q    Type
REMARK                         _______ _______ _______ _____ _____    ______ ____
ROOT
ATOM      1  C   UNL     1       2.341   4.275  -1.112  0.00  0.00    +0.059 A 
ATOM      2  C   UNL     1       1.164   3.550  -0.910  0.00  0.00    +0.039 A 
ATOM      3  C   UNL     1       1.194   2.382  -0.168  0.00  0.00    +0.049 A 
ATOM      4  C   UNL     1       2.391   1.932   0.381  0.00  0.00    +0.026 A 
ATOM      5  C   UNL     1       3.558   2.638   0.181  0.00  0.00    +0.026 A 
ATOM      6  C   UNL     1       3.545   3.812  -0.561  0.00  0.00    +0.042 A 
ENDROOT
BRANCH   6   7
ATOM      7  N   UNL     1       4.723   4.528  -0.756  0.00  0.00    -0.333 N 
ATOM      8  C   UNL     1       5.318   4.923   0.528  0.00  0.00    +0.086 C 
ATOM      9  C   UNL     1       6.564   5.773   0.269  0.00  0.00    -0.063 C 
ATOM     10  N   UNL     1       7.521   5.002  -0.536  0.00  0.00    +0.381 N 
ATOM     11  C   UNL     1       6.926   4.607  -1.821  0.00  0.00    -0.063 C 
ATOM     12  C   UNL     1       5.680   3.757  -1.562  0.00  0.00    +0.086 C 
ATOM     13  H   UNL     1       8.412   5.616  -0.734  0.00  0.00    -0.086 HD
ATOM     14  H   UNL     1       7.815   4.095   0.012  0.00  0.00    -0.086 HD
ENDBRANCH   6   7
BRANCH   1  16
ATOM     15  N   UNL     1       1.185   5.904  -2.522  0.00  0.00    -0.311 N 
ATOM     16  C   UNL     1       2.318   5.521  -1.901  0.00  0.00    +0.246 C 
ATOM     17  O   UNL     1       3.320   6.202  -1.991  0.00  0.00    -0.270 OA
ATOM     18  H   UNL     1       0.277   5.287  -2.441  0.00  0.00    +0.149 HD
BRANCH  15  19
ATOM     19  C   UNL     1       1.161   7.141  -3.306  0.00  0.00    +0.107 C 
BRANCH  19  21
ATOM     20  C   UNL     1      -1.244   7.558  -2.772  0.00  0.00    +0.009 C 
ATOM     21  C   UNL     1      -0.234   7.341  -3.901  0.00  0.00    -0.000 C 
ATOM     22  C   UNL     1      -0.226   8.565  -4.819  0.00  0.00    +0.009 C 
ENDBRANCH  19  21
ENDBRANCH  15  19
ENDBRANCH   1  16
BRANCH   3  23
ATOM     23  N   UNL     1       0.015   1.654   0.035  0.00  0.00    -0.216 N 
ATOM     24  H   UNL     1      -0.911   2.175   0.320  0.00  0.00    +0.174 HD
BRANCH  23  25
ATOM     25  S   UNL     1       0.015   0.009  -0.153  0.00  0.00    +0.072 S 
ATOM     26  O   UNL     1       1.096  -0.489   0.624  0.00  0.00    -0.150 OA
ATOM     27  O   UNL     1      -1.325  -0.422   0.041  0.00  0.00    -0.150 OA
BRANCH  25  28
ATOM     28  C   UNL     1       0.411  -0.323  -1.838  0.00  0.00    +0.109 A 
ATOM     29  C   UNL     1      -0.585  -0.316  -2.796  0.00  0.00    +0.029 A 
ATOM     30  C   UNL     1      -0.274  -0.572  -4.119  0.00  0.00    +0.006 A 
ATOM     31  C   UNL     1       1.032  -0.843  -4.481  0.00  0.00    -0.045 A 
ATOM     32  C   UNL     1       2.028  -0.856  -3.522  0.00  0.00    +0.006 A 
ATOM     33  C   UNL     1       1.717  -0.596  -2.200  0.00  0.00    +0.029 A 
BRANCH  31  34
ATOM     34  C   UNL     1       1.371  -1.126  -5.922  0.00  0.00    +0.013 C 
ATOM     35  C   UNL     1       0.593  -2.354  -6.397  0.00  0.00    +0.012 C 
ATOM     36  C   UNL     1       0.993   0.082  -6.781  0.00  0.00    +0.012 C 
ENDBRANCH  31  34
ENDBRANCH  25  28
ENDBRANCH  23  25
ENDBRANCH   3  23
TORSDOF 8
