REMARK  Name = ZINC46895148
REMARK  10 active torsions:
REMARK  status: ('A' for Active; 'I' for Inactive)
REMARK    1  A    between atoms: C_1  and  C_2
REMARK    2  A    between atoms: C_4  and  O_11
REMARK    3  A    between atoms: C_7  and  C_8
REMARK    4  A    between atoms: C_8  and  C_9
REMARK    5  A    between atoms: C_8  and  C_10
REMARK    6  A    between atoms: O_11  and  C_12
REMARK    7  A    between atoms: C_12  and  C_14
REMARK    8  A    between atoms: C_12  and  C_15
REMARK    9  A    between atoms: N_17  and  N_18
REMARK   10  A    between atoms: C_19  and  C_21
REMARK                            x       y       z     vdW  Elec       q    Type
REMARK                         _______ _______ _______ _____ _____    ______ ____
ROOT
ATOM      1  C   UNL     1       1.131  -4.583  -3.626  0.00  0.00    +0.270 C 
ATOM      2  O   UNL     1       1.407  -3.760  -4.473  0.00  0.00    -0.270 OA
ATOM      3  N   UNL     1       1.435  -5.881  -3.822  0.00  0.00    -0.231 N 
ATOM      4  H   UNL     1       1.213  -6.539  -3.145  0.00  0.00    +0.173 HD
ENDROOT
BRANCH   3   5
ATOM      5  N   UNL     1       2.070  -6.280  -5.005  0.00  0.00    -0.230 N 
ATOM      6  C   UNL     1       2.374  -7.579  -5.202  0.00  0.00    +0.261 C 
ATOM      7  O   UNL     1       2.097  -8.403  -4.353  0.00  0.00    -0.269 OA
ATOM      8  H   UNL     1       2.292  -5.623  -5.683  0.00  0.00    +0.173 HD
BRANCH   6   9
ATOM      9  C   UNL     1       3.045  -8.000  -6.450  0.00  0.00    +0.052 A 
ATOM     10  C   UNL     1       3.370  -7.055  -7.425  0.00  0.00    +0.014 A 
ATOM     11  C   UNL     1       3.996  -7.455  -8.587  0.00  0.00    +0.001 A 
ATOM     12  C   UNL     1       4.302  -8.789  -8.788  0.00  0.00    +0.001 A 
ATOM     13  C   UNL     1       3.983  -9.731  -7.828  0.00  0.00    +0.016 A 
ATOM     14  C   UNL     1       3.361  -9.344  -6.657  0.00  0.00    +0.030 A 
ATOM     15 BR   UNL     1       2.932 -10.633  -5.340  0.00  0.00    -0.050 Br
ENDBRANCH   6   9
ENDBRANCH   3   5
BRANCH   1  16
ATOM     16  C   UNL     1       0.447  -4.153  -2.353  0.00  0.00    +0.257 C 
ATOM     17  C   UNL     1      -0.899  -4.871  -2.230  0.00  0.00    +0.062 C 
BRANCH  16  18
ATOM     18  O   UNL     1       0.233  -2.741  -2.381  0.00  0.00    -0.480 OA
BRANCH  18  22
ATOM     19  C   UNL     1      -0.018  -3.003   2.486  0.00  0.00    +0.044 C 
ATOM     20  C   UNL     1       0.001  -2.202   1.209  0.00  0.00    -0.044 A 
ATOM     21  C   UNL     1       0.109  -2.847  -0.008  0.00  0.00    +0.049 A 
ATOM     22  C   UNL     1       0.126  -2.109  -1.183  0.00  0.00    +0.122 A 
ATOM     23  C   UNL     1       0.035  -0.726  -1.132  0.00  0.00    +0.046 A 
ATOM     24  C   UNL     1      -0.073  -0.086   0.088  0.00  0.00    +0.008 A 
ATOM     25  C   UNL     1      -0.096  -0.824   1.257  0.00  0.00    -0.042 A 
BRANCH  25  26
ATOM     26  C   UNL     1      -0.220  -0.124   2.586  0.00  0.00    +0.013 C 
ATOM     27  C   UNL     1       1.008   0.759   2.814  0.00  0.00    +0.012 C 
ATOM     28  C   UNL     1      -1.480   0.744   2.589  0.00  0.00    +0.012 C 
ENDBRANCH  25  26
ENDBRANCH  18  22
ENDBRANCH  16  18
ENDBRANCH   1  16
TORSDOF 6
