REMARK  Name = ZINC39937099
REMARK  7 active torsions:
REMARK  status: ('A' for Active; 'I' for Inactive)
REMARK    1  A    between atoms: C_1  and  C_2
REMARK    2  A    between atoms: C_13  and  C_15
REMARK    3  A    between atoms: N_17  and  C_18
REMARK    4  A    between atoms: C_18  and  C_19
REMARK    5  A    between atoms: C_18  and  C_20
REMARK    6  A    between atoms: C_18  and  C_21
REMARK    7  A    between atoms: C_28  and  C_34
REMARK                            x       y       z     vdW  Elec       q    Type
REMARK                         _______ _______ _______ _____ _____    ______ ____
ROOT
ATOM      1  C   UNL     1       0.042   1.547   0.013  0.00  0.00    +0.012 C 
ATOM      2  C   UNL     1       0.031   0.019   0.012  0.00  0.00    -0.018 C 
ATOM      3  C   UNL     1      -1.382  -0.515   0.087  0.00  0.00    +0.008 C 
ATOM      4  C   UNL     1      -1.696  -0.930   1.533  0.00  0.00    +0.005 C 
ATOM      5  C   UNL     1      -1.085   0.071   2.507  0.00  0.00    +0.004 C 
ATOM      6  C   UNL     1       0.427  -0.021   2.511  0.00  0.00    -0.003 C 
ATOM      7  C   UNL     1       0.876  -0.567   1.162  0.00  0.00    -0.001 C 
ATOM      8  C   UNL     1       2.301  -0.158   0.755  0.00  0.00    +0.005 C 
ATOM      9  C   UNL     1       2.304  -0.334  -0.786  0.00  0.00    +0.013 C 
ATOM     10  C   UNL     1       0.824  -0.463  -1.218  0.00  0.00    +0.081 C 
ATOM     11  C   UNL     1       1.003  -0.925   3.590  0.00  0.00    +0.006 C 
ATOM     12  C   UNL     1       0.330  -0.775   4.945  0.00  0.00    +0.023 C 
ATOM     13  C   UNL     1      -1.170  -0.990   4.785  0.00  0.00    +0.083 C 
ATOM     14  C   UNL     1      -1.750   0.064   3.857  0.00  0.00    +0.008 C 
ATOM     15  C   UNL     1      -3.243  -0.119   3.760  0.00  0.00    -0.013 C 
ATOM     16  C   UNL     1      -3.919  -0.526   4.837  0.00  0.00    +0.063 C 
ATOM     17  C   UNL     1      -3.203  -0.804   6.094  0.00  0.00    +0.237 C 
ATOM     18  O   UNL     1      -3.815  -0.926   7.137  0.00  0.00    -0.271 OA
ATOM     19  N   UNL     1      -1.859  -0.956   6.075  0.00  0.00    -0.308 N 
ATOM     20  C   UNL     1      -1.521   1.446   4.484  0.00  0.00    +0.017 C 
ATOM     21  H   UNL     1      -1.362  -1.041   6.902  0.00  0.00    +0.149 HD
ENDROOT
BRANCH  10  22
ATOM     22  C   UNL     1       0.539   0.427  -2.396  0.00  0.00    +0.217 C 
ATOM     23  O   UNL     1       1.265   1.370  -2.633  0.00  0.00    -0.275 OA
ATOM     24  N   UNL     1      -0.523   0.179  -3.188  0.00  0.00    -0.300 N 
ATOM     25  H   UNL     1      -1.104  -0.575  -2.998  0.00  0.00    +0.150 HD
BRANCH  24  26
ATOM     26  C   UNL     1      -0.800   1.047  -4.335  0.00  0.00    +0.130 C 
ATOM     27  C   UNL     1      -1.030   2.479  -3.847  0.00  0.00    +0.043 C 
ATOM     28  C   UNL     1       0.391   1.020  -5.295  0.00  0.00    +0.043 C 
BRANCH  26  29
ATOM     29  C   UNL     1      -2.033   0.556  -5.050  0.00  0.00    +0.378 C 
ATOM     30  O   UNL     1      -2.624  -0.428  -4.639  0.00  0.00    -0.244 OA
ATOM     31  O   UNL     1      -2.438   1.142  -6.039  0.00  0.00    -0.244 OA
ENDBRANCH  26  29
ENDBRANCH  24  26
ENDBRANCH  10  22
TORSDOF 3
