REMARK  Name = ZINC04819760
REMARK  7 active torsions:
REMARK  status: ('A' for Active; 'I' for Inactive)
REMARK    1  A    between atoms: C_1  and  C_2
REMARK    2  A    between atoms: C_5  and  C_31
REMARK    3  A    between atoms: C_9  and  C_11
REMARK    4  A    between atoms: C_16  and  N_17
REMARK    5  A    between atoms: N_17  and  C_18
REMARK    6  A    between atoms: C_18  and  C_19
REMARK    7  A    between atoms: C_19  and  O_20
REMARK                            x       y       z     vdW  Elec       q    Type
REMARK                         _______ _______ _______ _____ _____    ______ ____
ROOT
ATOM      1  C   UNL     1      -6.322   3.268  -0.065  0.00  0.00    +0.058 A 
ATOM      2  C   UNL     1      -6.050   1.914  -0.252  0.00  0.00    +0.015 A 
ATOM      3  C   UNL     1      -4.841   1.510  -0.787  0.00  0.00    +0.013 A 
ATOM      4  C   UNL     1      -3.881   2.451  -1.148  0.00  0.00    +0.035 A 
ATOM      5  C   UNL     1      -4.138   3.822  -0.967  0.00  0.00    +0.055 A 
ATOM      6  C   UNL     1      -5.363   4.233  -0.423  0.00  0.00    +0.051 A 
ATOM      7  C   UNL     1      -3.125   4.820  -1.347  0.00  0.00    +0.196 C 
ATOM      8  O   UNL     1      -3.350   6.005  -1.190  0.00  0.00    -0.287 OA
ATOM      9  C   UNL     1      -1.834   4.383  -1.920  0.00  0.00    +0.033 A 
ATOM     10  C   UNL     1      -0.872   5.321  -2.280  0.00  0.00    +0.012 A 
ATOM     11  C   UNL     1       0.334   4.903  -2.816  0.00  0.00    +0.001 A 
ATOM     12  C   UNL     1       0.591   3.556  -2.994  0.00  0.00    +0.001 A 
ATOM     13  C   UNL     1      -0.355   2.609  -2.642  0.00  0.00    +0.012 A 
ATOM     14  C   UNL     1      -1.576   3.013  -2.107  0.00  0.00    +0.033 A 
ATOM     15  C   UNL     1      -2.589   2.010  -1.721  0.00  0.00    +0.195 C 
ATOM     16  O   UNL     1      -2.365   0.827  -1.879  0.00  0.00    -0.287 OA
ENDROOT
BRANCH   1  23
ATOM     17  C   UNL     1      -9.862   4.605   1.692  0.00  0.00    +0.026 C 
ATOM     18  C   UNL     1     -10.060   3.530   0.621  0.00  0.00    +0.056 C 
ATOM     19  C   UNL     1     -11.006   4.054  -0.465  0.00  0.00    -0.060 C 
ATOM     20  C   UNL     1      -9.761   2.918  -2.208  0.00  0.00    -0.057 C 
ATOM     21  C   UNL     1      -8.764   2.353  -1.198  0.00  0.00    +0.092 C 
ATOM     22  N   UNL     1      -8.767   3.209  -0.001  0.00  0.00    -0.298 N 
ATOM     23  C   UNL     1      -7.615   3.690   0.508  0.00  0.00    +0.249 C 
ATOM     24  O   UNL     1      -7.642   4.472   1.438  0.00  0.00    -0.270 OA
ATOM     25  C   UNL     1      -9.890   1.958  -3.392  0.00  0.00    -0.012 C 
ATOM     26  N   UNL     1     -11.081   3.075  -1.567  0.00  0.00    +0.383 N 
ATOM     27  H   UNL     1     -11.759   3.403  -2.265  0.00  0.00    -0.085 HD
ATOM     28  H   UNL     1     -11.386   2.168  -1.195  0.00  0.00    -0.085 HD
ENDBRANCH   1  23
BRANCH   6  29
ATOM     29  N   UNL     1      -5.626   5.575  -0.241  0.00  0.00    -0.341 N 
ATOM     30  H   UNL     1      -6.057   5.741   0.656  0.00  0.00    +0.146 HD
BRANCH  29  31
ATOM     31  C   UNL     1      -6.460   6.101  -1.331  0.00  0.00    +0.129 C 
BRANCH  31  32
ATOM     32  C   UNL     1      -6.643   7.609  -1.151  0.00  0.00    +0.174 C 
BRANCH  32  33
ATOM     33  O   UNL     1      -5.380   8.262  -1.293  0.00  0.00    -0.393 OA
ATOM     34  H   UNL     1      -5.421   9.223  -1.191  0.00  0.00    +0.209 HD
ENDBRANCH  32  33
ENDBRANCH  31  32
ENDBRANCH  29  31
ENDBRANCH   6  29
TORSDOF 5
