REMARK  Name = ZINC53530203
REMARK  9 active torsions:
REMARK  status: ('A' for Active; 'I' for Inactive)
REMARK    1  A    between atoms: C_1  and  C_2
REMARK    2  A    between atoms: C_2  and  C_4
REMARK    3  A    between atoms: C_2  and  N_14
REMARK    4  A    between atoms: N_17  and  C_18
REMARK    5  A    between atoms: C_18  and  C_19
REMARK    6  A    between atoms: C_19  and  C_21
REMARK    7  A    between atoms: C_19  and  N_26
REMARK    8  A    between atoms: N_26  and  C_27
REMARK    9  A    between atoms: N_26  and  C_28
REMARK                            x       y       z     vdW  Elec       q    Type
REMARK                         _______ _______ _______ _____ _____    ______ ____
ROOT
ATOM      1  N   UNL     1      -2.180  -0.262   0.830  0.00  0.00    -0.293 N 
ATOM      2  C   UNL     1      -2.576  -0.532  -0.430  0.00  0.00    +0.300 C 
ATOM      3  O   UNL     1      -1.806  -0.374  -1.357  0.00  0.00    -0.253 OA
ATOM      4  N   UNL     1      -3.827  -0.977  -0.661  0.00  0.00    -0.301 N 
ATOM      5  H   UNL     1      -2.794  -0.388   1.569  0.00  0.00    +0.151 HD
ATOM      6  H   UNL     1      -4.442  -1.103   0.078  0.00  0.00    +0.150 HD
ENDROOT
BRANCH   1   8
ATOM      7  C   UNL     1      -0.777   1.741   0.899  0.00  0.00    +0.033 C 
ATOM      8  C   UNL     1      -0.820   0.222   1.082  0.00  0.00    +0.102 C 
BRANCH   8   9
ATOM      9  C   UNL     1      -0.416  -0.126   2.491  0.00  0.00    -0.024 A 
ATOM     10  C   UNL     1      -1.334  -0.015   3.519  0.00  0.00    +0.009 A 
ATOM     11  C   UNL     1      -0.967  -0.332   4.813  0.00  0.00    +0.050 A 
ATOM     12  C   UNL     1       0.324  -0.762   5.084  0.00  0.00    +0.162 A 
ATOM     13  C   UNL     1       1.246  -0.875   4.050  0.00  0.00    +0.162 A 
ATOM     14  C   UNL     1       0.870  -0.560   2.753  0.00  0.00    +0.055 A 
ATOM     15  O   UNL     1       2.515  -1.303   4.293  0.00  0.00    -0.485 OA
ATOM     16  C   UNL     1       2.960  -1.258   5.653  0.00  0.00    +0.270 C 
ATOM     17  C   UNL     1       1.857  -1.851   6.540  0.00  0.00    +0.270 C 
ATOM     18  O   UNL     1       0.672  -1.067   6.364  0.00  0.00    -0.485 OA
ENDBRANCH   8   9
ENDBRANCH   1   8
BRANCH   4  19
ATOM     19  C   UNL     1      -4.258  -1.270  -2.030  0.00  0.00    +0.095 C 
BRANCH  19  20
ATOM     20  C   UNL     1      -5.663  -1.877  -2.004  0.00  0.00    -0.014 C 
BRANCH  20  21
ATOM     21  C   UNL     1      -5.620  -3.213  -1.308  0.00  0.00    -0.022 A 
ATOM     22  C   UNL     1      -5.964  -3.525  -0.035  0.00  0.00    +0.009 A 
ATOM     23  C   UNL     1      -5.842  -4.834   0.392  0.00  0.00    +0.008 A 
ATOM     24  C   UNL     1      -5.380  -5.768  -0.476  0.00  0.00    +0.045 A 
ATOM     25  S   UNL     1      -5.108  -4.799  -1.951  0.00  0.00    -0.103 S 
ENDBRANCH  20  21
BRANCH  20  26
ATOM     26  N   UNL     1      -6.145  -2.056  -3.380  0.00  0.00    +0.382 N 
ATOM     27  C   UNL     1      -7.463  -2.704  -3.356  0.00  0.00    -0.096 C 
ATOM     28  C   UNL     1      -6.255  -0.746  -4.035  0.00  0.00    -0.096 C 
ATOM     29  H   UNL     1      -5.495  -2.634  -3.891  0.00  0.00    -0.082 HD
ENDBRANCH  20  26
ENDBRANCH  19  20
ENDBRANCH   4  19
TORSDOF 6
