REMARK  Name = ZINC04501943
REMARK  5 active torsions:
REMARK  status: ('A' for Active; 'I' for Inactive)
REMARK    1  A    between atoms: C_1  and  C_2
REMARK    2  A    between atoms: C_3  and  C_27
REMARK    3  A    between atoms: C_10  and  C_13
REMARK    4  A    between atoms: C_16  and  C_18
REMARK    5  A    between atoms: C_21  and  N_24
REMARK                            x       y       z     vdW  Elec       q    Type
REMARK                         _______ _______ _______ _____ _____    ______ ____
ROOT
ATOM      1  C   UNL     1       0.827   4.354  -5.084  0.00  0.00    +0.045 C 
ATOM      2  C   UNL     1       1.956   3.881  -4.205  0.00  0.00    -0.027 A 
ATOM      3  C   UNL     1       3.111   3.436  -4.734  0.00  0.00    -0.008 A 
ATOM      4  S   UNL     1       4.084   3.008  -3.301  0.00  0.00    -0.078 S 
ATOM      5  C   UNL     1       2.963   3.414  -2.074  0.00  0.00    +0.080 A 
ATOM      6  C   UNL     1       1.837   3.889  -2.767  0.00  0.00    +0.068 A 
ATOM      7  C   UNL     1       0.681   4.341  -1.959  0.00  0.00    +0.248 C 
ATOM      8  O   UNL     1      -0.259   4.924  -2.469  0.00  0.00    -0.270 OA
ATOM      9  N   UNL     1       0.711   4.082  -0.635  0.00  0.00    -0.287 N 
ATOM     10  C   UNL     1       1.728   3.252   0.002  0.00  0.00    +0.227 C 
ATOM     11  N   UNL     1       3.018   3.344  -0.706  0.00  0.00    -0.314 N 
ATOM     12  C   UNL     1       3.492   3.326  -6.188  0.00  0.00    +0.052 C 
ATOM     13  H   UNL     1       0.019   4.469  -0.076  0.00  0.00    +0.151 HD
ATOM     14  H   UNL     1       3.862   3.355  -0.228  0.00  0.00    +0.149 HD
ENDROOT
BRANCH  10  15
ATOM     15  C   UNL     1       1.266   1.817  -0.000  0.00  0.00    +0.144 A 
ATOM     16  C   UNL     1      -0.017   1.405   0.010  0.00  0.00    +0.049 A 
ATOM     17  C   UNL     1       0.002  -0.004   0.002  0.00  0.00    +0.050 A 
ATOM     18  C   UNL     1       1.309  -0.378  -0.013  0.00  0.00    +0.135 A 
ATOM     19  O   UNL     1       2.064   0.737  -0.014  0.00  0.00    -0.456 OA
BRANCH  18  20
ATOM     20  C   UNL     1       1.814  -1.767  -0.025  0.00  0.00    +0.017 A 
ATOM     21  C   UNL     1       0.919  -2.838  -0.016  0.00  0.00    +0.014 A 
ATOM     22  C   UNL     1       1.396  -4.132  -0.032  0.00  0.00    +0.033 A 
ATOM     23  C   UNL     1       2.759  -4.370  -0.047  0.00  0.00    +0.126 A 
ATOM     24  C   UNL     1       3.652  -3.312  -0.050  0.00  0.00    +0.033 A 
ATOM     25  C   UNL     1       3.188  -2.014  -0.039  0.00  0.00    +0.014 A 
BRANCH  23  26
ATOM     26  N   UNL     1       3.265  -5.761  -0.059  0.00  0.00    +0.056 N 
ATOM     27  O   UNL     1       4.464  -5.973  -0.071  0.00  0.00    -0.126 OA
ATOM     28  O   UNL     1       2.482  -6.694  -0.056  0.00  0.00    -0.126 OA
ENDBRANCH  23  26
ENDBRANCH  18  20
ENDBRANCH  10  15
TORSDOF 3
