REMARK  Name = ZINC05343433
REMARK  10 active torsions:
REMARK  status: ('A' for Active; 'I' for Inactive)
REMARK    1  A    between atoms: C_1  and  C_2
REMARK    2  A    between atoms: C_4  and  C_31
REMARK    3  A    between atoms: C_5  and  O_30
REMARK    4  A    between atoms: C_6  and  C_8
REMARK    5  A    between atoms: N_16  and  C_27
REMARK    6  A    between atoms: C_17  and  C_19
REMARK    7  A    between atoms: C_22  and  O_25
REMARK    8  A    between atoms: O_25  and  C_26
REMARK    9  A    between atoms: C_27  and  C_28
REMARK   10  A    between atoms: C_28  and  O_29
REMARK                            x       y       z     vdW  Elec       q    Type
REMARK                         _______ _______ _______ _____ _____    ______ ____
ROOT
ATOM      1  C   UNL     1      -0.006  -2.912   2.429  0.00  0.00    +0.075 A 
ATOM      2  C   UNL     1       1.076  -3.544   2.952  0.00  0.00    +0.035 A 
ATOM      3  C   UNL     1       0.585  -4.352   4.003  0.00  0.00    +0.153 A 
ATOM      4  N   UNL     1      -0.719  -4.167   4.051  0.00  0.00    -0.168 NA
ATOM      5  N   UNL     1      -1.089  -3.329   3.150  0.00  0.00    -0.276 N 
ATOM      6  H   UNL     1      -2.002  -3.038   3.001  0.00  0.00    +0.189 HD
ATOM      7  C   UNL     1       1.731  -5.059   4.603  0.00  0.00    +0.268 C 
ATOM      8  O   UNL     1       1.655  -5.838   5.534  0.00  0.00    -0.268 OA
ATOM      9  N   UNL     1       2.871  -4.723   3.976  0.00  0.00    -0.283 N 
ATOM     10  C   UNL     1       2.564  -3.764   2.909  0.00  0.00    +0.141 C 
ENDROOT
BRANCH   1  16
ATOM     11  C   UNL     1      -1.303  -1.756  -2.248  0.00  0.00    +0.044 C 
ATOM     12  C   UNL     1      -0.632  -1.392  -0.949  0.00  0.00    -0.049 A 
ATOM     13  C   UNL     1      -0.019  -0.158  -0.811  0.00  0.00    +0.010 A 
ATOM     14  C   UNL     1       0.598   0.185   0.377  0.00  0.00    -0.008 A 
ATOM     15  C   UNL     1       0.608  -0.706   1.438  0.00  0.00    +0.129 A 
ATOM     16  C   UNL     1      -0.011  -1.953   1.302  0.00  0.00    +0.042 A 
ATOM     17  C   UNL     1      -0.636  -2.287   0.101  0.00  0.00    +0.017 A 
ATOM     18  C   UNL     1       1.264   1.530   0.518  0.00  0.00    +0.047 C 
BRANCH  15  19
ATOM     19  O   UNL     1       1.215  -0.369   2.606  0.00  0.00    -0.506 OA
ATOM     20  H   UNL     1       0.655   0.139   3.208  0.00  0.00    +0.292 HD
ENDBRANCH  15  19
ENDBRANCH   1  16
BRANCH  10  21
ATOM     21  C   UNL     1       2.963  -4.331   1.571  0.00  0.00    -0.022 A 
ATOM     22  C   UNL     1       2.426  -5.531   1.142  0.00  0.00    +0.009 A 
ATOM     23  C   UNL     1       2.791  -6.054  -0.084  0.00  0.00    +0.046 A 
ATOM     24  C   UNL     1       3.698  -5.374  -0.884  0.00  0.00    +0.120 A 
ATOM     25  C   UNL     1       4.235  -4.170  -0.451  0.00  0.00    +0.046 A 
ATOM     26  C   UNL     1       3.863  -3.649   0.773  0.00  0.00    +0.009 A 
BRANCH  24  27
ATOM     27  O   UNL     1       4.059  -5.886  -2.090  0.00  0.00    -0.495 OA
ATOM     28  C   UNL     1       4.997  -5.132  -2.861  0.00  0.00    +0.277 C 
ENDBRANCH  24  27
ENDBRANCH  10  21
BRANCH   9  29
ATOM     29  C   UNL     1       4.205  -5.232   4.305  0.00  0.00    +0.137 C 
BRANCH  29  30
ATOM     30  C   UNL     1       4.412  -6.591   3.634  0.00  0.00    +0.175 C 
BRANCH  30  31
ATOM     31  O   UNL     1       4.513  -6.415   2.220  0.00  0.00    -0.393 OA
ATOM     32  H   UNL     1       4.646  -7.237   1.729  0.00  0.00    +0.209 HD
ENDBRANCH  30  31
ENDBRANCH  29  30
ENDBRANCH   9  29
TORSDOF 7
