REMARK  Name = ZINC64006921
REMARK  10 active torsions:
REMARK  status: ('A' for Active; 'I' for Inactive)
REMARK    1  A    between atoms: C_1  and  C_2
REMARK    2  A    between atoms: C_7  and  C_12
REMARK    3  A    between atoms: N_17  and  C_18
REMARK    4  A    between atoms: C_18  and  C_19
REMARK    5  A    between atoms: C_22  and  S_29
REMARK    6  A    between atoms: N_24  and  C_25
REMARK    7  A    between atoms: C_25  and  C_26
REMARK    8  A    between atoms: C_26  and  C_27
REMARK    9  A    between atoms: C_26  and  C_28
REMARK   10  A    between atoms: S_29  and  C_32
REMARK                            x       y       z     vdW  Elec       q    Type
REMARK                         _______ _______ _______ _____ _____    ______ ____
ROOT
ATOM      1  C   UNL     1       0.946  -4.736   0.860  0.00  0.00    +0.099 C 
ATOM      2  C   UNL     1       0.502  -4.632   2.335  0.00  0.00    +0.024 C 
ATOM      3  C   UNL     1      -0.196  -5.995   2.586  0.00  0.00    +0.017 C 
ATOM      4  C   UNL     1       0.670  -6.953   1.731  0.00  0.00    +0.085 C 
ATOM      5  N   UNL     1       1.025  -6.169   0.524  0.00  0.00    -0.294 NA
ENDROOT
BRANCH   1  12
ATOM      6  C   UNL     1       0.809   1.326  -2.649  0.00  0.00    +0.044 C 
ATOM      7  C   UNL     1       0.690  -0.147  -2.354  0.00  0.00    -0.048 A 
ATOM      8  C   UNL     1       0.976  -1.066  -3.380  0.00  0.00    +0.005 A 
ATOM      9  C   UNL     1       0.895  -2.400  -3.204  0.00  0.00    +0.027 A 
ATOM     10  C   UNL     1       0.495  -2.936  -1.895  0.00  0.00    +0.060 A 
ATOM     11  N   UNL     1       0.336  -4.147  -1.446  0.00  0.00    -0.362 N 
ATOM     12  C   UNL     1      -0.079  -4.045  -0.042  0.00  0.00    +0.191 C 
ATOM     13  N   UNL     1      -0.141  -2.611   0.269  0.00  0.00    -0.362 N 
ATOM     14  C   UNL     1       0.194  -1.964  -0.809  0.00  0.00    +0.060 A 
ATOM     15  C   UNL     1       0.320  -0.532  -1.116  0.00  0.00    +0.030 A 
ATOM     16  H   UNL     1       0.467  -4.967  -1.948  0.00  0.00    +0.162 HD
ATOM     17  H   UNL     1      -0.385  -2.219   1.121  0.00  0.00    +0.162 HD
ENDBRANCH   1  12
BRANCH   5  18
ATOM     18  C   UNL     1       2.365  -6.523   0.038  0.00  0.00    +0.109 C 
BRANCH  18  19
ATOM     19  C   UNL     1       2.316  -7.891  -0.645  0.00  0.00    +0.115 C 
ATOM     20  C   UNL     1       1.469  -7.825  -1.897  0.00  0.00    +0.101 C 
ATOM     21  N   UNL     1       2.226  -7.775  -2.925  0.00  0.00    -0.254 NA
ATOM     22  C   UNL     1       3.640  -7.795  -2.533  0.00  0.00    +0.318 C 
ATOM     23  N   UNL     1       3.664  -8.277  -1.131  0.00  0.00    -0.254 NA
BRANCH  22  24
ATOM     24  S   UNL     1       4.569  -8.929  -3.602  0.00  0.00    +0.003 S 
ATOM     25  O   UNL     1       4.356  -8.547  -4.955  0.00  0.00    -0.171 OA
ATOM     26  O   UNL     1       5.899  -9.021  -3.111  0.00  0.00    -0.171 OA
ATOM     27  C   UNL     1       3.740 -10.518  -3.317  0.00  0.00    +0.198 C 
ENDBRANCH  22  24
BRANCH  23  28
ATOM     28  C   UNL     1       4.715  -7.600  -0.360  0.00  0.00    +0.091 C 
BRANCH  28  29
ATOM     29  C   UNL     1       4.805  -8.222   1.035  0.00  0.00    -0.003 C 
ATOM     30  C   UNL     1       5.262  -9.678   0.915  0.00  0.00    +0.008 C 
ATOM     31  C   UNL     1       5.813  -7.439   1.879  0.00  0.00    +0.008 C 
ENDBRANCH  28  29
ENDBRANCH  23  28
ENDBRANCH  18  19
ENDBRANCH   5  18
TORSDOF 6
