REMARK  Name = ZINC65508537
REMARK  5 active torsions:
REMARK  status: ('A' for Active; 'I' for Inactive)
REMARK    1  A    between atoms: C_1  and  C_2
REMARK    2  A    between atoms: C_2  and  C_3
REMARK    3  A    between atoms: C_3  and  C_4
REMARK    4  A    between atoms: C_10  and  C_12
REMARK    5  A    between atoms: C_12  and  N_13
REMARK                            x       y       z     vdW  Elec       q    Type
REMARK                         _______ _______ _______ _____ _____    ______ ____
ROOT
ATOM      1  N   UNL     1       0.215  -9.222  -1.665  0.00  0.00    +0.386 N 
ATOM      2  C   UNL     1       0.689 -10.605  -1.562  0.00  0.00    -0.073 C 
ATOM      3  C   UNL     1      -0.320 -11.578  -2.155  0.00  0.00    -0.007 C 
ATOM      4  C   UNL     1      -1.687 -11.418  -1.483  0.00  0.00    +0.011 C 
ATOM      5  C   UNL     1      -2.108  -9.953  -1.645  0.00  0.00    +0.020 C 
ATOM      6  C   UNL     1      -1.058  -9.076  -0.944  0.00  0.00    -0.069 C 
ATOM      7  C   UNL     1      -2.105  -9.597  -3.115  0.00  0.00    +0.023 A 
ATOM      8  C   UNL     1      -2.966  -8.631  -3.530  0.00  0.00    +0.022 A 
ATOM      9  C   UNL     1      -2.971  -8.208  -4.864  0.00  0.00    +0.007 A 
ATOM     10  C   UNL     1      -2.081  -8.764  -5.734  0.00  0.00    +0.070 A 
ATOM     11  C   UNL     1      -1.204  -9.756  -5.274  0.00  0.00    +0.251 A 
ATOM     12  O   UNL     1      -0.362 -10.216  -6.028  0.00  0.00    -0.268 OA
ATOM     13  N   UNL     1      -1.282 -10.209  -3.998  0.00  0.00    -0.312 N 
ATOM     14  C   UNL     1      -0.481 -11.380  -3.653  0.00  0.00    +0.126 C 
ATOM     15  H   UNL     1       0.078  -8.988  -2.637  0.00  0.00    -0.081 HD
ENDROOT
BRANCH   1  16
ATOM     16  C   UNL     1       1.214  -8.319  -1.081  0.00  0.00    +0.019 C 
BRANCH  16  23
ATOM     17  C   UNL     1       0.739  -2.004  -1.265  0.00  0.00    +0.104 A 
ATOM     18  N   UNL     1      -0.127  -2.859  -1.772  0.00  0.00    -0.145 NA
ATOM     19  N   UNL     1       0.095  -4.098  -1.662  0.00  0.00    -0.126 NA
ATOM     20  C   UNL     1       1.169  -4.561  -1.054  0.00  0.00    +0.188 A 
ATOM     21  S   UNL     1       1.948  -3.138  -0.597  0.00  0.00    -0.035 S 
ATOM     22  N   UNL     1       1.560  -5.880  -0.849  0.00  0.00    -0.265 N 
ATOM     23  C   UNL     1       0.791  -6.890  -1.303  0.00  0.00    +0.202 C 
ATOM     24  O   UNL     1      -0.242  -6.648  -1.891  0.00  0.00    -0.277 OA
ATOM     25  H   UNL     1       2.386  -6.074  -0.379  0.00  0.00    +0.157 HD
BRANCH  17  26
ATOM     26  C   UNL     1       0.718  -0.497  -1.257  0.00  0.00    +0.064 C 
BRANCH  26  28
ATOM     27  C   UNL     1      -0.019   1.526   0.010  0.00  0.00    +0.004 C 
ATOM     28  C   UNL     1       0.002  -0.004   0.002  0.00  0.00    +0.003 C 
ENDBRANCH  26  28
ENDBRANCH  17  26
ENDBRANCH  16  23
ENDBRANCH   1  16
TORSDOF 4
