REMARK  Name = ZINC15227258
REMARK  9 active torsions:
REMARK  status: ('A' for Active; 'I' for Inactive)
REMARK    1  A    between atoms: C_1  and  C_2
REMARK    2  A    between atoms: C_2  and  N_3
REMARK    3  A    between atoms: C_7  and  C_9
REMARK    4  A    between atoms: C_9  and  C_11
REMARK    5  A    between atoms: C_9  and  S_12
REMARK    6  A    between atoms: S_12  and  C_13
REMARK    7  A    between atoms: N_26  and  C_27
REMARK    8  A    between atoms: C_27  and  C_28
REMARK    9  A    between atoms: C_28  and  C_29
REMARK                            x       y       z     vdW  Elec       q    Type
REMARK                         _______ _______ _______ _____ _____    ______ ____
ROOT
ATOM      1  C   UNL     1      -2.379  -4.556   0.628  0.00  0.00    +0.173 A 
ATOM      2  N   UNL     1      -1.189  -4.988   0.260  0.00  0.00    -0.216 NA
ATOM      3  C   UNL     1      -0.902  -6.284   0.274  0.00  0.00    +0.117 A 
ATOM      4  C   UNL     1      -1.837  -7.253   0.676  0.00  0.00    +0.076 A 
ATOM      5  C   UNL     1      -1.374  -8.641   0.640  0.00  0.00    -0.023 A 
ATOM      6  C   UNL     1      -0.108  -8.854   0.228  0.00  0.00    -0.004 A 
ATOM      7  S   UNL     1       0.536  -7.242  -0.133  0.00  0.00    -0.073 S 
ATOM      8  C   UNL     1       0.597 -10.170   0.102  0.00  0.00    +0.043 C 
ATOM      9  C   UNL     1      -0.212 -11.227   0.868  0.00  0.00    +0.005 C 
ATOM     10  C   UNL     1      -1.685 -11.101   0.471  0.00  0.00    +0.005 C 
ATOM     11  C   UNL     1      -2.268  -9.809   1.046  0.00  0.00    +0.037 C 
ATOM     12  C   UNL     1      -3.119  -6.755   1.070  0.00  0.00    +0.263 A 
ATOM     13  O   UNL     1      -3.994  -7.522   1.433  0.00  0.00    -0.267 OA
ATOM     14  N   UNL     1      -3.345  -5.429   1.038  0.00  0.00    -0.287 N 
ENDROOT
BRANCH   1  15
ATOM     15  S   UNL     1      -2.725  -2.829   0.597  0.00  0.00    -0.075 S 
BRANCH  15  16
ATOM     16  C   UNL     1      -1.135  -2.201   0.001  0.00  0.00    +0.137 C 
ATOM     17  C   UNL     1      -0.892  -2.700  -1.425  0.00  0.00    +0.029 C 
BRANCH  16  22
ATOM     18  N   UNL     1       1.142   2.033   0.002  0.00  0.00    -0.299 N 
ATOM     19  C   UNL     1      -0.016   1.344   0.009  0.00  0.00    +0.306 C 
ATOM     20  O   UNL     1      -1.077   1.937   0.018  0.00  0.00    -0.252 OA
ATOM     21  N   UNL     1       0.002  -0.004   0.002  0.00  0.00    -0.239 N 
ATOM     22  C   UNL     1      -1.156  -0.694   0.009  0.00  0.00    +0.233 C 
ATOM     23  O   UNL     1      -2.214  -0.102   0.023  0.00  0.00    -0.274 OA
ATOM     24  H   UNL     1       1.988   1.560  -0.009  0.00  0.00    +0.150 HD
ATOM     25  H   UNL     1       0.849  -0.478  -0.009  0.00  0.00    +0.159 HD
BRANCH  18  27
ATOM     26  C   UNL     1       2.557   4.028  -0.001  0.00  0.00    +0.024 C 
ATOM     27  C   UNL     1       1.122   3.498   0.010  0.00  0.00    +0.102 C 
ENDBRANCH  18  27
ENDBRANCH  16  22
ENDBRANCH  15  16
ENDBRANCH   1  15
BRANCH  14  28
ATOM     28  C   UNL     1      -4.654  -4.913   1.446  0.00  0.00    +0.132 C 
BRANCH  28  29
ATOM     29  C   UNL     1      -5.579  -4.851   0.229  0.00  0.00    +0.057 C 
BRANCH  29  30
ATOM     30  C   UNL     1      -6.926  -4.320   0.648  0.00  0.00    -0.046 A 
ATOM     31  C   UNL     1      -7.915  -5.193   1.060  0.00  0.00    +0.004 A 
ATOM     32  C   UNL     1      -9.149  -4.705   1.450  0.00  0.00    +0.000 A 
ATOM     33  C   UNL     1      -9.396  -3.345   1.417  0.00  0.00    +0.000 A 
ATOM     34  C   UNL     1      -8.408  -2.473   1.000  0.00  0.00    +0.000 A 
ATOM     35  C   UNL     1      -7.173  -2.960   0.615  0.00  0.00    +0.004 A 
ENDBRANCH  29  30
ENDBRANCH  28  29
ENDBRANCH  14  28
TORSDOF 7
