REMARK  Name = ZINC08502646
REMARK  8 active torsions:
REMARK  status: ('A' for Active; 'I' for Inactive)
REMARK    1  A    between atoms: C_1  and  C_2
REMARK    2  A    between atoms: C_2  and  C_3
REMARK    3  A    between atoms: C_3  and  N_4
REMARK    4  A    between atoms: C_5  and  C_9
REMARK    5  A    between atoms: C_9  and  N_10
REMARK    6  A    between atoms: C_13  and  C_17
REMARK    7  A    between atoms: C_13  and  C_18
REMARK    8  A    between atoms: C_21  and  C_24
REMARK                            x       y       z     vdW  Elec       q    Type
REMARK                         _______ _______ _______ _____ _____    ______ ____
ROOT
ATOM      1  N   UNL     1       1.189   1.865   0.005  0.00  0.00    -0.216 N 
ATOM      2  C   UNL     1       2.123   0.894  -0.010  0.00  0.00    +0.251 C 
ATOM      3  O   UNL     1       3.327   1.036  -0.024  0.00  0.00    -0.272 OA
ATOM      4  C   UNL     1       1.356  -0.413  -0.006  0.00  0.00    +0.135 C 
ATOM      5  N   UNL     1      -0.054   0.013   0.012  0.00  0.00    -0.281 N 
ATOM      6  C   UNL     1      -0.049   1.358   0.018  0.00  0.00    +0.310 C 
ATOM      7  O   UNL     1      -1.057   2.037   0.027  0.00  0.00    -0.252 OA
ATOM      8  C   UNL     1       1.657  -1.222  -1.269  0.00  0.00    +0.047 C 
ATOM      9  H   UNL     1      -0.834  -0.564   0.019  0.00  0.00    +0.152 HD
ENDROOT
BRANCH   4  10
ATOM     10  C   UNL     1       1.683  -1.217   1.226  0.00  0.00    -0.015 A 
ATOM     11  C   UNL     1       2.958  -1.176   1.759  0.00  0.00    +0.006 A 
ATOM     12  C   UNL     1       3.256  -1.910   2.893  0.00  0.00    +0.004 A 
ATOM     13  C   UNL     1       2.283  -2.691   3.487  0.00  0.00    -0.050 A 
ATOM     14  C   UNL     1       1.010  -2.735   2.951  0.00  0.00    +0.004 A 
ATOM     15  C   UNL     1       0.710  -1.998   1.821  0.00  0.00    +0.006 A 
ATOM     16  C   UNL     1       2.610  -3.494   4.719  0.00  0.00    +0.044 C 
ENDBRANCH   4  10
BRANCH   1  17
ATOM     17  C   UNL     1       1.491   3.298   0.006  0.00  0.00    +0.195 C 
BRANCH  17  19
ATOM     18  N   UNL     1       2.543   3.966   2.232  0.00  0.00    -0.228 N 
ATOM     19  C   UNL     1       1.478   3.813   1.422  0.00  0.00    +0.169 A 
ATOM     20  N   UNL     1       0.428   4.193   2.107  0.00  0.00    -0.112 NA
ATOM     21  N   UNL     1       0.827   4.566   3.274  0.00  0.00    -0.023 NA
ATOM     22  N   UNL     1       2.105   4.433   3.352  0.00  0.00    -0.044 NA
BRANCH  18  23
ATOM     23  C   UNL     1       3.938   3.664   1.901  0.00  0.00    +0.147 C 
BRANCH  23  25
ATOM     24  C   UNL     1       6.122   4.650   1.193  0.00  0.00    +0.005 C 
ATOM     25  C   UNL     1       4.636   4.937   1.420  0.00  0.00    +0.020 C 
ENDBRANCH  23  25
ENDBRANCH  18  23
ENDBRANCH  17  19
ENDBRANCH   1  17
TORSDOF 5
