REMARK  Name = ZINC31809240
REMARK  6 active torsions:
REMARK  status: ('A' for Active; 'I' for Inactive)
REMARK    1  A    between atoms: C_1  and  C_2
REMARK    2  A    between atoms: C_22  and  C_24
REMARK    3  A    between atoms: C_28  and  O_30
REMARK    4  A    between atoms: O_30  and  C_31
REMARK    5  A    between atoms: C_31  and  C_32
REMARK    6  A    between atoms: C_31  and  C_33
REMARK                            x       y       z     vdW  Elec       q    Type
REMARK                         _______ _______ _______ _____ _____    ______ ____
ROOT
ATOM      1  C   UNL     1       0.977   1.379  -1.100  0.00  0.00    +0.068 C 
ATOM      2  C   UNL     1       1.282  -0.085  -1.286  0.00  0.00    +0.067 A 
ATOM      3  C   UNL     1       1.009  -0.839  -2.448  0.00  0.00    +0.033 A 
ATOM      4  C   UNL     1       1.430  -2.103  -2.227  0.00  0.00    +0.135 A 
ATOM      5  N   UNL     1       1.952  -2.137  -0.951  0.00  0.00    -0.197 N 
ATOM      6  N   UNL     1       1.847  -0.858  -0.404  0.00  0.00    -0.168 NA
ATOM      7  C   UNL     1       2.497  -3.253  -0.320  0.00  0.00    +0.187 A 
ATOM      8  C   UNL     1       3.733  -3.174   0.339  0.00  0.00    +0.152 A 
ATOM      9  C   UNL     1       4.231  -4.335   0.959  0.00  0.00    +0.163 A 
ATOM     10  N   UNL     1       5.433  -3.979   1.517  0.00  0.00    -0.329 N 
ATOM     11  H   UNL     1       6.027  -4.559   2.017  0.00  0.00    +0.168 HD
ATOM     12  C   UNL     1       5.638  -2.660   1.239  0.00  0.00    +0.198 A 
ATOM     13  N   UNL     1       4.640  -2.190   0.548  0.00  0.00    -0.231 NA
ATOM     14  N   UNL     1       3.520  -5.454   0.898  0.00  0.00    -0.216 NA
ATOM     15  C   UNL     1       2.364  -5.481   0.267  0.00  0.00    +0.226 A 
ATOM     16  N   UNL     1       1.855  -4.416  -0.324  0.00  0.00    -0.214 NA
ATOM     17  N   UNL     1       1.410  -3.227  -3.016  0.00  0.00    -0.269 N 
ATOM     18  C   UNL     1       0.957  -3.510  -4.200  0.00  0.00    +0.228 C 
ATOM     19  O   UNL     1       1.044  -4.678  -4.515  0.00  0.00    -0.275 OA
ATOM     20  C   UNL     1       0.351  -2.633  -5.225  0.00  0.00    +0.166 C 
ATOM     21  S   UNL     1      -0.720  -1.370  -4.524  0.00  0.00    -0.138 S 
ATOM     22  C   UNL     1       0.361  -0.233  -3.653  0.00  0.00    +0.112 C 
ATOM     23  H   UNL     1       1.835  -3.988  -2.590  0.00  0.00    +0.156 HD
ENDROOT
BRANCH  22  24
ATOM     24  C   UNL     1      -0.447   0.963  -3.217  0.00  0.00    -0.026 A 
ATOM     25  C   UNL     1      -1.628   0.783  -2.522  0.00  0.00    +0.005 A 
ATOM     26  C   UNL     1      -2.370   1.878  -2.121  0.00  0.00    +0.004 A 
ATOM     27  C   UNL     1      -1.934   3.155  -2.415  0.00  0.00    +0.045 A 
ATOM     28  C   UNL     1      -0.749   3.339  -3.113  0.00  0.00    +0.121 A 
ATOM     29  C   UNL     1      -0.003   2.238  -3.509  0.00  0.00    +0.050 A 
BRANCH  28  30
ATOM     30  O   UNL     1      -0.318   4.594  -3.403  0.00  0.00    -0.489 OA
BRANCH  30  31
ATOM     31  C   UNL     1       0.967   4.713  -4.018  0.00  0.00    +0.167 C 
ATOM     32  C   UNL     1       0.824   4.557  -5.533  0.00  0.00    +0.051 C 
ATOM     33  C   UNL     1       1.559   6.087  -3.700  0.00  0.00    +0.051 C 
ENDBRANCH  30  31
ENDBRANCH  28  30
ENDBRANCH  22  24
TORSDOF 3
