REMARK  Name = ZINC61594829
REMARK  8 active torsions:
REMARK  status: ('A' for Active; 'I' for Inactive)
REMARK    1  A    between atoms: C_1  and  C_2
REMARK    2  A    between atoms: C_2  and  C_3
REMARK    3  A    between atoms: C_3  and  N_4
REMARK    4  A    between atoms: C_10  and  S_11
REMARK    5  A    between atoms: S_11  and  C_12
REMARK    6  A    between atoms: C_12  and  C_14
REMARK    7  A    between atoms: C_12  and  C_16
REMARK    8  A    between atoms: C_14  and  N_15
REMARK                            x       y       z     vdW  Elec       q    Type
REMARK                         _______ _______ _______ _____ _____    ______ ____
ROOT
ATOM      1  C   UNL     1      -2.432  -3.767  -3.256  0.00  0.00    +0.073 C 
ENDROOT
BRANCH   1   2
ATOM      2  C   UNL     1      -3.541  -3.519  -4.246  0.00  0.00    +0.002 A 
ATOM      3  C   UNL     1      -3.620  -3.887  -5.548  0.00  0.00    +0.013 A 
ATOM      4  C   UNL     1      -4.748  -3.548  -6.273  0.00  0.00    +0.023 A 
ATOM      5  C   UNL     1      -5.741  -2.857  -5.659  0.00  0.00    +0.055 A 
ATOM      6  S   UNL     1      -5.095  -2.673  -4.005  0.00  0.00    -0.085 S 
ATOM      7 BR   UNL     1      -7.386  -2.252  -6.369  0.00  0.00    -0.043 Br
ENDBRANCH   1   2
BRANCH   1   8
ATOM      8  S   UNL     1      -1.798  -2.179  -2.648  0.00  0.00    -0.079 S 
BRANCH   8  15
ATOM      9  N   UNL     1       0.505  -1.737  -1.123  0.00  0.00    -0.271 N 
ATOM     10  C   UNL     1       1.463  -2.448  -0.494  0.00  0.00    +0.345 A 
ATOM     11  O   UNL     1       2.399  -1.992   0.138  0.00  0.00    -0.245 OA
ATOM     12  N   UNL     1       1.196  -3.755  -0.693  0.00  0.00    -0.226 N 
ATOM     13  H   UNL     1       1.714  -4.504  -0.358  0.00  0.00    +0.194 HD
ATOM     14  N   UNL     1       0.033  -3.833  -1.470  0.00  0.00    -0.145 NA
ATOM     15  C   UNL     1      -0.371  -2.619  -1.714  0.00  0.00    +0.193 A 
BRANCH   9  16
ATOM     16  C   UNL     1       0.409  -0.276  -1.164  0.00  0.00    +0.129 C 
BRANCH  16  18
ATOM     17  C   UNL     1      -0.519   1.741  -0.018  0.00  0.00    +0.005 C 
ATOM     18  C   UNL     1      -0.418   0.215   0.026  0.00  0.00    +0.018 C 
ENDBRANCH  16  18
ENDBRANCH   9  16
ENDBRANCH   8  15
ENDBRANCH   1   8
BRANCH   1  19
ATOM     19  C   UNL     1      -2.970  -4.585  -2.080  0.00  0.00    -0.066 C 
BRANCH  19  20
ATOM     20  N   UNL     1      -3.359  -5.921  -2.550  0.00  0.00    +0.379 N 
ATOM     21  H   UNL     1      -2.577  -6.353  -3.019  0.00  0.00    -0.090 HD
ATOM     22  H   UNL     1      -3.634  -6.488  -1.762  0.00  0.00    -0.090 HD
ATOM     23  H   UNL     1      -4.133  -5.839  -3.192  0.00  0.00    -0.090 HD
ENDBRANCH  19  20
ENDBRANCH   1  19
TORSDOF 7
