REMARK  Name = ZINC04510069
REMARK  10 active torsions:
REMARK  status: ('A' for Active; 'I' for Inactive)
REMARK    1  A    between atoms: C_1  and  C_2
REMARK    2  A    between atoms: C_2  and  C_4
REMARK    3  A    between atoms: C_2  and  S_11
REMARK    4  A    between atoms: N_9  and  C_10
REMARK    5  A    between atoms: S_11  and  C_12
REMARK    6  A    between atoms: N_25  and  C_26
REMARK    7  A    between atoms: C_26  and  C_27
REMARK    8  A    between atoms: C_27  and  C_28
REMARK    9  A    between atoms: C_28  and  C_29
REMARK   10  A    between atoms: C_28  and  C_30
REMARK                            x       y       z     vdW  Elec       q    Type
REMARK                         _______ _______ _______ _____ _____    ______ ____
ROOT
ATOM      1  C   UNL     1      -0.189  -0.057  -2.809  0.00  0.00    +0.198 A 
ATOM      2  N   UNL     1      -1.309   0.613  -2.685  0.00  0.00    -0.120 NA
ATOM      3  N   UNL     1      -1.825   0.838  -3.967  0.00  0.00    -0.109 NA
ATOM      4  C   UNL     1      -1.003   0.297  -4.838  0.00  0.00    +0.240 A 
ATOM      5  N   UNL     1       0.033  -0.265  -4.144  0.00  0.00    -0.256 N 
ATOM      6  C   UNL     1       1.068  -0.911  -4.816  0.00  0.00    +0.064 A 
ATOM      7  C   UNL     1       2.121  -1.488  -4.121  0.00  0.00    +0.027 A 
ATOM      8  C   UNL     1       3.134  -2.123  -4.811  0.00  0.00    +0.002 A 
ATOM      9  C   UNL     1       3.110  -2.189  -6.195  0.00  0.00    +0.001 A 
ATOM     10  C   UNL     1       2.071  -1.621  -6.903  0.00  0.00    +0.015 A 
ATOM     11  C   UNL     1       1.042  -0.978  -6.217  0.00  0.00    +0.064 A 
ATOM     12  C   UNL     1      -0.086  -0.359  -6.936  0.00  0.00    +0.263 A 
ATOM     13  O   UNL     1      -0.142  -0.398  -8.150  0.00  0.00    -0.267 OA
ATOM     14  N   UNL     1      -1.060   0.243  -6.223  0.00  0.00    -0.277 N 
ENDROOT
BRANCH   1  15
ATOM     15  S   UNL     1       0.851  -0.589  -1.490  0.00  0.00    -0.073 S 
BRANCH  15  17
ATOM     16  C   UNL     1      -0.019   1.526   0.010  0.00  0.00    +0.029 C 
ATOM     17  C   UNL     1       0.002  -0.004   0.002  0.00  0.00    +0.137 C 
BRANCH  17  18
ATOM     18  C   UNL     1       0.731  -0.503   1.223  0.00  0.00    +0.233 C 
ATOM     19  O   UNL     1       1.911  -0.775   1.156  0.00  0.00    -0.274 OA
ATOM     20  N   UNL     1       0.071  -0.647   2.389  0.00  0.00    -0.239 N 
ATOM     21  C   UNL     1       0.723  -1.094   3.481  0.00  0.00    +0.306 C 
ATOM     22  O   UNL     1       1.906  -1.367   3.414  0.00  0.00    -0.252 OA
ATOM     23  N   UNL     1       0.064  -1.238   4.648  0.00  0.00    -0.302 N 
ATOM     24  C   UNL     1       0.772  -1.723   5.835  0.00  0.00    +0.129 C 
ATOM     25  H   UNL     1      -0.872  -0.430   2.443  0.00  0.00    +0.159 HD
ATOM     26  H   UNL     1      -0.880  -1.020   4.702  0.00  0.00    +0.150 HD
ENDBRANCH  17  18
ENDBRANCH  15  17
ENDBRANCH   1  15
BRANCH  14  27
ATOM     27  C   UNL     1      -2.187   0.865  -6.923  0.00  0.00    +0.128 C 
BRANCH  27  28
ATOM     28  C   UNL     1      -1.846   2.321  -7.245  0.00  0.00    +0.025 C 
BRANCH  28  29
ATOM     29  C   UNL     1      -3.022   2.970  -7.976  0.00  0.00    -0.016 C 
ATOM     30  C   UNL     1      -2.733   4.458  -8.188  0.00  0.00    +0.007 C 
ATOM     31  C   UNL     1      -3.218   2.291  -9.333  0.00  0.00    +0.007 C 
ENDBRANCH  28  29
ENDBRANCH  27  28
ENDBRANCH  14  27
TORSDOF 6
