REMARK  Name = ZINC34784879
REMARK  9 active torsions:
REMARK  status: ('A' for Active; 'I' for Inactive)
REMARK    1  A    between atoms: C_1  and  C_2
REMARK    2  A    between atoms: C_2  and  C_3
REMARK    3  A    between atoms: C_2  and  C_4
REMARK    4  A    between atoms: C_2  and  C_5
REMARK    5  A    between atoms: C_6  and  N_19
REMARK    6  A    between atoms: C_7  and  N_18
REMARK    7  A    between atoms: N_8  and  C_10
REMARK    8  A    between atoms: N_22  and  C_23
REMARK    9  A    between atoms: C_23  and  C_24
REMARK                            x       y       z     vdW  Elec       q    Type
REMARK                         _______ _______ _______ _____ _____    ______ ____
ROOT
ATOM      1  C   UNL     1       0.459  -0.472  -1.404  0.00  0.00    +0.092 A 
ATOM      2  C   UNL     1       0.818  -1.805  -1.642  0.00  0.00    +0.098 A 
ATOM      3  C   UNL     1       1.737  -1.816  -2.651  0.00  0.00    +0.142 A 
ATOM      4  N   UNL     1       1.943  -0.523  -3.029  0.00  0.00    -0.214 N 
ATOM      5  N   UNL     1       1.125   0.291  -2.234  0.00  0.00    -0.167 NA
ENDROOT
BRANCH   4   6
ATOM      6  C   UNL     1       2.814  -0.086  -4.037  0.00  0.00    +0.105 A 
ATOM      7  C   UNL     1       2.814  -0.712  -5.276  0.00  0.00    +0.069 A 
ATOM      8  C   UNL     1       3.674  -0.278  -6.268  0.00  0.00    +0.126 A 
ATOM      9  C   UNL     1       4.534   0.780  -6.027  0.00  0.00    +0.041 A 
ATOM     10  C   UNL     1       4.537   1.406  -4.795  0.00  0.00    +0.043 A 
ATOM     11  C   UNL     1       3.675   0.980  -3.800  0.00  0.00    +0.149 A 
ATOM     12  F   UNL     1       3.674   1.595  -2.597  0.00  0.00    -0.203 F 
ATOM     13  F   UNL     1       3.674  -0.887  -7.474  0.00  0.00    -0.205 F 
ENDBRANCH   4   6
BRANCH   2  14
ATOM     14  N   UNL     1       0.318  -2.936  -0.960  0.00  0.00    -0.265 N 
ATOM     15  C   UNL     1       0.146  -4.099  -1.618  0.00  0.00    +0.305 C 
ATOM     16  O   UNL     1       0.345  -4.154  -2.817  0.00  0.00    -0.252 OA
ATOM     17  N   UNL     1      -0.246  -5.201  -0.948  0.00  0.00    -0.288 N 
ATOM     18  H   UNL     1       0.097  -2.875  -0.017  0.00  0.00    +0.157 HD
ATOM     19  H   UNL     1      -0.404  -5.157   0.007  0.00  0.00    +0.151 HD
BRANCH  17  20
ATOM     20  C   UNL     1      -0.432  -6.465  -1.664  0.00  0.00    +0.195 C 
BRANCH  20  21
ATOM     21  C   UNL     1      -0.858  -7.508  -0.716  0.00  0.00    -0.087 C 
ATOM     22  C   UNL     1      -1.198  -8.339   0.040  0.00  0.00    +0.005 C 
ENDBRANCH  20  21
ENDBRANCH  17  20
ENDBRANCH   2  14
BRANCH   1  24
ATOM     23  C   UNL     1      -0.643   1.528  -0.438  0.00  0.00    +0.017 C 
ATOM     24  C   UNL     1      -0.530   0.003  -0.372  0.00  0.00    +0.008 C 
ATOM     25  C   UNL     1      -0.054  -0.414   1.021  0.00  0.00    +0.017 C 
ATOM     26  C   UNL     1      -1.899  -0.622  -0.652  0.00  0.00    +0.017 C 
ENDBRANCH   1  24
BRANCH   3  27
ATOM     27  N   UNL     1       2.353  -2.944  -3.195  0.00  0.00    -0.342 N 
ATOM     28  H   UNL     1       2.114  -3.828  -2.876  0.00  0.00    +0.144 HD
ATOM     29  H   UNL     1       3.020  -2.843  -3.892  0.00  0.00    +0.144 HD
ENDBRANCH   3  27
TORSDOF 6
