REMARK  Name = ZINC27850235
REMARK  11 active torsions:
REMARK  status: ('A' for Active; 'I' for Inactive)
REMARK    1  A    between atoms: C_1  and  C_2
REMARK    2  A    between atoms: C_5  and  C_8
REMARK    3  A    between atoms: C_8  and  O_38
REMARK    4  A    between atoms: N_11  and  C_14
REMARK    5  A    between atoms: C_14  and  C_15
REMARK    6  A    between atoms: C_17  and  C_23
REMARK    7  A    between atoms: C_20  and  O_21
REMARK    8  A    between atoms: C_23  and  N_24
REMARK    9  A    between atoms: C_27  and  C_30
REMARK   10  A    between atoms: C_27  and  O_37
REMARK   11  A    between atoms: C_33  and  C_36
REMARK                            x       y       z     vdW  Elec       q    Type
REMARK                         _______ _______ _______ _____ _____    ______ ____
ROOT
ATOM      1  C   UNL     1       3.150   4.439   6.407  0.00  0.00    -0.022 A 
ATOM      2  C   UNL     1       2.262   4.567   5.356  0.00  0.00    +0.010 A 
ATOM      3  C   UNL     1       1.620   3.452   4.852  0.00  0.00    -0.028 A 
ATOM      4  C   UNL     1       1.860   2.204   5.404  0.00  0.00    +0.128 A 
ATOM      5  C   UNL     1       2.752   2.071   6.452  0.00  0.00    +0.084 A 
ATOM      6  C   UNL     1       3.397   3.191   6.958  0.00  0.00    +0.121 A 
ATOM      7  F   UNL     1       1.227   1.116   4.914  0.00  0.00    -0.205 F 
ENDROOT
BRANCH   6   8
ATOM      8  O   UNL     1       4.271   3.064   7.991  0.00  0.00    -0.506 OA
ATOM      9  H   UNL     1       4.466   2.073   8.428  0.00  0.00    +0.292 HD
ENDBRANCH   6   8
BRANCH   1  10
ATOM     10  C   UNL     1       3.849   5.657   6.955  0.00  0.00    -0.039 C 
BRANCH  10  14
ATOM     11  C   UNL     1       2.015   7.780  10.181  0.00  0.00    +0.088 C 
ATOM     12  C   UNL     1       3.470   7.319  10.312  0.00  0.00    +0.021 C 
ATOM     13  C   UNL     1       4.045   7.060   8.918  0.00  0.00    -0.075 C 
ATOM     14  N   UNL     1       3.245   6.031   8.241  0.00  0.00    +0.383 N 
ATOM     15  C   UNL     1       1.856   6.471   8.062  0.00  0.00    -0.075 C 
ATOM     16  C   UNL     1       1.215   6.713   9.430  0.00  0.00    +0.021 C 
ATOM     17  H   UNL     1       3.234   5.138   8.883  0.00  0.00    -0.081 HD
BRANCH  11  22
ATOM     18  C   UNL     1      -0.246   8.551  15.443  0.00  0.00    +0.044 C 
ATOM     19  C   UNL     1       0.343   8.350  14.071  0.00  0.00    -0.050 A 
ATOM     20  C   UNL     1      -0.106   9.110  13.007  0.00  0.00    +0.004 A 
ATOM     21  C   UNL     1       0.435   8.926  11.749  0.00  0.00    +0.007 A 
ATOM     22  C   UNL     1       1.425   7.981  11.553  0.00  0.00    -0.016 A 
ATOM     23  C   UNL     1       1.870   7.217  12.616  0.00  0.00    +0.007 A 
ATOM     24  C   UNL     1       1.332   7.404  13.875  0.00  0.00    +0.004 A 
ENDBRANCH  11  22
BRANCH  11  25
ATOM     25  O   UNL     1       1.968   9.011   9.456  0.00  0.00    -0.384 OA
ATOM     26  H   UNL     1       2.357   9.059   8.428  0.00  0.00    +0.211 HD
ENDBRANCH  11  25
ENDBRANCH  10  14
ENDBRANCH   1  10
BRANCH   3  27
ATOM     27  C   UNL     1       0.652   3.595   3.706  0.00  0.00    -0.040 C 
BRANCH  27  28
ATOM     28  N   UNL     1      -0.723   3.460   4.206  0.00  0.00    +0.383 N 
ATOM     29  C   UNL     1      -1.662   3.218   3.103  0.00  0.00    -0.075 C 
ATOM     30  C   UNL     1      -3.056   2.939   3.671  0.00  0.00    +0.021 C 
ATOM     31  C   UNL     1      -3.513   4.141   4.502  0.00  0.00    +0.088 C 
ATOM     32  C   UNL     1      -2.493   4.401   5.613  0.00  0.00    +0.021 C 
ATOM     33  C   UNL     1      -1.116   4.638   4.989  0.00  0.00    -0.075 C 
ATOM     34  H   UNL     1      -0.757   2.586   4.873  0.00  0.00    -0.081 HD
BRANCH  31  35
ATOM     35  C   UNL     1      -4.860   3.848   5.111  0.00  0.00    -0.016 A 
ATOM     36  C   UNL     1      -5.212   2.547   5.417  0.00  0.00    +0.007 A 
ATOM     37  C   UNL     1      -6.446   2.279   5.980  0.00  0.00    +0.004 A 
ATOM     38  C   UNL     1      -7.331   3.311   6.229  0.00  0.00    -0.050 A 
ATOM     39  C   UNL     1      -6.981   4.612   5.918  0.00  0.00    +0.004 A 
ATOM     40  C   UNL     1      -5.746   4.880   5.359  0.00  0.00    +0.007 A 
ATOM     41  C   UNL     1      -8.678   3.019   6.839  0.00  0.00    +0.044 C 
ENDBRANCH  31  35
BRANCH  31  42
ATOM     42  O   UNL     1      -3.609   5.293   3.662  0.00  0.00    -0.384 OA
ATOM     43  H   UNL     1      -3.926   6.257   4.086  0.00  0.00    +0.211 HD
ENDBRANCH  31  42
ENDBRANCH  27  28
ENDBRANCH   3  27
TORSDOF 9
