REMARK  Name = ZINC14978717
REMARK  12 active torsions:
REMARK  status: ('A' for Active; 'I' for Inactive)
REMARK    1  A    between atoms: C_1  and  C_2
REMARK    2  A    between atoms: C_2  and  N_3
REMARK    3  A    between atoms: C_4  and  C_34
REMARK    4  A    between atoms: C_5  and  C_9
REMARK    5  A    between atoms: C_6  and  C_8
REMARK    6  A    between atoms: C_9  and  N_69
REMARK    7  A    between atoms: C_12  and  C_15
REMARK    8  A    between atoms: C_15  and  C_17
REMARK    9  A    between atoms: C_15  and  N_25
REMARK   10  A    between atoms: C_17  and  C_18
REMARK   11  A    between atoms: N_25  and  C_26
REMARK   12  A    between atoms: C_27  and  C_29
REMARK                            x       y       z     vdW  Elec       q    Type
REMARK                         _______ _______ _______ _____ _____    ______ ____
ROOT
ATOM      1  C   UNL     1       0.601   0.974  -0.183  0.00  0.00    +0.083 C 
ENDROOT
BRANCH   1   4
ATOM      2  C   UNL     1      -2.611   1.802   1.771  0.00  0.00    -0.078 C 
ATOM      3  C   UNL     1      -1.742   1.224   0.651  0.00  0.00    -0.013 C 
ATOM      4  C   UNL     1      -0.279   1.600   0.900  0.00  0.00    +0.006 C 
ATOM      5  C   UNL     1       0.149   1.076   2.274  0.00  0.00    -0.013 C 
ATOM      6  C   UNL     1      -0.775   1.657   3.347  0.00  0.00    -0.078 C 
ATOM      7  N   UNL     1      -2.164   1.238   3.063  0.00  0.00    +0.382 N 
ATOM      8  H   UNL     1      -2.199   0.214   3.010  0.00  0.00    -0.081 HD
BRANCH   7   9
ATOM      9  C   UNL     1      -3.059   1.692   4.148  0.00  0.00    -0.039 C 
BRANCH   9  12
ATOM     10  N   UNL     1      -1.289   1.450   7.327  0.00  0.00    -0.268 N 
ATOM     11  C   UNL     1      -1.621   2.128   6.208  0.00  0.00    +0.038 A 
ATOM     12  C   UNL     1      -2.443   1.339   5.477  0.00  0.00    -0.021 A 
ATOM     13  C   UNL     1      -2.624   0.141   6.176  0.00  0.00    +0.062 A 
ATOM     14  N   UNL     1      -1.928   0.204   7.282  0.00  0.00    -0.176 NA
ATOM     15  C   UNL     1      -3.471  -1.023   5.729  0.00  0.00    +0.068 C 
ATOM     16  C   UNL     1      -1.159   3.514   5.839  0.00  0.00    +0.065 C 
BRANCH  10  18
ATOM     17  C   UNL     1      -1.254   2.661   9.451  0.00  0.00    +0.029 C 
ATOM     18  C   UNL     1      -0.415   1.933   8.399  0.00  0.00    +0.140 C 
ENDBRANCH  10  18
ENDBRANCH   9  12
ENDBRANCH   7   9
ENDBRANCH   1   4
BRANCH   1  19
ATOM     19  N   UNL     1       0.189   1.474  -1.497  0.00  0.00    -0.294 N 
ATOM     20  C   UNL     1      -0.206   0.533  -2.548  0.00  0.00    +0.132 C 
ATOM     21  C   UNL     1       0.172   2.800  -1.738  0.00  0.00    +0.282 C 
ATOM     22  O   UNL     1       0.591   3.576  -0.900  0.00  0.00    -0.267 OA
BRANCH  21  23
ATOM     23  C   UNL     1      -0.350   3.306  -3.012  0.00  0.00    +0.189 A 
ATOM     24  C   UNL     1      -0.326   4.607  -3.428  0.00  0.00    +0.054 A 
ATOM     25  C   UNL     1      -0.927   4.635  -4.696  0.00  0.00    +0.042 A 
ATOM     26  C   UNL     1      -1.288   3.367  -4.994  0.00  0.00    +0.196 A 
ATOM     27  O   UNL     1      -0.933   2.569  -3.979  0.00  0.00    -0.458 OA
ENDBRANCH  21  23
ENDBRANCH   1  19
BRANCH   1  28
ATOM     28  C   UNL     1       2.063   1.348   0.069  0.00  0.00    +0.059 C 
BRANCH  28  29
ATOM     29  C   UNL     1       2.941   0.651  -0.939  0.00  0.00    -0.027 A 
ATOM     30  C   UNL     1       3.390   1.335  -2.053  0.00  0.00    +0.005 A 
ATOM     31  C   UNL     1       4.199   0.698  -2.976  0.00  0.00    +0.000 A 
ATOM     32  C   UNL     1       4.550  -0.626  -2.790  0.00  0.00    +0.001 A 
ATOM     33  C   UNL     1       4.097  -1.312  -1.679  0.00  0.00    +0.020 A 
ATOM     34  C   UNL     1       3.292  -0.673  -0.753  0.00  0.00    +0.044 A 
ATOM     35 CL   UNL     1       2.721  -1.535   0.642  0.00  0.00    -0.083 Cl
ENDBRANCH  28  29
ENDBRANCH   1  28
TORSDOF 8
