REMARK  Name = ZINC60346442
REMARK  9 active torsions:
REMARK  status: ('A' for Active; 'I' for Inactive)
REMARK    1  A    between atoms: C_1  and  C_2
REMARK    2  A    between atoms: C_7  and  C_8
REMARK    3  A    between atoms: C_8  and  C_9
REMARK    4  A    between atoms: C_8  and  C_10
REMARK    5  A    between atoms: C_11  and  C_16
REMARK    6  A    between atoms: C_16  and  N_17
REMARK    7  A    between atoms: C_20  and  C_24
REMARK    8  A    between atoms: C_20  and  C_25
REMARK    9  A    between atoms: C_29  and  C_31
REMARK                            x       y       z     vdW  Elec       q    Type
REMARK                         _______ _______ _______ _____ _____    ______ ____
ROOT
ATOM      1  N   UNL     1      -0.291  -5.521   1.772  0.00  0.00    -0.220 N 
ATOM      2  C   UNL     1      -0.973  -4.911   2.762  0.00  0.00    +0.251 C 
ATOM      3  O   UNL     1      -0.702  -3.857   3.295  0.00  0.00    -0.272 OA
ATOM      4  C   UNL     1      -2.147  -5.818   3.070  0.00  0.00    +0.135 C 
ATOM      5  N   UNL     1      -1.975  -6.939   2.129  0.00  0.00    -0.281 N 
ATOM      6  C   UNL     1      -0.869  -6.673   1.412  0.00  0.00    +0.310 C 
ATOM      7  O   UNL     1      -0.440  -7.399   0.537  0.00  0.00    -0.252 OA
ATOM      8  C   UNL     1      -3.470  -5.094   2.808  0.00  0.00    +0.047 C 
ATOM      9  H   UNL     1      -2.550  -7.716   2.042  0.00  0.00    +0.152 HD
ENDROOT
BRANCH   4  10
ATOM     10  C   UNL     1      -2.082  -6.307   4.494  0.00  0.00    -0.014 A 
ATOM     11  C   UNL     1      -1.500  -5.516   5.469  0.00  0.00    +0.006 A 
ATOM     12  C   UNL     1      -1.435  -5.956   6.779  0.00  0.00    +0.002 A 
ATOM     13  C   UNL     1      -1.952  -7.189   7.121  0.00  0.00    +0.019 A 
ATOM     14  C   UNL     1      -2.541  -7.992   6.143  0.00  0.00    +0.052 A 
ATOM     15  C   UNL     1      -2.607  -7.539   4.824  0.00  0.00    +0.025 A 
BRANCH  14  16
ATOM     16  C   UNL     1      -3.079  -9.272   6.492  0.00  0.00    +0.099 C 
ATOM     17  N   UNL     1      -3.506 -10.288   6.768  0.00  0.00    -0.191 NA
ENDBRANCH  14  16
ENDBRANCH   4  10
BRANCH   1  18
ATOM     18  C   UNL     1       0.928  -4.986   1.162  0.00  0.00    +0.154 C 
BRANCH  18  26
ATOM     19  C   UNL     1      -0.947   1.294   0.034  0.00  0.00    +0.044 C 
ATOM     20  C   UNL     1      -0.548  -0.159  -0.003  0.00  0.00    -0.044 A 
ATOM     21  C   UNL     1      -0.504  -0.825  -1.210  0.00  0.00    +0.050 A 
ATOM     22  C   UNL     1      -0.137  -2.164  -1.248  0.00  0.00    +0.140 A 
ATOM     23  C   UNL     1       0.187  -2.824  -0.049  0.00  0.00    +0.023 A 
ATOM     24  C   UNL     1       0.136  -2.131   1.165  0.00  0.00    +0.016 A 
ATOM     25  C   UNL     1      -0.223  -0.812   1.177  0.00  0.00    -0.041 A 
ATOM     26  C   UNL     1       0.573  -4.237  -0.097  0.00  0.00    -0.012 A 
ATOM     27  C   UNL     1       0.603  -4.852  -1.306  0.00  0.00    +0.098 A 
ATOM     28  C   UNL     1       0.266  -4.128  -2.470  0.00  0.00    +0.338 A 
ATOM     29  O   UNL     1       0.296  -4.692  -3.549  0.00  0.00    -0.245 OA
ATOM     30  O   UNL     1      -0.087  -2.834  -2.418  0.00  0.00    -0.422 OA
BRANCH  25  31
ATOM     31  C   UNL     1      -0.271  -0.063   2.484  0.00  0.00    +0.013 C 
ATOM     32  C   UNL     1      -1.387  -0.637   3.360  0.00  0.00    +0.012 C 
ATOM     33  C   UNL     1       1.070  -0.209   3.206  0.00  0.00    +0.012 C 
ENDBRANCH  25  31
ENDBRANCH  18  26
ENDBRANCH   1  18
TORSDOF 5
