REMARK  Name = ZINC09384558
REMARK  10 active torsions:
REMARK  status: ('A' for Active; 'I' for Inactive)
REMARK    1  A    between atoms: C_1  and  C_2
REMARK    2  A    between atoms: C_2  and  C_3
REMARK    3  A    between atoms: N_9  and  S_10
REMARK    4  A    between atoms: S_10  and  C_13
REMARK    5  A    between atoms: C_16  and  C_19
REMARK    6  A    between atoms: N_21  and  C_22
REMARK    7  A    between atoms: C_23  and  C_27
REMARK    8  A    between atoms: C_30  and  O_32
REMARK    9  A    between atoms: O_32  and  C_33
REMARK   10  A    between atoms: C_33  and  C_34
REMARK                            x       y       z     vdW  Elec       q    Type
REMARK                         _______ _______ _______ _____ _____    ______ ____
ROOT
ATOM      1  C   UNL     1       8.727   2.486  -0.628  0.00  0.00    +0.249 C 
ATOM      2  O   UNL     1       9.011   3.449  -1.313  0.00  0.00    -0.270 OA
ATOM      3  N   UNL     1       9.613   1.482  -0.477  0.00  0.00    -0.275 N 
ATOM      4  H   UNL     1       9.386   0.713   0.070  0.00  0.00    +0.156 HD
ENDROOT
BRANCH   1   8
ATOM      5  C   UNL     1       4.941   2.284   1.286  0.00  0.00    +0.106 A 
ATOM      6  C   UNL     1       5.851   1.254   1.449  0.00  0.00    +0.029 A 
ATOM      7  C   UNL     1       7.080   1.310   0.825  0.00  0.00    +0.015 A 
ATOM      8  C   UNL     1       7.410   2.416   0.038  0.00  0.00    +0.037 A 
ATOM      9  C   UNL     1       6.489   3.454  -0.117  0.00  0.00    +0.015 A 
ATOM     10  C   UNL     1       5.261   3.382   0.508  0.00  0.00    +0.029 A 
BRANCH   5  11
ATOM     11  S   UNL     1       3.370   2.200   2.080  0.00  0.00    +0.061 S 
ATOM     12  O   UNL     1       2.840   3.518   2.072  0.00  0.00    -0.153 OA
ATOM     13  O   UNL     1       3.561   1.463   3.280  0.00  0.00    -0.153 OA
BRANCH  11  19
ATOM     14  C   UNL     1       1.706   1.885  -0.043  0.00  0.00    +0.080 C 
ATOM     15  C   UNL     1       0.204   1.601   0.062  0.00  0.00    +0.021 C 
ATOM     16  C   UNL     1      -0.017   0.093   0.209  0.00  0.00    +0.003 C 
ATOM     17  C   UNL     1       0.658  -0.400   1.490  0.00  0.00    +0.017 C 
ATOM     18  C   UNL     1       2.165  -0.139   1.402  0.00  0.00    +0.110 C 
ATOM     19  N   UNL     1       2.382   1.286   1.116  0.00  0.00    -0.174 NA
BRANCH  14  21
ATOM     20  C   UNL     1       1.417   3.988  -1.360  0.00  0.00    +0.005 C 
ATOM     21  C   UNL     1       1.942   3.396  -0.051  0.00  0.00    +0.017 C 
ENDBRANCH  14  21
ENDBRANCH  11  19
ENDBRANCH   5  11
ENDBRANCH   1   8
BRANCH   3  22
ATOM     22  C   UNL     1      10.847   1.547  -1.101  0.00  0.00    +0.084 A 
ATOM     23  C   UNL     1      11.884   0.621  -1.066  0.00  0.00    +0.066 A 
ATOM     24  C   UNL     1      13.073   0.948  -1.817  0.00  0.00    +0.022 A 
ATOM     25  C   UNL     1      13.075   2.115  -2.485  0.00  0.00    +0.048 A 
ATOM     26  S   UNL     1      11.471   2.799  -2.122  0.00  0.00    -0.081 S 
BRANCH  23  27
ATOM     27  C   UNL     1      11.776  -0.625  -0.302  0.00  0.00    +0.255 C 
ATOM     28  O   UNL     1      10.761  -0.870   0.321  0.00  0.00    -0.270 OA
ATOM     29  N   UNL     1      12.802  -1.500  -0.291  0.00  0.00    -0.217 N 
ATOM     30  C   UNL     1      12.703  -2.646   0.411  0.00  0.00    +0.407 C 
ATOM     31  O   UNL     1      11.689  -2.890   1.034  0.00  0.00    -0.226 OA
ATOM     32  H   UNL     1      13.612  -1.304  -0.788  0.00  0.00    +0.161 HD
BRANCH  30  33
ATOM     33  O   UNL     1      13.727  -3.519   0.422  0.00  0.00    -0.450 OA
BRANCH  33  34
ATOM     34  C   UNL     1      13.550  -4.732   1.200  0.00  0.00    +0.230 C 
ATOM     35  C   UNL     1      14.809  -5.595   1.093  0.00  0.00    +0.048 C 
ENDBRANCH  33  34
ENDBRANCH  30  33
ENDBRANCH  23  27
ENDBRANCH   3  22
TORSDOF 8
