REMARK  Name = ZINC38561571
REMARK  6 active torsions:
REMARK  status: ('A' for Active; 'I' for Inactive)
REMARK    1  A    between atoms: C_9  and  C_12
REMARK    2  A    between atoms: N_14  and  C_15
REMARK    3  A    between atoms: C_15  and  C_16
REMARK    4  A    between atoms: C_16  and  C_17
REMARK    5  A    between atoms: N_23  and  S_24
REMARK    6  A    between atoms: S_24  and  C_27
REMARK                            x       y       z     vdW  Elec       q    Type
REMARK                         _______ _______ _______ _____ _____    ______ ____
ROOT
ATOM      1  C   UNL     1       7.869  -4.455  -0.818  0.00  0.00    +0.106 C 
ENDROOT
BRANCH   1   4
ATOM      2  C   UNL     1       7.258  -2.179  -1.435  0.00  0.00    +0.257 C 
ATOM      3  O   UNL     1       8.236  -1.782  -0.838  0.00  0.00    -0.272 OA
ATOM      4  N   UNL     1       6.953  -3.492  -1.432  0.00  0.00    -0.312 N 
ATOM      5  H   UNL     1       6.127  -3.798  -1.837  0.00  0.00    +0.149 HD
BRANCH   2  14
ATOM      6  C   UNL     1       4.543   3.278  -3.209  0.00  0.00    +0.004 A 
ATOM      7  C   UNL     1       5.915   3.436  -3.145  0.00  0.00    +0.004 A 
ATOM      8  C   UNL     1       6.719   2.373  -2.778  0.00  0.00    +0.049 A 
ATOM      9  C   UNL     1       6.150   1.145  -2.474  0.00  0.00    +0.163 A 
ATOM     10  C   UNL     1       4.771   0.986  -2.541  0.00  0.00    +0.162 A 
ATOM     11  C   UNL     1       3.970   2.057  -2.907  0.00  0.00    +0.049 A 
ATOM     12  O   UNL     1       4.194  -0.213  -2.254  0.00  0.00    -0.484 OA
ATOM     13  C   UNL     1       4.993  -1.156  -1.532  0.00  0.00    +0.283 C 
ATOM     14  C   UNL     1       6.383  -1.203  -2.179  0.00  0.00    +0.296 C 
ATOM     15  O   UNL     1       6.954   0.108  -2.111  0.00  0.00    -0.473 OA
ENDBRANCH   2  14
ENDBRANCH   1   4
BRANCH   1  16
ATOM     16  C   UNL     1       7.347  -5.875  -1.050  0.00  0.00    +0.039 C 
BRANCH  16  17
ATOM     17  C   UNL     1       8.372  -6.886  -0.532  0.00  0.00    +0.081 C 
ATOM     18  C   UNL     1       8.438  -6.814   0.997  0.00  0.00    +0.021 C 
ATOM     19  C   UNL     1       9.360  -7.920   1.516  0.00  0.00    +0.003 C 
ATOM     20  C   UNL     1       8.793  -9.286   1.121  0.00  0.00    +0.017 C 
ATOM     21  C   UNL     1       8.731  -9.386  -0.406  0.00  0.00    +0.110 C 
ATOM     22  N   UNL     1       7.969  -8.242  -0.927  0.00  0.00    -0.173 NA
BRANCH  22  23
ATOM     23  S   UNL     1       6.678  -8.478  -1.937  0.00  0.00    +0.067 S 
ATOM     24  O   UNL     1       6.342  -9.856  -1.853  0.00  0.00    -0.152 OA
ATOM     25  O   UNL     1       5.743  -7.448  -1.648  0.00  0.00    -0.152 OA
BRANCH  23  26
ATOM     26  C   UNL     1       7.244  -8.197  -3.582  0.00  0.00    +0.143 A 
ATOM     27  C   UNL     1       7.871  -9.052  -4.426  0.00  0.00    +0.036 A 
ATOM     28  C   UNL     1       8.227  -8.609  -5.686  0.00  0.00    +0.010 A 
ATOM     29  C   UNL     1       7.940  -7.332  -6.040  0.00  0.00    +0.047 A 
ATOM     30  S   UNL     1       7.135  -6.715  -4.571  0.00  0.00    -0.077 S 
ENDBRANCH  23  26
ENDBRANCH  22  23
ENDBRANCH  16  17
ENDBRANCH   1  16
TORSDOF 6
