REMARK  Name = ZINC39835819
REMARK  7 active torsions:
REMARK  status: ('A' for Active; 'I' for Inactive)
REMARK    1  A    between atoms: C_1  and  O_2
REMARK    2  A    between atoms: O_2  and  C_3
REMARK    3  A    between atoms: C_8  and  O_9
REMARK    4  A    between atoms: O_9  and  C_10
REMARK    5  A    between atoms: C_11  and  C_21
REMARK    6  A    between atoms: N_25  and  C_29
REMARK    7  A    between atoms: C_29  and  C_30
REMARK                            x       y       z     vdW  Elec       q    Type
REMARK                         _______ _______ _______ _____ _____    ______ ____
ROOT
ATOM      1  C   UNL     1       0.384  -3.790  -0.023  0.00  0.00    +0.235 A 
ATOM      2  C   UNL     1      -0.389  -4.744   0.676  0.00  0.00    +0.103 A 
ATOM      3  C   UNL     1      -0.323  -6.096   0.263  0.00  0.00    +0.269 A 
ATOM      4  O   UNL     1      -0.974  -6.953   0.836  0.00  0.00    -0.266 OA
ATOM      5  N   UNL     1       0.473  -6.422  -0.779  0.00  0.00    -0.268 N 
ATOM      6  C   UNL     1       0.544  -7.721  -1.184  0.00  0.00    +0.096 A 
ATOM      7  C   UNL     1       1.332  -8.080  -2.223  0.00  0.00    +0.018 A 
ATOM      8  C   UNL     1       2.089  -7.112  -2.898  0.00  0.00    +0.005 A 
ATOM      9  C   UNL     1       2.025  -5.810  -2.500  0.00  0.00    +0.047 A 
ATOM     10  C   UNL     1       1.200  -5.455  -1.417  0.00  0.00    +0.144 A 
ATOM     11  N   UNL     1       1.139  -4.178  -1.038  0.00  0.00    -0.194 NA
ENDROOT
BRANCH   2  12
ATOM     12  C   UNL     1      -1.210  -4.356   1.762  0.00  0.00    +0.039 C 
ATOM     13  C   UNL     1      -2.162  -3.395   1.589  0.00  0.00    +0.077 C 
ATOM     14  C   UNL     1      -2.591  -2.749   0.393  0.00  0.00    +0.258 C 
ATOM     15  O   UNL     1      -2.094  -3.029  -0.683  0.00  0.00    -0.269 OA
ATOM     16  N   UNL     1      -3.544  -1.838   0.485  0.00  0.00    -0.253 N 
ATOM     17  C   UNL     1      -4.096  -1.528   1.680  0.00  0.00    +0.121 C 
ATOM     18  S   UNL     1      -5.329  -0.393   2.030  0.00  0.00    -0.027 S 
ATOM     19  S   UNL     1      -3.218  -2.609   2.798  0.00  0.00    -0.061 S 
BRANCH  16  20
ATOM     20  C   UNL     1      -4.009  -1.155  -0.724  0.00  0.00    +0.146 C 
BRANCH  20  21
ATOM     21  C   UNL     1      -5.168  -1.940  -1.341  0.00  0.00    +0.136 C 
ATOM     22  C   UNL     1      -5.585  -1.295  -2.679  0.00  0.00    +0.035 C 
ATOM     23  C   UNL     1      -7.132  -1.419  -2.637  0.00  0.00    +0.031 C 
ATOM     24  C   UNL     1      -7.401  -1.242  -1.122  0.00  0.00    +0.160 C 
ATOM     25  O   UNL     1      -6.302  -1.899  -0.466  0.00  0.00    -0.375 OA
ENDBRANCH  20  21
ENDBRANCH  16  20
ENDBRANCH   2  12
BRANCH   1  26
ATOM     26  O   UNL     1       0.349  -2.488   0.340  0.00  0.00    -0.434 OA
BRANCH  26  32
ATOM     27  C   UNL     1       2.407  -1.376  -0.121  0.00  0.00    +0.162 A 
ATOM     28  C   UNL     1       3.130  -0.473  -0.885  0.00  0.00    +0.049 A 
ATOM     29  C   UNL     1       2.514   0.207  -1.919  0.00  0.00    +0.004 A 
ATOM     30  C   UNL     1       1.177  -0.010  -2.193  0.00  0.00    +0.004 A 
ATOM     31  C   UNL     1       0.449  -0.909  -1.436  0.00  0.00    +0.050 A 
ATOM     32  C   UNL     1       1.062  -1.599  -0.402  0.00  0.00    +0.172 A 
BRANCH  27  34
ATOM     33  C   UNL     1       4.394  -1.767   1.126  0.00  0.00    +0.277 C 
ATOM     34  O   UNL     1       3.011  -2.046   0.896  0.00  0.00    -0.491 OA
ENDBRANCH  27  34
ENDBRANCH  26  32
ENDBRANCH   1  26
TORSDOF 6
