REMARK  Name = ZINC64450762
REMARK  9 active torsions:
REMARK  status: ('A' for Active; 'I' for Inactive)
REMARK    1  A    between atoms: C_1  and  C_2
REMARK    2  A    between atoms: C_2  and  C_3
REMARK    3  A    between atoms: C_2  and  N_4
REMARK    4  A    between atoms: N_4  and  C_5
REMARK    5  A    between atoms: N_4  and  S_11
REMARK    6  A    between atoms: S_11  and  C_14
REMARK    7  A    between atoms: N_20  and  C_25
REMARK    8  A    between atoms: C_25  and  C_26
REMARK    9  A    between atoms: C_28  and  C_31
REMARK                            x       y       z     vdW  Elec       q    Type
REMARK                         _______ _______ _______ _____ _____    ______ ____
ROOT
ATOM      1  C   UNL     1      -2.575  -2.660  -0.646  0.00  0.00    +0.107 A 
ATOM      2  C   UNL     1      -1.596  -3.629  -0.757  0.00  0.00    +0.032 A 
ATOM      3  C   UNL     1      -1.832  -4.914  -0.302  0.00  0.00    +0.049 A 
ATOM      4  C   UNL     1      -3.054  -5.230   0.266  0.00  0.00    +0.143 A 
ATOM      5  C   UNL     1      -4.041  -4.253   0.378  0.00  0.00    +0.081 A 
ATOM      6  C   UNL     1      -3.796  -2.967  -0.075  0.00  0.00    +0.055 A 
ATOM      7  N   UNL     1      -5.275  -4.587   0.953  0.00  0.00    -0.258 N 
ATOM      8  C   UNL     1      -5.377  -5.732   1.663  0.00  0.00    +0.258 C 
ATOM      9  O   UNL     1      -6.442  -6.057   2.144  0.00  0.00    -0.271 OA
ATOM     10  C   UNL     1      -4.162  -6.603   1.856  0.00  0.00    +0.325 C 
ATOM     11  O   UNL     1      -3.303  -6.488   0.719  0.00  0.00    -0.481 OA
ENDROOT
BRANCH   1  12
ATOM     12  S   UNL     1      -2.264  -1.026  -1.228  0.00  0.00    +0.061 S 
ATOM     13  O   UNL     1      -3.523  -0.476  -1.587  0.00  0.00    -0.153 OA
ATOM     14  O   UNL     1      -1.184  -1.121  -2.146  0.00  0.00    -0.153 OA
BRANCH  12  15
ATOM     15  N   UNL     1      -1.712  -0.144   0.061  0.00  0.00    -0.171 NA
BRANCH  15  16
ATOM     16  C   UNL     1      -2.665   0.504   0.966  0.00  0.00    +0.080 C 
ATOM     17  C   UNL     1      -2.431   2.016   0.955  0.00  0.00    +0.020 C 
ATOM     18  C   UNL     1      -3.426   2.693   1.900  0.00  0.00    +0.002 C 
ATOM     19  C   UNL     1      -3.226   2.157   3.319  0.00  0.00    +0.000 C 
ATOM     20  C   UNL     1      -3.460   0.645   3.330  0.00  0.00    +0.002 C 
ATOM     21  C   UNL     1      -2.466  -0.032   2.385  0.00  0.00    +0.020 C 
ENDBRANCH  15  16
BRANCH  15  23
ATOM     22  C   UNL     1       0.362  -1.403   0.369  0.00  0.00    +0.025 C 
ATOM     23  C   UNL     1      -0.272  -0.012   0.296  0.00  0.00    +0.074 C 
ATOM     24  C   UNL     1       0.361   0.778  -0.851  0.00  0.00    +0.025 C 
ENDBRANCH  15  23
ENDBRANCH  12  15
ENDBRANCH   1  12
BRANCH   7  25
ATOM     25  C   UNL     1      -6.436  -3.709   0.787  0.00  0.00    +0.193 C 
BRANCH  25  26
ATOM     26  C   UNL     1      -7.195  -4.108  -0.452  0.00  0.00    +0.189 A 
ATOM     27  N   UNL     1      -6.979  -3.632  -1.683  0.00  0.00    -0.194 NA
ATOM     28  C   UNL     1      -7.807  -4.184  -2.527  0.00  0.00    +0.231 A 
ATOM     29  O   UNL     1      -8.586  -5.039  -1.853  0.00  0.00    -0.338 OA
ATOM     30  N   UNL     1      -8.164  -4.977  -0.499  0.00  0.00    -0.060 NA
BRANCH  28  31
ATOM     31  C   UNL     1      -7.875  -3.906  -4.007  0.00  0.00    +0.078 C 
ATOM     32  C   UNL     1      -9.307  -3.896  -4.567  0.00  0.00    +0.013 C 
ATOM     33  C   UNL     1      -8.747  -4.631  -5.796  0.00  0.00    +0.001 C 
ATOM     34  C   UNL     1      -7.627  -5.148  -4.879  0.00  0.00    +0.013 C 
ENDBRANCH  28  31
ENDBRANCH  25  26
ENDBRANCH   7  25
TORSDOF 7
