REMARK  Name = ZINC06546352
REMARK  8 active torsions:
REMARK  status: ('A' for Active; 'I' for Inactive)
REMARK    1  A    between atoms: C_1  and  C_2
REMARK    2  A    between atoms: C_2  and  C_3
REMARK    3  A    between atoms: C_3  and  C_4
REMARK    4  A    between atoms: C_3  and  C_5
REMARK    5  A    between atoms: C_3  and  N_6
REMARK    6  A    between atoms: C_7  and  C_11
REMARK    7  A    between atoms: C_11  and  C_13
REMARK    8  A    between atoms: C_11  and  N_66
REMARK                            x       y       z     vdW  Elec       q    Type
REMARK                         _______ _______ _______ _____ _____    ______ ____
ROOT
ATOM      1  C   UNL     1       2.043   3.525   0.690  0.00  0.00    +0.033 C 
ENDROOT
BRANCH   1  16
ATOM      2  C   UNL     1       4.191   3.505  -0.427  0.00  0.00    -0.058 C 
ATOM      3  C   UNL     1       5.158   2.631  -1.229  0.00  0.00    +0.088 C 
ATOM      4  N   UNL     1       4.508   2.204  -2.476  0.00  0.00    -0.313 N 
ATOM      5  C   UNL     1       3.282   1.443  -2.193  0.00  0.00    +0.088 C 
ATOM      6  C   UNL     1       2.316   2.317  -1.391  0.00  0.00    -0.058 C 
ATOM      7  C   UNL     1       5.375   1.471  -3.260  0.00  0.00    +0.162 A 
ATOM      8  N   UNL     1       6.560   1.809  -3.715  0.00  0.00    -0.225 NA
ATOM      9  C   UNL     1       7.306   0.982  -4.480  0.00  0.00    +0.080 A 
ATOM     10  C   UNL     1       8.587   1.220  -5.030  0.00  0.00    +0.029 A 
ATOM     11  C   UNL     1       9.212   0.265  -5.789  0.00  0.00    +0.002 A 
ATOM     12  C   UNL     1       8.617  -0.961  -6.045  0.00  0.00    +0.001 A 
ATOM     13  C   UNL     1       7.364  -1.228  -5.522  0.00  0.00    +0.017 A 
ATOM     14  C   UNL     1       6.731  -0.278  -4.761  0.00  0.00    +0.041 A 
ATOM     15  S   UNL     1       5.176  -0.183  -3.907  0.00  0.00    -0.052 S 
ATOM     16  N   UNL     1       2.974   2.721  -0.131  0.00  0.00    +0.391 N 
ATOM     17  H   UNL     1       3.238   1.879   0.393  0.00  0.00    -0.080 HD
ENDBRANCH   1  16
BRANCH   1  18
ATOM     18  C   UNL     1       0.843   2.681   1.036  0.00  0.00    -0.053 A 
ATOM     19  C   UNL     1       1.028   1.386   1.518  0.00  0.00    +0.004 A 
ATOM     20  C   UNL     1      -0.033   0.598   1.838  0.00  0.00    +0.028 A 
ATOM     21  C   UNL     1      -1.341   1.089   1.679  0.00  0.00    +0.071 A 
ATOM     22  C   UNL     1      -1.527   2.408   1.195  0.00  0.00    +0.001 A 
ATOM     23  C   UNL     1      -0.408   3.193   0.874  0.00  0.00    +0.012 A 
ATOM     24  C   UNL     1      -2.836   2.900   1.041  0.00  0.00    +0.011 A 
ATOM     25  C   UNL     1      -3.877   2.079   1.374  0.00  0.00    +0.020 A 
ATOM     26  C   UNL     1      -3.624   0.794   1.850  0.00  0.00    +0.111 A 
ATOM     27  N   UNL     1      -2.402   0.339   1.991  0.00  0.00    -0.255 NA
ENDBRANCH   1  18
BRANCH   1  29
ATOM     28  N   UNL     1       2.837   5.195   2.446  0.00  0.00    -0.225 N 
ATOM     29  C   UNL     1       2.743   3.944   1.957  0.00  0.00    +0.143 A 
ATOM     30  N   UNL     1       3.383   3.164   2.793  0.00  0.00    -0.115 NA
ATOM     31  N   UNL     1       3.842   3.896   3.749  0.00  0.00    -0.023 NA
ATOM     32  N   UNL     1       3.512   5.123   3.544  0.00  0.00    -0.043 NA
BRANCH  28  33
ATOM     33  C   UNL     1       2.277   6.409   1.847  0.00  0.00    +0.061 C 
ATOM     34  C   UNL     1       2.944   6.663   0.494  0.00  0.00    +0.036 C 
ATOM     35  C   UNL     1       0.771   6.230   1.649  0.00  0.00    +0.036 C 
BRANCH  33  37
ATOM     36  C   UNL     1       1.947   8.867   2.148  0.00  0.00    +0.006 C 
ATOM     37  C   UNL     1       2.532   7.599   2.774  0.00  0.00    +0.026 C 
ENDBRANCH  33  37
ENDBRANCH  28  33
ENDBRANCH   1  29
TORSDOF 5
