REMARK  Name = ZINC22373388
REMARK  7 active torsions:
REMARK  status: ('A' for Active; 'I' for Inactive)
REMARK    1  A    between atoms: C_7  and  C_11
REMARK    2  A    between atoms: C_17  and  C_19
REMARK    3  A    between atoms: C_19  and  N_20
REMARK    4  A    between atoms: N_20  and  C_21
REMARK    5  A    between atoms: N_20  and  C_27
REMARK    6  A    between atoms: C_21  and  C_22
REMARK    7  A    between atoms: C_27  and  C_28
REMARK                            x       y       z     vdW  Elec       q    Type
REMARK                         _______ _______ _______ _____ _____    ______ ____
ROOT
ATOM      1  C   UNL     1       1.017  -3.708   0.113  0.00  0.00    +0.082 A 
ATOM      2  C   UNL     1       1.410  -5.008   0.268  0.00  0.00    +0.077 A 
ATOM      3  S   UNL     1      -0.169  -5.840   0.234  0.00  0.00    -0.060 S 
ATOM      4  C   UNL     1      -1.146  -4.485   0.032  0.00  0.00    +0.165 A 
ATOM      5  N   UNL     1      -0.287  -3.491   0.003  0.00  0.00    -0.225 NA
ATOM      6  N   UNL     1      -2.530  -4.430  -0.074  0.00  0.00    -0.264 N 
ATOM      7  C   UNL     1      -3.256  -5.564  -0.016  0.00  0.00    +0.233 C 
ATOM      8  O   UNL     1      -2.701  -6.632   0.129  0.00  0.00    -0.274 OA
ATOM      9  H   UNL     1      -2.974  -3.575  -0.190  0.00  0.00    +0.157 HD
ENDROOT
BRANCH   1  16
ATOM     10  C   UNL     1       0.576   0.926  -0.356  0.00  0.00    +0.001 A 
ATOM     11  C   UNL     1       1.796   1.586  -0.333  0.00  0.00    +0.002 A 
ATOM     12  C   UNL     1       2.972   0.883  -0.184  0.00  0.00    +0.026 A 
ATOM     13  C   UNL     1       2.937  -0.502  -0.056  0.00  0.00    +0.047 A 
ATOM     14  C   UNL     1       1.698  -1.164  -0.080  0.00  0.00    +0.009 A 
ATOM     15  C   UNL     1       0.520  -0.434  -0.232  0.00  0.00    +0.010 A 
ATOM     16  C   UNL     1       1.999  -2.596   0.076  0.00  0.00    +0.026 A 
ATOM     17  C   UNL     1       3.345  -2.703   0.180  0.00  0.00    +0.093 A 
ATOM     18  N   UNL     1       3.914  -1.461   0.103  0.00  0.00    -0.360 N 
ATOM     19  H   UNL     1       4.866  -1.282   0.152  0.00  0.00    +0.165 HD
ENDBRANCH   1  16
BRANCH   7  20
ATOM     20  C   UNL     1      -4.758  -5.504  -0.131  0.00  0.00    +0.181 C 
BRANCH  20  21
ATOM     21  N   UNL     1      -5.310  -6.862  -0.038  0.00  0.00    -0.287 NA
BRANCH  21  22
ATOM     22  C   UNL     1      -5.085  -7.432   1.296  0.00  0.00    +0.127 C 
BRANCH  22  23
ATOM     23  C   UNL     1      -5.294  -8.924   1.247  0.00  0.00    +0.004 A 
ATOM     24  C   UNL     1      -4.406  -9.900   0.940  0.00  0.00    +0.012 A 
ATOM     25  C   UNL     1      -4.824 -11.218   0.960  0.00  0.00    +0.008 A 
ATOM     26  C   UNL     1      -6.111 -11.494   1.287  0.00  0.00    +0.045 A 
ATOM     27  S   UNL     1      -6.773  -9.863   1.587  0.00  0.00    -0.100 S 
ENDBRANCH  22  23
ENDBRANCH  21  22
BRANCH  21  28
ATOM     28  C   UNL     1      -6.739  -6.873  -0.381  0.00  0.00    +0.116 C 
BRANCH  28  29
ATOM     29  C   UNL     1      -6.901  -6.746  -1.897  0.00  0.00    +0.132 C 
ATOM     30  C   UNL     1      -8.400  -6.750  -2.266  0.00  0.00    +0.035 C 
ATOM     31  C   UNL     1      -8.417  -7.599  -3.566  0.00  0.00    +0.031 C 
ATOM     32  C   UNL     1      -7.284  -8.614  -3.270  0.00  0.00    +0.160 C 
ATOM     33  O   UNL     1      -6.290  -7.867  -2.547  0.00  0.00    -0.375 OA
ENDBRANCH  28  29
ENDBRANCH  21  28
ENDBRANCH  20  21
ENDBRANCH   7  20
TORSDOF 7
