REMARK  Name = ZINC08788792
REMARK  8 active torsions:
REMARK  status: ('A' for Active; 'I' for Inactive)
REMARK    1  A    between atoms: C_1  and  O_2
REMARK    2  A    between atoms: O_2  and  C_3
REMARK    3  A    between atoms: C_6  and  C_9
REMARK    4  A    between atoms: C_9  and  N_10
REMARK    5  A    between atoms: C_15  and  C_31
REMARK    6  A    between atoms: C_31  and  C_32
REMARK    7  A    between atoms: C_32  and  S_33
REMARK    8  A    between atoms: S_33  and  C_34
REMARK                            x       y       z     vdW  Elec       q    Type
REMARK                         _______ _______ _______ _____ _____    ______ ____
ROOT
ATOM      1  N   UNL     1       0.044   7.617   2.595  0.00  0.00    -0.237 N 
ATOM      2  C   UNL     1       0.071   7.707   3.929  0.00  0.00    +0.224 C 
ATOM      3  O   UNL     1      -0.839   7.402   4.670  0.00  0.00    -0.275 OA
ATOM      4  C   UNL     1       1.413   8.245   4.370  0.00  0.00    +0.073 C 
ATOM      5  C   UNL     1       1.237   9.655   4.972  0.00  0.00    -0.057 C 
ATOM      6  C   UNL     1       2.358   9.993   2.933  0.00  0.00    +0.050 C 
ATOM      7  C   UNL     1       2.166   8.475   3.029  0.00  0.00    +0.088 C 
ATOM      8  C   UNL     1       1.166   8.023   1.988  0.00  0.00    +0.225 C 
ATOM      9  O   UNL     1       1.352   8.026   0.790  0.00  0.00    -0.275 OA
ATOM     10  C   UNL     1       3.729  10.405   3.388  0.00  0.00    -0.028 A 
ATOM     11  C   UNL     1       4.418  10.261   4.571  0.00  0.00    +0.004 A 
ATOM     12  C   UNL     1       5.703  10.761   4.690  0.00  0.00    +0.000 A 
ATOM     13  C   UNL     1       6.292  11.404   3.617  0.00  0.00    +0.002 A 
ATOM     14  C   UNL     1       5.606  11.551   2.430  0.00  0.00    +0.023 A 
ATOM     15  C   UNL     1       4.312  11.051   2.302  0.00  0.00    +0.036 A 
ATOM     16  N   UNL     1       3.428  11.073   1.221  0.00  0.00    -0.286 N 
ATOM     17  C   UNL     1       2.257  10.472   1.510  0.00  0.00    +0.211 C 
ATOM     18  O   UNL     1       1.307  10.342   0.768  0.00  0.00    -0.277 OA
ATOM     19  H   UNL     1       3.632  11.475   0.363  0.00  0.00    +0.155 HD
ATOM     20  N   UNL     1       1.331  10.551   3.815  0.00  0.00    +0.394 N 
ATOM     21  H   UNL     1       1.599  11.494   4.119  0.00  0.00    -0.083 HD
ATOM     22  H   UNL     1       0.429  10.593   3.326  0.00  0.00    -0.083 HD
ENDROOT
BRANCH   1  23
ATOM     23  C   UNL     1      -1.120   7.122   1.857  0.00  0.00    +0.151 C 
BRANCH  23  27
ATOM     24  C   UNL     1      -0.787   2.892   1.346  0.00  0.00    +0.120 A 
ATOM     25  C   UNL     1      -0.253   3.751   0.396  0.00  0.00    +0.046 A 
ATOM     26  C   UNL     1      -0.368   5.117   0.561  0.00  0.00    +0.009 A 
ATOM     27  C   UNL     1      -1.003   5.630   1.677  0.00  0.00    -0.029 A 
ATOM     28  C   UNL     1      -1.531   4.776   2.628  0.00  0.00    +0.009 A 
ATOM     29  C   UNL     1      -1.425   3.409   2.465  0.00  0.00    +0.046 A 
BRANCH  24  31
ATOM     30  C   UNL     1      -0.013   1.086   0.008  0.00  0.00    +0.277 C 
ATOM     31  O   UNL     1      -0.682   1.547   1.184  0.00  0.00    -0.495 OA
ENDBRANCH  24  31
ENDBRANCH  23  27
ENDBRANCH   1  23
BRANCH   5  32
ATOM     32  C   UNL     1      -0.124   9.773   5.661  0.00  0.00    -0.004 C 
BRANCH  32  33
ATOM     33  C   UNL     1      -0.228  11.131   6.357  0.00  0.00    +0.067 C 
BRANCH  33  34
ATOM     34  S   UNL     1      -1.842  11.271   7.173  0.00  0.00    -0.164 S 
ATOM     35  C   UNL     1      -1.805  12.915   7.940  0.00  0.00    +0.084 C 
ENDBRANCH  33  34
ENDBRANCH  32  33
ENDBRANCH   5  32
TORSDOF 6
