REMARK  Name = ZINC64131755
REMARK  6 active torsions:
REMARK  status: ('A' for Active; 'I' for Inactive)
REMARK    1  A    between atoms: C_1  and  C_2
REMARK    2  A    between atoms: C_2  and  C_4
REMARK    3  A    between atoms: C_2  and  N_27
REMARK    4  A    between atoms: N_13  and  C_16
REMARK    5  A    between atoms: C_16  and  C_17
REMARK    6  A    between atoms: C_28  and  C_30
REMARK                            x       y       z     vdW  Elec       q    Type
REMARK                         _______ _______ _______ _____ _____    ______ ____
ROOT
ATOM      1  C   UNL     1       0.609  -1.334   1.349  0.00  0.00    +0.219 C 
ATOM      2  N   UNL     1      -0.004  -0.751   2.559  0.00  0.00    -0.170 NA
ATOM      3  N   UNL     1       0.523   0.344   2.837  0.00  0.00    -0.172 NA
ATOM      4  C   UNL     1       1.533   0.676   1.844  0.00  0.00    +0.200 C 
ATOM      5  N   UNL     1       1.924  -0.672   1.278  0.00  0.00    -0.254 NA
ATOM      6  C   UNL     1       2.405  -0.378  -0.079  0.00  0.00    +0.104 C 
ATOM      7  C   UNL     1       3.915  -0.622  -0.108  0.00  0.00    +0.100 C 
ATOM      8  N   UNL     1       4.576   0.207   0.956  0.00  0.00    -0.299 NA
ATOM      9  C   UNL     1       3.852   1.435   1.222  0.00  0.00    +0.088 C 
ATOM     10  C   UNL     1       2.797   1.300   2.330  0.00  0.00    +0.060 C 
ENDROOT
BRANCH   1  12
ATOM     11  C   UNL     1      -1.661  -1.499   0.318  0.00  0.00    +0.031 C 
ATOM     12  C   UNL     1      -0.227  -1.008   0.109  0.00  0.00    +0.111 C 
BRANCH  12  13
ATOM     13  N   UNL     1       0.353  -1.674  -1.060  0.00  0.00    -0.309 N 
ATOM     14  C   UNL     1       0.169  -1.157  -2.290  0.00  0.00    +0.217 C 
ATOM     15  O   UNL     1      -0.477  -0.139  -2.430  0.00  0.00    -0.276 OA
ATOM     16  H   UNL     1       0.869  -2.488  -0.948  0.00  0.00    +0.149 HD
BRANCH  14  17
ATOM     17  C   UNL     1       0.765  -1.842  -3.493  0.00  0.00    +0.079 C 
ATOM     18  C   UNL     1       2.289  -1.896  -3.349  0.00  0.00    +0.041 C 
ATOM     19  C   UNL     1       2.891  -2.522  -4.610  0.00  0.00    +0.160 C 
ATOM     20  O   UNL     1       2.497  -1.760  -5.753  0.00  0.00    -0.380 OA
ATOM     21  C   UNL     1       1.085  -1.714  -5.965  0.00  0.00    +0.160 C 
ATOM     22  C   UNL     1       0.410  -1.055  -4.759  0.00  0.00    +0.041 C 
ENDBRANCH  14  17
ENDBRANCH  12  13
ENDBRANCH   1  12
BRANCH   8  23
ATOM     23  C   UNL     1       5.976   0.486   0.613  0.00  0.00    +0.113 C 
BRANCH  23  24
ATOM     24  C   UNL     1       6.699   1.054   1.837  0.00  0.00    +0.117 C 
ATOM     25  C   UNL     1       8.187   1.126   1.577  0.00  0.00    +0.008 C 
ATOM     26  C   UNL     1       8.768   0.332   2.505  0.00  0.00    -0.004 A 
ATOM     27  C   UNL     1      10.167  -0.015   2.781  0.00  0.00    +0.010 A 
ATOM     28  C   UNL     1      10.445  -0.856   3.803  0.00  0.00    +0.001 A 
ATOM     29  C   UNL     1       9.433  -1.403   4.604  0.00  0.00    +0.002 A 
ATOM     30  C   UNL     1       8.125  -1.131   4.412  0.00  0.00    +0.026 A 
ATOM     31  C   UNL     1       7.718  -0.259   3.365  0.00  0.00    +0.043 A 
ATOM     32  N   UNL     1       6.532   0.154   2.984  0.00  0.00    -0.377 N 
ATOM     33  H   UNL     1       5.687  -0.093   3.391  0.00  0.00    +0.160 HD
ENDBRANCH  23  24
ENDBRANCH   8  23
TORSDOF 5
