REMARK  Name = ZINC63598846
REMARK  6 active torsions:
REMARK  status: ('A' for Active; 'I' for Inactive)
REMARK    1  A    between atoms: C_3  and  C_27
REMARK    2  A    between atoms: C_6  and  C_7
REMARK    3  A    between atoms: N_8  and  N_9
REMARK    4  A    between atoms: C_10  and  C_12
REMARK    5  A    between atoms: C_17  and  O_22
REMARK    6  A    between atoms: O_22  and  C_23
REMARK                            x       y       z     vdW  Elec       q    Type
REMARK                         _______ _______ _______ _____ _____    ______ ____
ROOT
ATOM      1  N   UNL     1      -2.443  -2.780   0.011  0.00  0.00    -0.205 N 
ATOM      2  C   UNL     1      -2.422  -4.127   0.004  0.00  0.00    +0.259 C 
ATOM      3  O   UNL     1      -1.361  -4.717  -0.010  0.00  0.00    -0.271 OA
ATOM      4  H   UNL     1      -3.291  -2.309   0.022  0.00  0.00    +0.177 HD
ENDROOT
BRANCH   2   5
ATOM      5  C   UNL     1      -3.714  -4.902   0.013  0.00  0.00    +0.191 C 
ATOM      6  C   UNL     1      -4.261  -4.987   1.420  0.00  0.00    +0.016 C 
ATOM      7  C   UNL     1      -4.313  -6.304   1.723  0.00  0.00    -0.000 A 
ATOM      8  C   UNL     1      -4.744  -7.034   2.920  0.00  0.00    +0.055 A 
ATOM      9  C   UNL     1      -4.681  -8.387   2.936  0.00  0.00    +0.131 A 
ATOM     10  C   UNL     1      -4.213  -9.129   1.837  0.00  0.00    +0.048 A 
ATOM     11  C   UNL     1      -3.794  -8.548   0.693  0.00  0.00    +0.029 A 
ATOM     12  C   UNL     1      -3.819  -7.087   0.567  0.00  0.00    +0.043 A 
ATOM     13  N   UNL     1      -3.477  -6.286  -0.413  0.00  0.00    -0.370 N 
ATOM     14  H   UNL     1      -3.126  -6.561  -1.275  0.00  0.00    +0.161 HD
BRANCH   9  15
ATOM     15  O   UNL     1      -5.084  -9.050   4.052  0.00  0.00    -0.406 OA
BRANCH  15  16
ATOM     16  C   UNL     1      -5.000 -10.476   4.025  0.00  0.00    +0.575 C 
ATOM     17  F   UNL     1      -3.671 -10.861   3.818  0.00  0.00    -0.133 F 
ATOM     18  F   UNL     1      -5.452 -10.993   5.244  0.00  0.00    -0.133 F 
ATOM     19  F   UNL     1      -5.796 -10.971   2.986  0.00  0.00    -0.133 F 
ENDBRANCH  15  16
ENDBRANCH   9  15
ENDBRANCH   2   5
BRANCH   1  21
ATOM     20  C   UNL     1      -1.263  -0.762   0.011  0.00  0.00    +0.138 C 
ATOM     21  N   UNL     1      -1.242  -2.060   0.003  0.00  0.00    -0.188 NA
BRANCH  20  27
ATOM     22  C   UNL     1      -0.017   1.393   0.010  0.00  0.00    +0.010 A 
ATOM     23  C   UNL     1       1.170   2.095   0.002  0.00  0.00    +0.013 A 
ATOM     24  C   UNL     1       2.378   1.420  -0.013  0.00  0.00    +0.055 A 
ATOM     25  C   UNL     1       2.404   0.036  -0.022  0.00  0.00    +0.013 A 
ATOM     26  C   UNL     1       1.225  -0.679  -0.014  0.00  0.00    +0.010 A 
ATOM     27  C   UNL     1       0.002  -0.004   0.002  0.00  0.00    -0.005 A 
BRANCH  24  28
ATOM     28  C   UNL     1       3.670   2.194  -0.022  0.00  0.00    +0.417 C 
ATOM     29  F   UNL     1       4.083   2.427   1.294  0.00  0.00    -0.166 F 
ATOM     30  F   UNL     1       4.651   1.458  -0.695  0.00  0.00    -0.166 F 
ATOM     31  F   UNL     1       3.477   3.417  -0.673  0.00  0.00    -0.166 F 
ENDBRANCH  24  28
ENDBRANCH  20  27
ENDBRANCH   1  21
TORSDOF 6
