REMARK  Name = ZINC39550207
REMARK  5 active torsions:
REMARK  status: ('A' for Active; 'I' for Inactive)
REMARK    1  A    between atoms: C_1  and  N_2
REMARK    2  A    between atoms: C_9  and  O_31
REMARK    3  A    between atoms: C_11  and  C_15
REMARK    4  A    between atoms: N_17  and  C_18
REMARK    5  A    between atoms: C_20  and  O_30
REMARK                            x       y       z     vdW  Elec       q    Type
REMARK                         _______ _______ _______ _____ _____    ______ ____
ROOT
ATOM      1  C   UNL     1       1.118  -2.637  -1.459  0.00  0.00    +0.229 C 
ATOM      2  O   UNL     1       0.203  -3.362  -1.788  0.00  0.00    -0.275 OA
ATOM      3  N   UNL     1       2.038  -2.258  -2.368  0.00  0.00    -0.297 N 
ATOM      4  H   UNL     1       2.769  -1.678  -2.104  0.00  0.00    +0.150 HD
ENDROOT
BRANCH   1  14
ATOM      5  C   UNL     1      -0.018   1.461   0.010  0.00  0.00    +0.138 C 
ATOM      6  N   UNL     1       0.002  -0.004   0.002  0.00  0.00    -0.273 N 
ATOM      7  C   UNL     1      -1.202  -0.715   0.004  0.00  0.00    +0.042 A 
ATOM      8  C   UNL     1      -2.384  -0.088  -0.368  0.00  0.00    +0.024 A 
ATOM      9  C   UNL     1      -3.569  -0.796  -0.365  0.00  0.00    +0.002 A 
ATOM     10  C   UNL     1      -3.581  -2.127   0.009  0.00  0.00    +0.000 A 
ATOM     11  C   UNL     1      -2.406  -2.754   0.381  0.00  0.00    +0.008 A 
ATOM     12  C   UNL     1      -1.217  -2.052   0.379  0.00  0.00    +0.003 A 
ATOM     13  C   UNL     1       0.065  -2.732   0.783  0.00  0.00    +0.167 C 
ATOM     14  C   UNL     1       1.226  -2.160  -0.033  0.00  0.00    +0.194 C 
ATOM     15  C   UNL     1       1.179  -0.656  -0.013  0.00  0.00    +0.234 C 
ATOM     16  O   UNL     1       2.214  -0.025  -0.004  0.00  0.00    -0.274 OA
BRANCH  13  17
ATOM     17  O   UNL     1      -0.042  -4.135   0.538  0.00  0.00    -0.386 OA
ATOM     18  H   UNL     1      -0.759  -4.565   1.025  0.00  0.00    +0.210 HD
ENDBRANCH  13  17
ENDBRANCH   1  14
BRANCH   3  19
ATOM     19  C   UNL     1       1.933  -2.722  -3.753  0.00  0.00    +0.226 C 
ATOM     20  C   UNL     1       3.334  -2.784  -4.330  0.00  0.00    +0.132 C 
ATOM     21  C   UNL     1       3.584  -2.022  -5.473  0.00  0.00    +0.036 A 
ATOM     22  C   UNL     1       4.860  -2.023  -6.074  0.00  0.00    +0.013 A 
ATOM     23  C   UNL     1       5.077  -1.272  -7.188  0.00  0.00    +0.001 A 
ATOM     24  C   UNL     1       4.065  -0.499  -7.748  0.00  0.00    +0.002 A 
ATOM     25  C   UNL     1       2.813  -0.458  -7.212  0.00  0.00    +0.024 A 
ATOM     26  C   UNL     1       2.517  -1.209  -6.062  0.00  0.00    +0.044 A 
ATOM     27  N   UNL     1       1.285  -1.167  -5.537  0.00  0.00    -0.283 N 
ATOM     28  C   UNL     1       0.930  -1.841  -4.463  0.00  0.00    +0.245 C 
ATOM     29  O   UNL     1      -0.209  -1.755  -4.041  0.00  0.00    -0.273 OA
ATOM     30  H   UNL     1       0.620  -0.611  -5.971  0.00  0.00    +0.155 HD
BRANCH  20  31
ATOM     31  O   UNL     1       4.288  -3.536  -3.769  0.00  0.00    -0.508 OA
ATOM     32  H   UNL     1       5.139  -3.496  -4.226  0.00  0.00    +0.292 HD
ENDBRANCH  20  31
ENDBRANCH   3  19
TORSDOF 4
