REMARK  Name = ZINC02141464
REMARK  10 active torsions:
REMARK  status: ('A' for Active; 'I' for Inactive)
REMARK    1  A    between atoms: C_1  and  C_2
REMARK    2  A    between atoms: C_2  and  O_3
REMARK    3  A    between atoms: O_3  and  C_4
REMARK    4  A    between atoms: C_4  and  C_6
REMARK    5  A    between atoms: C_7  and  C_28
REMARK    6  A    between atoms: C_11  and  N_12
REMARK    7  A    between atoms: N_15  and  C_21
REMARK    8  A    between atoms: C_28  and  O_30
REMARK    9  A    between atoms: O_30  and  C_31
REMARK   10  A    between atoms: C_31  and  C_32
REMARK                            x       y       z     vdW  Elec       q    Type
REMARK                         _______ _______ _______ _____ _____    ______ ____
ROOT
ATOM      1  C   UNL     1      -1.861  -2.149   0.056  0.00  0.00    +0.095 A 
ATOM      2  C   UNL     1      -1.520  -2.831   1.254  0.00  0.00    +0.089 A 
ATOM      3  C   UNL     1      -1.268  -4.190   1.212  0.00  0.00    +0.041 A 
ATOM      4  C   UNL     1      -1.336  -4.883   0.003  0.00  0.00    +0.035 A 
ATOM      5  C   UNL     1      -1.668  -4.215  -1.192  0.00  0.00    +0.073 A 
ATOM      6  C   UNL     1      -1.931  -2.840  -1.162  0.00  0.00    +0.053 A 
ATOM      7  C   UNL     1      -1.710  -5.039  -2.405  0.00  0.00    +0.281 A 
ATOM      8  O   UNL     1      -1.988  -4.553  -3.487  0.00  0.00    -0.265 OA
ATOM      9  N   UNL     1      -1.433  -6.355  -2.282  0.00  0.00    -0.196 N 
ATOM     10  N   UNL     1      -1.134  -6.933  -1.181  0.00  0.00    -0.159 NA
ATOM     11  C   UNL     1      -1.060  -6.309  -0.015  0.00  0.00    +0.147 A 
ATOM     12  C   UNL     1      -0.727  -6.857   1.328  0.00  0.00    +0.245 C 
ATOM     13  O   UNL     1      -0.452  -8.004   1.625  0.00  0.00    -0.278 OA
ATOM     14  S   UNL     1      -0.825  -5.432   2.396  0.00  0.00    -0.044 S 
ENDROOT
BRANCH   9  15
ATOM     15  C   UNL     1      -1.473  -7.140  -3.439  0.00  0.00    +0.069 A 
ATOM     16  C   UNL     1      -0.415  -7.988  -3.742  0.00  0.00    +0.029 A 
ATOM     17  C   UNL     1      -0.461  -8.766  -4.882  0.00  0.00    +0.022 A 
ATOM     18  C   UNL     1      -1.554  -8.694  -5.728  0.00  0.00    +0.041 A 
ATOM     19  C   UNL     1      -2.607  -7.846  -5.431  0.00  0.00    +0.022 A 
ATOM     20  C   UNL     1      -2.569  -7.069  -4.290  0.00  0.00    +0.029 A 
ATOM     21 CL   UNL     1      -1.604  -9.668  -7.163  0.00  0.00    -0.084 Cl
ENDBRANCH   9  15
BRANCH   6  22
ATOM     22  N   UNL     1      -2.259  -2.169  -2.325  0.00  0.00    -0.357 N 
ATOM     23  H   UNL     1      -2.441  -1.217  -2.301  0.00  0.00    +0.142 HD
ATOM     24  H   UNL     1      -2.306  -2.651  -3.166  0.00  0.00    +0.142 HD
ENDBRANCH   6  22
BRANCH   1  25
ATOM     25  C   UNL     1      -2.136  -0.705   0.092  0.00  0.00    +0.342 C 
ATOM     26  O   UNL     1      -3.269  -0.306   0.279  0.00  0.00    -0.245 OA
BRANCH  25  27
ATOM     27  O   UNL     1      -1.131   0.178  -0.081  0.00  0.00    -0.461 OA
BRANCH  27  29
ATOM     28  C   UNL     1      -0.216   2.428  -0.249  0.00  0.00    +0.048 C 
ATOM     29  C   UNL     1      -1.476   1.587  -0.033  0.00  0.00    +0.229 C 
ENDBRANCH  27  29
ENDBRANCH  25  27
ENDBRANCH   1  25
BRANCH   2  30
ATOM     30  C   UNL     1      -1.441  -2.098   2.532  0.00  0.00    +0.341 C 
ATOM     31  O   UNL     1      -2.427  -1.994   3.235  0.00  0.00    -0.245 OA
BRANCH  30  32
ATOM     32  O   UNL     1      -0.276  -1.543   2.920  0.00  0.00    -0.461 OA
BRANCH  32  33
ATOM     33  C   UNL     1      -0.272  -0.837   4.188  0.00  0.00    +0.229 C 
ATOM     34  C   UNL     1       1.127  -0.280   4.458  0.00  0.00    +0.048 C 
ENDBRANCH  32  33
ENDBRANCH  30  32
ENDBRANCH   2  30
TORSDOF 8
