REMARK  Name = ZINC01838639
REMARK  9 active torsions:
REMARK  status: ('A' for Active; 'I' for Inactive)
REMARK    1  A    between atoms: C_1  and  C_2
REMARK    2  A    between atoms: C_2  and  C_42
REMARK    3  A    between atoms: C_6  and  C_35
REMARK    4  A    between atoms: C_13  and  S_17
REMARK    5  A    between atoms: S_17  and  C_18
REMARK    6  A    between atoms: C_18  and  C_19
REMARK    7  A    between atoms: N_21  and  C_22
REMARK    8  A    between atoms: C_22  and  C_23
REMARK    9  A    between atoms: C_22  and  C_29
REMARK                            x       y       z     vdW  Elec       q    Type
REMARK                         _______ _______ _______ _____ _____    ______ ____
ROOT
ATOM      1  C   UNL     1      -0.019   1.526   0.010  0.00  0.00    +0.041 C 
ATOM      2  C   UNL     1       0.002  -0.004   0.002  0.00  0.00    +0.068 C 
ATOM      3  C   UNL     1      -1.431  -0.539   0.039  0.00  0.00    +0.070 C 
ATOM      4  C   UNL     1      -2.029  -0.293   1.399  0.00  0.00    -0.025 A 
ATOM      5  C   UNL     1      -1.261   0.002   2.481  0.00  0.00    +0.011 A 
ATOM      6  C   UNL     1      -1.865   0.215   3.729  0.00  0.00    +0.113 A 
ATOM      7  N   UNL     1      -3.186   0.137   3.858  0.00  0.00    -0.236 NA
ATOM      8  C   UNL     1      -3.954  -0.141   2.829  0.00  0.00    +0.112 A 
ATOM      9  C   UNL     1      -3.436  -0.375   1.541  0.00  0.00    +0.037 A 
ATOM     10  C   UNL     1      -4.428  -0.675   0.493  0.00  0.00    +0.092 A 
ATOM     11  C   UNL     1      -5.767  -0.693   0.903  0.00  0.00    +0.072 A 
ATOM     12  S   UNL     1      -5.711  -0.320   2.634  0.00  0.00    -0.064 S 
ATOM     13  C   UNL     1      -6.787  -0.965   0.001  0.00  0.00    +0.115 A 
ATOM     14  N   UNL     1      -6.458  -1.208  -1.269  0.00  0.00    -0.228 NA
ATOM     15  C   UNL     1      -5.191  -1.188  -1.639  0.00  0.00    +0.223 A 
ATOM     16  N   UNL     1      -4.205  -0.935  -0.816  0.00  0.00    -0.234 NA
ATOM     17  C   UNL     1       0.238   0.114   2.374  0.00  0.00    +0.198 C 
ATOM     18  O   UNL     1       0.694  -0.483   1.161  0.00  0.00    -0.369 OA
ATOM     19  C   UNL     1       0.706  -0.503  -1.261  0.00  0.00    +0.041 C 
ENDROOT
BRANCH   6  20
ATOM     20  C   UNL     1      -1.031   0.530   4.904  0.00  0.00    +0.153 A 
ATOM     21  C   UNL     1      -1.372   1.360   5.927  0.00  0.00    +0.051 A 
ATOM     22  C   UNL     1      -0.286   1.366   6.824  0.00  0.00    +0.042 A 
ATOM     23  C   UNL     1       0.654   0.547   6.311  0.00  0.00    +0.196 A 
ATOM     24  O   UNL     1       0.199   0.040   5.155  0.00  0.00    -0.461 OA
ENDBRANCH   6  20
BRANCH  13  25
ATOM     25  S   UNL     1      -8.471  -0.987   0.519  0.00  0.00    -0.095 S 
BRANCH  25  26
ATOM     26  C   UNL     1      -9.390  -1.380  -0.994  0.00  0.00    +0.171 C 
BRANCH  26  27
ATOM     27  C   UNL     1     -10.865  -1.431  -0.687  0.00  0.00    +0.224 C 
ATOM     28  O   UNL     1     -11.257  -1.222   0.442  0.00  0.00    -0.275 OA
ATOM     29  N   UNL     1     -11.748  -1.708  -1.666  0.00  0.00    -0.304 N 
ATOM     30  H   UNL     1     -11.435  -1.875  -2.569  0.00  0.00    +0.150 HD
BRANCH  29  31
ATOM     31  C   UNL     1     -13.182  -1.757  -1.368  0.00  0.00    +0.134 C 
BRANCH  31  32
ATOM     32  C   UNL     1     -13.966  -1.469  -2.622  0.00  0.00    -0.023 A 
ATOM     33  C   UNL     1     -13.556  -1.998  -3.831  0.00  0.00    +0.006 A 
ATOM     34  C   UNL     1     -14.275  -1.733  -4.981  0.00  0.00    +0.000 A 
ATOM     35  C   UNL     1     -15.406  -0.941  -4.922  0.00  0.00    +0.000 A 
ATOM     36  C   UNL     1     -15.817  -0.412  -3.713  0.00  0.00    +0.000 A 
ATOM     37  C   UNL     1     -15.100  -0.680  -2.562  0.00  0.00    +0.006 A 
ENDBRANCH  31  32
BRANCH  31  38
ATOM     38  C   UNL     1     -13.541  -3.127  -0.854  0.00  0.00    -0.023 A 
ATOM     39  C   UNL     1     -12.969  -4.250  -1.422  0.00  0.00    +0.006 A 
ATOM     40  C   UNL     1     -13.299  -5.507  -0.951  0.00  0.00    +0.000 A 
ATOM     41  C   UNL     1     -14.200  -5.642   0.088  0.00  0.00    +0.000 A 
ATOM     42  C   UNL     1     -14.771  -4.519   0.657  0.00  0.00    +0.000 A 
ATOM     43  C   UNL     1     -14.438  -3.261   0.189  0.00  0.00    +0.006 A 
ENDBRANCH  31  38
ENDBRANCH  29  31
ENDBRANCH  26  27
ENDBRANCH  25  26
ENDBRANCH  13  25
TORSDOF 7
