REMARK  Name = ZINC05006850
REMARK  4 active torsions:
REMARK  status: ('A' for Active; 'I' for Inactive)
REMARK    1  A    between atoms: C_7  and  C_11
REMARK    2  A    between atoms: C_7  and  O_32
REMARK    3  A    between atoms: C_17  and  C_21
REMARK    4  A    between atoms: C_21  and  O_31
REMARK                            x       y       z     vdW  Elec       q    Type
REMARK                         _______ _______ _______ _____ _____    ______ ____
ROOT
ATOM      1  C   UNL     1       0.922  -3.156   1.214  0.00  0.00    +0.101 C 
ATOM      2  C   UNL     1       1.268  -4.655   1.391  0.00  0.00    +0.015 C 
ATOM      3  C   UNL     1       0.490  -5.248   2.590  0.00  0.00    +0.001 C 
ATOM      4  C   UNL     1       0.424  -4.248   3.711  0.00  0.00    +0.001 C 
ATOM      5  C   UNL     1      -0.960  -3.625   3.594  0.00  0.00    +0.015 C 
ATOM      6  C   UNL     1      -1.015  -2.406   2.784  0.00  0.00    +0.101 C 
ATOM      7  C   UNL     1      -0.501  -2.787   1.376  0.00  0.00    +0.147 C 
ATOM      8  O   UNL     1      -1.247  -2.782   0.427  0.00  0.00    -0.297 OA
ENDROOT
BRANCH   1  15
ATOM      9  C   UNL     1      -0.601  -4.998  -2.612  0.00  0.00    +0.000 A 
ATOM     10  C   UNL     1      -1.230  -3.978  -3.303  0.00  0.00    +0.002 A 
ATOM     11  C   UNL     1      -0.997  -2.661  -2.967  0.00  0.00    +0.024 A 
ATOM     12  C   UNL     1      -0.125  -2.348  -1.925  0.00  0.00    +0.040 A 
ATOM     13  C   UNL     1       0.500  -3.381  -1.239  0.00  0.00    +0.015 A 
ATOM     14  C   UNL     1       0.266  -4.695  -1.577  0.00  0.00    +0.009 A 
ATOM     15  C   UNL     1       1.366  -2.729  -0.186  0.00  0.00    +0.178 C 
ATOM     16  C   UNL     1       1.135  -1.246  -0.387  0.00  0.00    +0.254 C 
ATOM     17  O   UNL     1       1.640  -0.346   0.251  0.00  0.00    -0.272 OA
ATOM     18  N   UNL     1       0.267  -1.115  -1.403  0.00  0.00    -0.282 N 
ATOM     19  H   UNL     1      -0.051  -0.261  -1.736  0.00  0.00    +0.155 HD
BRANCH  15  20
ATOM     20  O   UNL     1       2.741  -3.055  -0.398  0.00  0.00    -0.374 OA
ATOM     21  H   UNL     1       3.083  -2.778  -1.259  0.00  0.00    +0.211 HD
ENDBRANCH  15  20
ENDBRANCH   1  15
BRANCH   6  22
ATOM     22  C   UNL     1      -2.456  -1.899   2.698  0.00  0.00    +0.178 C 
ATOM     23  C   UNL     1      -2.496  -0.516   2.092  0.00  0.00    +0.015 A 
ATOM     24  C   UNL     1      -2.115  -0.020   0.865  0.00  0.00    +0.009 A 
ATOM     25  C   UNL     1      -2.275   1.326   0.585  0.00  0.00    +0.000 A 
ATOM     26  C   UNL     1      -2.816   2.168   1.540  0.00  0.00    +0.002 A 
ATOM     27  C   UNL     1      -3.198   1.674   2.770  0.00  0.00    +0.024 A 
ATOM     28  C   UNL     1      -3.041   0.319   3.059  0.00  0.00    +0.040 A 
ATOM     29  N   UNL     1      -3.345  -0.409   4.210  0.00  0.00    -0.282 N 
ATOM     30  C   UNL     1      -3.036  -1.711   4.084  0.00  0.00    +0.254 C 
ATOM     31  O   UNL     1      -3.192  -2.572   4.923  0.00  0.00    -0.272 OA
ATOM     32  H   UNL     1      -3.734  -0.020   5.008  0.00  0.00    +0.155 HD
BRANCH  22  33
ATOM     33  O   UNL     1      -3.260  -2.805   1.939  0.00  0.00    -0.374 OA
ATOM     34  H   UNL     1      -4.184  -2.533   1.852  0.00  0.00    +0.211 HD
ENDBRANCH  22  33
ENDBRANCH   6  22
TORSDOF 4
