REMARK  Name = ZINC33550502
REMARK  4 active torsions:
REMARK  status: ('A' for Active; 'I' for Inactive)
REMARK    1  A    between atoms: C_4  and  C_7
REMARK    2  A    between atoms: C_7  and  N_8
REMARK    3  A    between atoms: C_16  and  C_20
REMARK    4  A    between atoms: C_16  and  O_24
REMARK                            x       y       z     vdW  Elec       q    Type
REMARK                         _______ _______ _______ _____ _____    ______ ____
ROOT
ATOM      1  N   UNL     1       4.152  -0.952   1.338  0.00  0.00    -0.237 N 
ATOM      2  C   UNL     1       4.939  -0.020   1.985  0.00  0.00    +0.133 C 
ATOM      3  C   UNL     1       5.339  -0.292   3.301  0.00  0.00    +0.102 C 
ATOM      4  C   UNL     1       4.957  -1.445   3.911  0.00  0.00    +0.254 C 
ATOM      5  O   UNL     1       5.343  -1.704   5.178  0.00  0.00    -0.270 OA
ATOM      6  N   UNL     1       4.175  -2.342   3.229  0.00  0.00    -0.236 N 
ATOM      7  C   UNL     1       3.784  -2.082   1.968  0.00  0.00    +0.314 C 
ATOM      8  O   UNL     1       3.087  -2.889   1.383  0.00  0.00    -0.252 OA
ATOM      9  C   UNL     1       6.173   0.895   3.724  0.00  0.00    +0.272 C 
ATOM     10  C   UNL     1       6.147   1.779   2.491  0.00  0.00    +0.283 C 
ATOM     11  O   UNL     1       6.692   2.859   2.364  0.00  0.00    -0.270 OA
ATOM     12  N   UNL     1       5.419   1.153   1.582  0.00  0.00    -0.162 NA
ATOM     13  H   UNL     1       3.899  -3.166   3.659  0.00  0.00    +0.159 HD
ENDROOT
BRANCH   9  14
ATOM     14  C   UNL     1       7.604   0.463   4.050  0.00  0.00    +0.431 C 
ATOM     15  F   UNL     1       8.186  -0.118   2.918  0.00  0.00    -0.167 F 
ATOM     16  F   UNL     1       8.351   1.580   4.438  0.00  0.00    -0.167 F 
ATOM     17  F   UNL     1       7.583  -0.469   5.094  0.00  0.00    -0.167 F 
ENDBRANCH   9  14
BRANCH   9  18
ATOM     18  O   UNL     1       5.577   1.562   4.838  0.00  0.00    -0.368 OA
ATOM     19  H   UNL     1       6.074   2.331   5.148  0.00  0.00    +0.212 HD
ENDBRANCH   9  18
BRANCH   1  20
ATOM     20  C   UNL     1       3.711  -0.707  -0.038  0.00  0.00    +0.151 C 
BRANCH  20  24
ATOM     21  C   UNL     1      -0.017   1.378   0.010  0.00  0.00    +0.000 A 
ATOM     22  C   UNL     1       1.171   2.086   0.002  0.00  0.00    +0.000 A 
ATOM     23  C   UNL     1       2.377   1.411  -0.013  0.00  0.00    +0.005 A 
ATOM     24  C   UNL     1       2.396   0.029  -0.020  0.00  0.00    -0.030 A 
ATOM     25  C   UNL     1       1.208  -0.679  -0.012  0.00  0.00    +0.005 A 
ATOM     26  C   UNL     1       0.002  -0.004   0.002  0.00  0.00    +0.000 A 
ENDBRANCH  20  24
ENDBRANCH   1  20
TORSDOF 4
