REMARK  Name = ZINC59819176
REMARK  10 active torsions:
REMARK  status: ('A' for Active; 'I' for Inactive)
REMARK    1  A    between atoms: C_1  and  C_2
REMARK    2  A    between atoms: C_2  and  C_3
REMARK    3  A    between atoms: C_3  and  C_4
REMARK    4  A    between atoms: C_4  and  N_5
REMARK    5  A    between atoms: C_6  and  C_8
REMARK    6  A    between atoms: C_8  and  S_9
REMARK    7  A    between atoms: S_9  and  C_10
REMARK    8  A    between atoms: N_15  and  N_16
REMARK    9  A    between atoms: C_17  and  C_18
REMARK   10  A    between atoms: C_23  and  O_24
REMARK                            x       y       z     vdW  Elec       q    Type
REMARK                         _______ _______ _______ _____ _____    ______ ____
ROOT
ATOM      1  C   UNL     1       3.140  -6.528  -5.433  0.00  0.00    +0.211 A 
ATOM      2  N   UNL     1       3.393  -7.767  -5.870  0.00  0.00    -0.186 NA
ATOM      3  C   UNL     1       4.041  -7.709  -7.015  0.00  0.00    +0.232 A 
ATOM      4  N   UNL     1       4.213  -6.407  -7.331  0.00  0.00    -0.245 N 
ATOM      5  N   UNL     1       3.619  -5.665  -6.297  0.00  0.00    -0.144 NA
ATOM      6  N   UNL     1       4.470  -8.790  -7.761  0.00  0.00    -0.205 N 
ATOM      7  H   UNL     1       4.942  -8.646  -8.597  0.00  0.00    +0.177 HD
ATOM      8  H   UNL     1       4.657  -6.055  -8.118  0.00  0.00    +0.192 HD
ENDROOT
BRANCH   6   9
ATOM      9  N   UNL     1       4.223 -10.094  -7.312  0.00  0.00    -0.187 NA
ATOM     10  C   UNL     1       4.625 -11.110  -8.014  0.00  0.00    +0.142 C 
BRANCH  10  11
ATOM     11  C   UNL     1       4.365 -12.481  -7.541  0.00  0.00    +0.038 A 
ATOM     12  C   UNL     1       4.802 -13.577  -8.290  0.00  0.00    +0.028 A 
ATOM     13  C   UNL     1       4.556 -14.858  -7.842  0.00  0.00    +0.020 A 
ATOM     14  C   UNL     1       3.876 -15.063  -6.653  0.00  0.00    +0.034 A 
ATOM     15  C   UNL     1       3.439 -13.987  -5.903  0.00  0.00    +0.061 A 
ATOM     16  C   UNL     1       3.684 -12.693  -6.335  0.00  0.00    +0.139 A 
ATOM     17 BR   UNL     1       2.511 -14.280  -4.281  0.00  0.00    -0.046 Br
ATOM     18 BR   UNL     1       5.147 -16.340  -8.856  0.00  0.00    -0.050 Br
BRANCH  16  19
ATOM     19  O   UNL     1       3.260 -11.635  -5.596  0.00  0.00    -0.505 OA
ATOM     20  H   UNL     1       2.369 -11.333  -5.817  0.00  0.00    +0.292 HD
ENDBRANCH  16  19
ENDBRANCH  10  11
ENDBRANCH   6   9
BRANCH   1  21
ATOM     21  S   UNL     1       2.294  -6.122  -3.942  0.00  0.00    -0.075 S 
BRANCH  21  22
ATOM     22  C   UNL     1       2.269  -4.308  -3.932  0.00  0.00    +0.173 C 
BRANCH  22  24
ATOM     23  N   UNL     1       1.425  -2.500  -2.470  0.00  0.00    -0.315 N 
ATOM     24  C   UNL     1       1.564  -3.822  -2.692  0.00  0.00    +0.223 C 
ATOM     25  O   UNL     1       1.121  -4.620  -1.894  0.00  0.00    -0.275 OA
ATOM     26  H   UNL     1       1.779  -1.861  -3.109  0.00  0.00    +0.149 HD
BRANCH  23  27
ATOM     27  C   UNL     1       0.739  -2.027  -1.265  0.00  0.00    +0.104 C 
BRANCH  27  28
ATOM     28  C   UNL     1       0.718  -0.497  -1.257  0.00  0.00    +0.018 C 
BRANCH  28  30
ATOM     29  C   UNL     1      -0.019   1.526   0.010  0.00  0.00    +0.004 C 
ATOM     30  C   UNL     1       0.002  -0.004   0.002  0.00  0.00    -0.002 C 
ENDBRANCH  28  30
ENDBRANCH  27  28
ENDBRANCH  23  27
ENDBRANCH  22  24
ENDBRANCH  21  22
ENDBRANCH   1  21
TORSDOF 9
