REMARK  Name = ZINC42432267
REMARK  5 active torsions:
REMARK  status: ('A' for Active; 'I' for Inactive)
REMARK    1  A    between atoms: C_3  and  N_11
REMARK    2  A    between atoms: C_6  and  C_7
REMARK    3  A    between atoms: N_8  and  O_9
REMARK    4  A    between atoms: C_16  and  C_18
REMARK    5  A    between atoms: C_18  and  O_19
REMARK                            x       y       z     vdW  Elec       q    Type
REMARK                         _______ _______ _______ _____ _____    ______ ____
ROOT
ATOM      1  C   UNL     1       0.725   0.257   1.484  0.00  0.00    +0.013 A 
ATOM      2  C   UNL     1       1.891   0.986   1.410  0.00  0.00    +0.024 A 
ATOM      3  C   UNL     1       2.300   1.525   0.194  0.00  0.00    +0.030 A 
ATOM      4  C   UNL     1       1.533   1.328  -0.949  0.00  0.00    +0.024 A 
ATOM      5  C   UNL     1       0.366   0.599  -0.880  0.00  0.00    +0.013 A 
ATOM      6  C   UNL     1      -0.046   0.057   0.338  0.00  0.00    +0.018 A 
ENDROOT
BRANCH   3   7
ATOM      7  N   UNL     1       3.480   2.263   0.122  0.00  0.00    -0.325 N 
ATOM      8  C   UNL     1       3.442   3.716  -0.090  0.00  0.00    +0.105 C 
ATOM      9  C   UNL     1       4.323   4.062  -1.294  0.00  0.00    +0.019 C 
ATOM     10  C   UNL     1       5.727   3.495  -1.073  0.00  0.00    +0.003 C 
ATOM     11  C   UNL     1       5.651   1.972  -0.952  0.00  0.00    +0.025 C 
ATOM     12  C   UNL     1       4.785   1.603   0.262  0.00  0.00    +0.099 C 
BRANCH  12  13
ATOM     13  C   UNL     1       4.590   0.086   0.313  0.00  0.00    +0.178 C 
BRANCH  13  14
ATOM     14  O   UNL     1       4.043  -0.366  -0.927  0.00  0.00    -0.393 OA
ATOM     15  H   UNL     1       3.893  -1.321  -0.966  0.00  0.00    +0.209 HD
ENDBRANCH  13  14
ENDBRANCH  12  13
ENDBRANCH   3   7
BRANCH   6  16
ATOM     16  C   UNL     1      -1.298  -0.726   0.415  0.00  0.00    +0.162 C 
ATOM     17  N   UNL     1      -1.717  -1.388  -0.625  0.00  0.00    -0.072 NA
ATOM     18  N   UNL     1      -2.025  -0.756   1.593  0.00  0.00    -0.340 N 
ATOM     19  H   UNL     1      -1.714  -0.263   2.368  0.00  0.00    +0.144 HD
ATOM     20  H   UNL     1      -2.847  -1.270   1.644  0.00  0.00    +0.144 HD
BRANCH  17  21
ATOM     21  O   UNL     1      -0.909  -1.469  -1.784  0.00  0.00    -0.408 OA
ATOM     22  H   UNL     1      -1.303  -1.981  -2.504  0.00  0.00    +0.328 HD
ENDBRANCH  17  21
ENDBRANCH   6  16
TORSDOF 5
