REMARK  Name = ZINC21865632
REMARK  7 active torsions:
REMARK  status: ('A' for Active; 'I' for Inactive)
REMARK    1  A    between atoms: C_1  and  C_2
REMARK    2  A    between atoms: C_2  and  C_25
REMARK    3  A    between atoms: C_5  and  C_20
REMARK    4  A    between atoms: N_11  and  C_12
REMARK    5  A    between atoms: C_12  and  C_13
REMARK    6  A    between atoms: N_27  and  C_28
REMARK    7  A    between atoms: C_28  and  C_29
REMARK                            x       y       z     vdW  Elec       q    Type
REMARK                         _______ _______ _______ _____ _____    ______ ____
ROOT
ATOM      1  C   UNL     1       2.681   6.045   3.542  0.00  0.00    +0.043 C 
ATOM      2  C   UNL     1       1.252   5.950   3.003  0.00  0.00    +0.129 C 
ATOM      3  C   UNL     1       0.684   7.363   2.865  0.00  0.00    +0.157 C 
ATOM      4  N   UNL     1       0.377   7.889   4.198  0.00  0.00    -0.331 N 
ATOM      5  C   UNL     1       0.368   9.166   4.651  0.00  0.00    +0.085 A 
ATOM      6  C   UNL     1      -0.022   9.152   5.981  0.00  0.00    +0.032 A 
ATOM      7  C   UNL     1      -0.248   7.823   6.344  0.00  0.00    +0.033 A 
ATOM      8  C   UNL     1       0.013   7.051   5.247  0.00  0.00    +0.105 A 
ATOM      9  C   UNL     1      -0.055   5.598   5.056  0.00  0.00    +0.264 C 
ATOM     10  O   UNL     1      -0.551   4.865   5.892  0.00  0.00    -0.268 OA
ATOM     11  N   UNL     1       0.463   5.116   3.902  0.00  0.00    -0.276 N 
ENDROOT
BRANCH   5  12
ATOM     12  C   UNL     1       0.714  10.361   3.868  0.00  0.00    +0.151 A 
ATOM     13  C   UNL     1       0.794  11.636   4.345  0.00  0.00    +0.051 A 
ATOM     14  C   UNL     1       1.155  12.453   3.258  0.00  0.00    +0.042 A 
ATOM     15  C   UNL     1       1.268  11.651   2.180  0.00  0.00    +0.196 A 
ATOM     16  O   UNL     1       1.001  10.389   2.551  0.00  0.00    -0.461 OA
ENDBRANCH   5  12
BRANCH   2  17
ATOM     17  C   UNL     1       1.286   5.304   1.643  0.00  0.00    +0.238 C 
ATOM     18  O   UNL     1       2.340   5.188   1.053  0.00  0.00    -0.273 OA
ATOM     19  N   UNL     1       0.147   4.854   1.081  0.00  0.00    -0.309 N 
ATOM     20  H   UNL     1      -0.795   4.883   1.649  0.00  0.00    +0.149 HD
BRANCH  19  21
ATOM     21  C   UNL     1       0.162   4.326  -0.285  0.00  0.00    +0.139 C 
BRANCH  21  22
ATOM     22  C   UNL     1      -1.229   3.893  -0.672  0.00  0.00    -0.030 A 
ATOM     23  C   UNL     1      -2.089   4.792  -1.276  0.00  0.00    +0.006 A 
ATOM     24  C   UNL     1      -3.365   4.395  -1.631  0.00  0.00    +0.020 A 
ATOM     25  C   UNL     1      -3.780   3.099  -1.383  0.00  0.00    +0.041 A 
ATOM     26  C   UNL     1      -2.919   2.200  -0.779  0.00  0.00    +0.020 A 
ATOM     27  C   UNL     1      -1.644   2.598  -0.424  0.00  0.00    +0.006 A 
ATOM     28 CL   UNL     1      -5.382   2.600  -1.829  0.00  0.00    -0.084 Cl
ENDBRANCH  21  22
ENDBRANCH  19  21
ENDBRANCH   2  17
BRANCH  11  29
ATOM     29  C   UNL     1       0.224   3.715   3.546  0.00  0.00    +0.144 C 
BRANCH  29  30
ATOM     30  C   UNL     1       1.315   2.855   4.131  0.00  0.00    -0.030 A 
ATOM     31  C   UNL     1       2.429   2.544   3.374  0.00  0.00    +0.008 A 
ATOM     32  C   UNL     1       3.433   1.760   3.911  0.00  0.00    +0.038 A 
ATOM     33  C   UNL     1       3.316   1.276   5.203  0.00  0.00    +0.123 A 
ATOM     34  C   UNL     1       2.196   1.583   5.958  0.00  0.00    +0.038 A 
ATOM     35  C   UNL     1       1.197   2.373   5.421  0.00  0.00    +0.008 A 
ATOM     36  F   UNL     1       4.293   0.505   5.727  0.00  0.00    -0.205 F 
ENDBRANCH  29  30
ENDBRANCH  11  29
TORSDOF 6
