REMARK  Name = ZINC39404391
REMARK  13 active torsions:
REMARK  status: ('A' for Active; 'I' for Inactive)
REMARK    1  A    between atoms: C_1  and  C_2
REMARK    2  A    between atoms: C_2  and  O_3
REMARK    3  A    between atoms: O_3  and  C_4
REMARK    4  A    between atoms: C_4  and  C_6
REMARK    5  A    between atoms: C_8  and  C_37
REMARK    6  A    between atoms: C_10  and  C_35
REMARK    7  A    between atoms: C_12  and  N_15
REMARK    8  A    between atoms: C_16  and  C_18
REMARK    9  A    between atoms: C_18  and  S_19
REMARK   10  A    between atoms: S_19  and  C_20
REMARK   11  A    between atoms: N_26  and  N_27
REMARK   12  A    between atoms: C_28  and  C_29
REMARK   13  A    between atoms: C_32  and  C_34
REMARK                            x       y       z     vdW  Elec       q    Type
REMARK                         _______ _______ _______ _____ _____    ______ ____
ROOT
ATOM      1  C   UNL     1       6.209  -6.774  -2.341  0.00  0.00    +0.168 C 
ENDROOT
BRANCH   1   3
ATOM      2  N   UNL     1       4.159  -5.390  -2.361  0.00  0.00    -0.302 N 
ATOM      3  C   UNL     1       5.260  -5.816  -3.012  0.00  0.00    +0.224 C 
ATOM      4  O   UNL     1       5.486  -5.428  -4.139  0.00  0.00    -0.275 OA
ATOM      5  H   UNL     1       3.979  -5.700  -1.460  0.00  0.00    +0.150 HD
BRANCH   2   9
ATOM      6  C   UNL     1       1.468  -2.353  -2.550  0.00  0.00    +0.161 C 
ATOM      7  C   UNL     1       0.827  -3.689  -2.974  0.00  0.00    +0.029 C 
ATOM      8  C   UNL     1       1.757  -4.890  -2.810  0.00  0.00    +0.126 C 
ATOM      9  C   UNL     1       3.236  -4.458  -3.014  0.00  0.00    +0.149 C 
ATOM     10  S   UNL     1       3.203  -2.821  -2.151  0.00  0.00    -0.122 S 
ATOM     11  C   UNL     1       0.414  -3.590  -4.444  0.00  0.00    +0.010 C 
BRANCH   6  12
ATOM     12  C   UNL     1       0.775  -1.794  -1.334  0.00  0.00    +0.321 C 
ATOM     13  O   UNL     1       0.314  -2.540  -0.504  0.00  0.00    -0.250 OA
BRANCH  12  14
ATOM     14  O   UNL     1       0.671  -0.465  -1.174  0.00  0.00    -0.464 OA
BRANCH  14  16
ATOM     15  C   UNL     1      -0.019   1.526   0.010  0.00  0.00    +0.048 C 
ATOM     16  C   UNL     1       0.002  -0.004   0.002  0.00  0.00    +0.229 C 
ENDBRANCH  14  16
ENDBRANCH  12  14
ENDBRANCH   6  12
BRANCH   8  17
ATOM     17  C   UNL     1       1.596  -5.450  -1.458  0.00  0.00    +0.069 C 
ATOM     18  N   UNL     1       1.472  -5.881  -0.414  0.00  0.00    -0.196 NA
ENDBRANCH   8  17
ENDBRANCH   2   9
ENDBRANCH   1   3
BRANCH   1  19
ATOM     19  S   UNL     1       7.580  -7.155  -3.466  0.00  0.00    -0.100 S 
BRANCH  19  20
ATOM     20  C   UNL     1       8.618  -8.303  -2.521  0.00  0.00    +0.303 C 
ATOM     21  N   UNL     1       7.843  -9.491  -2.119  0.00  0.00    -0.213 NA
ATOM     22  C   UNL     1       7.859  -9.482  -0.815  0.00  0.00    +0.227 C 
ATOM     23  N   UNL     1       8.562  -8.414  -0.340  0.00  0.00    -0.249 N 
ATOM     24  N   UNL     1       9.025  -7.700  -1.241  0.00  0.00    -0.171 NA
ATOM     25  N   UNL     1       7.245 -10.426  -0.021  0.00  0.00    -0.206 N 
ATOM     26  H   UNL     1       7.298 -10.356   0.945  0.00  0.00    +0.177 HD
ATOM     27  H   UNL     1       8.687  -8.232   0.604  0.00  0.00    +0.192 HD
BRANCH  25  28
ATOM     28  N   UNL     1       6.545 -11.488  -0.609  0.00  0.00    -0.184 NA
ATOM     29  C   UNL     1       5.966 -12.380   0.141  0.00  0.00    +0.176 C 
BRANCH  29  30
ATOM     30  C   UNL     1       5.234 -13.490  -0.475  0.00  0.00    +0.148 A 
ATOM     31  C   UNL     1       4.579 -14.486   0.191  0.00  0.00    +0.051 A 
ATOM     32  C   UNL     1       4.022 -15.329  -0.788  0.00  0.00    +0.045 A 
ATOM     33  C   UNL     1       4.357 -14.817  -1.990  0.00  0.00    +0.103 A 
ATOM     34  O   UNL     1       5.083 -13.704  -1.797  0.00  0.00    -0.459 OA
ATOM     35  C   UNL     1       3.974 -15.395  -3.328  0.00  0.00    +0.086 C 
ENDBRANCH  29  30
ENDBRANCH  25  28
ENDBRANCH  19  20
ENDBRANCH   1  19
TORSDOF 10
