REMARK  Name = ZINC39021816
REMARK  7 active torsions:
REMARK  status: ('A' for Active; 'I' for Inactive)
REMARK    1  A    between atoms: C_1  and  C_2
REMARK    2  A    between atoms: C_2  and  C_3
REMARK    3  A    between atoms: C_3  and  C_4
REMARK    4  A    between atoms: C_6  and  C_18
REMARK    5  A    between atoms: C_8  and  C_16
REMARK    6  A    between atoms: C_9  and  N_15
REMARK    7  A    between atoms: C_23  and  C_24
REMARK                            x       y       z     vdW  Elec       q    Type
REMARK                         _______ _______ _______ _____ _____    ______ ____
ROOT
ATOM      1  C   UNL     1       0.729  -2.440   1.326  0.00  0.00    +0.069 C 
ATOM      2  C   UNL     1       1.725  -2.985   0.670  0.00  0.00    +0.030 C 
ATOM      3  C   UNL     1       2.873  -2.425  -0.125  0.00  0.00    +0.098 C 
ATOM      4  C   UNL     1       2.978  -3.301  -1.359  0.00  0.00    +0.097 C 
ATOM      5  C   UNL     1       2.265  -4.440  -1.484  0.00  0.00    +0.195 C 
ATOM      6  O   UNL     1       1.379  -4.934  -0.601  0.00  0.00    -0.448 OA
ATOM      7  C   UNL     1       1.482  -4.492   0.756  0.00  0.00    +0.343 C 
ATOM      8  N   UNL     1       0.196  -4.553   1.458  0.00  0.00    -0.138 NA
ATOM      9  N   UNL     1      -0.130  -3.398   1.759  0.00  0.00    -0.155 NA
ENDROOT
BRANCH   3  10
ATOM     10  C   UNL     1       4.146  -2.494   0.677  0.00  0.00    -0.023 A 
ATOM     11  C   UNL     1       4.556  -3.697   1.221  0.00  0.00    +0.005 A 
ATOM     12  C   UNL     1       5.724  -3.761   1.957  0.00  0.00    +0.000 A 
ATOM     13  C   UNL     1       6.483  -2.622   2.149  0.00  0.00    +0.001 A 
ATOM     14  C   UNL     1       6.074  -1.419   1.605  0.00  0.00    +0.012 A 
ATOM     15  C   UNL     1       4.908  -1.356   0.865  0.00  0.00    +0.059 A 
BRANCH  15  16
ATOM     16  C   UNL     1       4.464  -0.046   0.267  0.00  0.00    +0.418 C 
ATOM     17  F   UNL     1       5.433   0.932   0.516  0.00  0.00    -0.166 F 
ATOM     18  F   UNL     1       4.298  -0.196  -1.114  0.00  0.00    -0.166 F 
ATOM     19  F   UNL     1       3.250   0.343   0.843  0.00  0.00    -0.166 F 
ENDBRANCH  15  16
ENDBRANCH   3  10
BRANCH   5  20
ATOM     20  N   UNL     1       2.463  -5.168  -2.630  0.00  0.00    -0.329 N 
ATOM     21  H   UNL     1       3.091  -4.857  -3.300  0.00  0.00    +0.145 HD
ATOM     22  H   UNL     1       1.975  -5.995  -2.769  0.00  0.00    +0.145 HD
ENDBRANCH   5  20
BRANCH   4  23
ATOM     23  C   UNL     1       3.858  -2.910  -2.420  0.00  0.00    +0.101 C 
ATOM     24  N   UNL     1       4.556  -2.600  -3.260  0.00  0.00    -0.191 NA
ENDBRANCH   4  23
BRANCH   1  25
ATOM     25  C   UNL     1       0.565  -0.962   1.571  0.00  0.00    +0.057 C 
BRANCH  25  27
ATOM     26  C   UNL     1      -0.418   1.156   0.681  0.00  0.00    +0.004 C 
ATOM     27  C   UNL     1      -0.251  -0.345   0.433  0.00  0.00    +0.003 C 
ENDBRANCH  25  27
ENDBRANCH   1  25
TORSDOF 6
