REMARK  Name = ZINC60059808
REMARK  7 active torsions:
REMARK  status: ('A' for Active; 'I' for Inactive)
REMARK    1  A    between atoms: C_1  and  C_2
REMARK    2  A    between atoms: C_12  and  C_14
REMARK    3  A    between atoms: C_14  and  C_15
REMARK    4  A    between atoms: C_15  and  C_16
REMARK    5  A    between atoms: C_18  and  C_21
REMARK    6  A    between atoms: C_21  and  N_28
REMARK    7  A    between atoms: C_29  and  C_31
REMARK                            x       y       z     vdW  Elec       q    Type
REMARK                         _______ _______ _______ _____ _____    ______ ____
ROOT
ATOM      1  C   UNL     1       1.231   4.279   4.685  0.00  0.00    +0.228 A 
ATOM      2  N   UNL     1       2.384   4.454   5.269  0.00  0.00    -0.194 NA
ATOM      3  C   UNL     1       2.226   5.149   6.401  0.00  0.00    +0.195 A 
ATOM      4  N   UNL     1       0.963   5.426   6.552  0.00  0.00    -0.059 NA
ATOM      5  O   UNL     1       0.290   4.869   5.433  0.00  0.00    -0.338 OA
ENDROOT
BRANCH   3   6
ATOM      6  C   UNL     1       3.329   5.546   7.347  0.00  0.00    +0.097 C 
ATOM      7  C   UNL     1       4.250   6.524   6.668  0.00  0.00    +0.034 C 
ATOM      8  C   UNL     1       5.715   6.362   7.116  0.00  0.00    +0.003 C 
ATOM      9  C   UNL     1       5.855   6.128   8.632  0.00  0.00    +0.000 C 
ATOM     10  C   UNL     1       4.935   7.005   9.437  0.00  0.00    +0.000 C 
ATOM     11  C   UNL     1       3.638   6.222   9.725  0.00  0.00    +0.003 C 
ATOM     12  C   UNL     1       2.724   6.225   8.592  0.00  0.00    +0.034 C 
BRANCH   6  13
ATOM     13  N   UNL     1       4.082   4.356   7.753  0.00  0.00    -0.303 N 
ATOM     14  C   UNL     1       4.707   3.605   6.824  0.00  0.00    +0.211 C 
ATOM     15  O   UNL     1       4.646   3.914   5.653  0.00  0.00    -0.276 OA
ATOM     16  C   UNL     1       5.481   2.381   7.241  0.00  0.00    +0.109 C 
ATOM     17  H   UNL     1       4.130   4.109   8.689  0.00  0.00    +0.150 HD
ENDBRANCH   6  13
ENDBRANCH   3   6
BRANCH   1  18
ATOM     18  C   UNL     1       0.999   3.545   3.390  0.00  0.00    +0.108 C 
BRANCH  18  19
ATOM     19  C   UNL     1       0.731   2.067   3.681  0.00  0.00    +0.106 C 
BRANCH  19  31
ATOM     20  C   UNL     1      -1.334   1.765   0.839  0.00  0.00    +0.045 C 
ATOM     21  C   UNL     1      -1.389   0.272   0.646  0.00  0.00    -0.029 A 
ATOM     22  C   UNL     1      -2.218  -0.270  -0.316  0.00  0.00    +0.005 A 
ATOM     23  C   UNL     1      -2.267  -1.640  -0.491  0.00  0.00    +0.001 A 
ATOM     24  C   UNL     1      -1.491  -2.469   0.296  0.00  0.00    +0.005 A 
ATOM     25  C   UNL     1      -0.658  -1.934   1.264  0.00  0.00    -0.026 A 
ATOM     26  C   UNL     1      -0.602  -0.560   1.435  0.00  0.00    +0.042 A 
ATOM     27  N   UNL     1       0.242   0.011   2.397  0.00  0.00    -0.271 N 
ATOM     28  C   UNL     1       0.843  -0.858   3.419  0.00  0.00    +0.114 C 
ATOM     29  C   UNL     1       1.362  -2.119   2.715  0.00  0.00    +0.024 C 
ATOM     30  C   UNL     1       0.170  -2.866   2.108  0.00  0.00    +0.038 C 
ATOM     31  C   UNL     1       0.499   1.334   2.386  0.00  0.00    +0.220 C 
ATOM     32  O   UNL     1       0.544   1.934   1.333  0.00  0.00    -0.275 OA
ENDBRANCH  19  31
ENDBRANCH  18  19
ENDBRANCH   1  18
TORSDOF 5
