REMARK  Name = ZINC20356591
REMARK  8 active torsions:
REMARK  status: ('A' for Active; 'I' for Inactive)
REMARK    1  A    between atoms: C_1  and  C_2
REMARK    2  A    between atoms: C_5  and  O_10
REMARK    3  A    between atoms: C_6  and  O_8
REMARK    4  A    between atoms: O_8  and  C_9
REMARK    5  A    between atoms: O_10  and  C_11
REMARK    6  A    between atoms: C_11  and  C_12
REMARK    7  A    between atoms: C_12  and  N_13
REMARK    8  A    between atoms: C_17  and  C_18
REMARK                            x       y       z     vdW  Elec       q    Type
REMARK                         _______ _______ _______ _____ _____    ______ ____
ROOT
ATOM      1  C   UNL     1       2.636  -6.764  -2.938  0.00  0.00    +0.042 C 
ATOM      2  C   UNL     1       3.141  -7.022  -1.675  0.00  0.00    +0.082 C 
ATOM      3  C   UNL     1       2.362  -7.781  -0.659  0.00  0.00    +0.153 C 
ATOM      4  N   UNL     1       1.534  -8.747  -0.964  0.00  0.00    -0.283 NA
ATOM      5  N   UNL     1       2.605  -7.359   0.664  0.00  0.00    -0.150 N 
ATOM      6  C   UNL     1       3.798  -6.722   0.919  0.00  0.00    +0.182 C 
ATOM      7  N   UNL     1       4.714  -6.367   0.053  0.00  0.00    -0.152 NA
ATOM      8  C   UNL     1       4.488  -6.562  -1.264  0.00  0.00    +0.273 C 
ATOM      9  O   UNL     1       5.363  -6.361  -2.092  0.00  0.00    -0.268 OA
ATOM     10  S   UNL     1       3.739  -6.504   2.678  0.00  0.00    -0.018 S 
ATOM     11  C   UNL     1       2.104  -7.176   2.943  0.00  0.00    +0.182 C 
ATOM     12  N   UNL     1       1.754  -7.537   1.734  0.00  0.00    -0.149 NA
ATOM     13  N   UNL     1       1.389  -7.286   4.125  0.00  0.00    -0.308 N 
ATOM     14  C   UNL     1       0.096  -7.981   4.155  0.00  0.00    +0.107 C 
ATOM     15  C   UNL     1       0.140  -9.058   5.245  0.00  0.00    +0.019 C 
ATOM     16  C   UNL     1       0.540  -8.416   6.575  0.00  0.00    +0.003 C 
ATOM     17  C   UNL     1       1.935  -7.801   6.447  0.00  0.00    +0.019 C 
ATOM     18  C   UNL     1       1.914  -6.715   5.373  0.00  0.00    +0.107 C 
ATOM     19  H   UNL     1       0.996  -9.162  -0.272  0.00  0.00    +0.188 HD
ENDROOT
BRANCH   1  24
ATOM     20  N   UNL     1       0.178  -6.706  -2.561  0.00  0.00    -0.344 N 
ATOM     21  C   UNL     1      -0.910  -7.237  -3.171  0.00  0.00    +0.086 A 
ATOM     22  C   UNL     1      -0.505  -7.977  -4.234  0.00  0.00    +0.020 A 
ATOM     23  C   UNL     1       0.887  -7.911  -4.298  0.00  0.00    +0.027 A 
ATOM     24  C   UNL     1       1.306  -7.107  -3.248  0.00  0.00    +0.043 A 
BRANCH  20  25
ATOM     25  C   UNL     1       0.160  -5.845  -1.376  0.00  0.00    +0.162 C 
BRANCH  25  26
ATOM     26  C   UNL     1       0.317  -4.385  -1.804  0.00  0.00    +0.250 C 
BRANCH  26  27
ATOM     27  O   UNL     1       0.414  -3.556  -0.644  0.00  0.00    -0.487 OA
BRANCH  27  32
ATOM     28  C   UNL     1       1.317   1.941  -1.499  0.00  0.00    +0.044 C 
ATOM     29  C   UNL     1       1.076   0.472  -1.268  0.00  0.00    -0.047 A 
ATOM     30  C   UNL     1       1.075  -0.404  -2.338  0.00  0.00    +0.007 A 
ATOM     31  C   UNL     1       0.854  -1.752  -2.131  0.00  0.00    +0.049 A 
ATOM     32  C   UNL     1       0.632  -2.230  -0.849  0.00  0.00    +0.162 A 
ATOM     33  C   UNL     1       0.633  -1.348   0.228  0.00  0.00    +0.162 A 
ATOM     34  C   UNL     1       0.860   0.002   0.014  0.00  0.00    +0.052 A 
BRANCH  33  35
ATOM     35  O   UNL     1       0.416  -1.812   1.488  0.00  0.00    -0.491 OA
ATOM     36  C   UNL     1       0.327  -0.839   2.531  0.00  0.00    +0.277 C 
ENDBRANCH  33  35
ENDBRANCH  27  32
ENDBRANCH  26  27
ENDBRANCH  25  26
ENDBRANCH  20  25
ENDBRANCH   1  24
TORSDOF 6
