REMARK  Name = ZINC45330297
REMARK  10 active torsions:
REMARK  status: ('A' for Active; 'I' for Inactive)
REMARK    1  A    between atoms: C_1  and  C_2
REMARK    2  A    between atoms: C_2  and  O_3
REMARK    3  A    between atoms: O_3  and  C_4
REMARK    4  A    between atoms: C_7  and  S_10
REMARK    5  A    between atoms: S_10  and  N_13
REMARK    6  A    between atoms: N_13  and  C_14
REMARK    7  A    between atoms: C_17  and  C_20
REMARK    8  A    between atoms: N_22  and  N_23
REMARK    9  A    between atoms: C_24  and  C_25
REMARK   10  A    between atoms: C_27  and  N_32
REMARK                            x       y       z     vdW  Elec       q    Type
REMARK                         _______ _______ _______ _____ _____    ______ ____
ROOT
ATOM      1  C   UNL     1      -0.277  -6.237  -4.114  0.00  0.00    +0.048 A 
ATOM      2  C   UNL     1       0.156  -4.957  -4.448  0.00  0.00    +0.025 A 
ATOM      3  C   UNL     1       0.076  -4.521  -5.751  0.00  0.00    +0.015 A 
ATOM      4  C   UNL     1      -0.441  -5.365  -6.739  0.00  0.00    +0.038 A 
ATOM      5  C   UNL     1      -0.875  -6.650  -6.399  0.00  0.00    +0.015 A 
ATOM      6  C   UNL     1      -0.787  -7.082  -5.096  0.00  0.00    +0.025 A 
ENDROOT
BRANCH   4   7
ATOM      7  C   UNL     1      -0.529  -4.900  -8.136  0.00  0.00    +0.263 C 
ATOM      8  O   UNL     1      -0.152  -3.782  -8.430  0.00  0.00    -0.268 OA
ATOM      9  N   UNL     1      -1.028  -5.715  -9.087  0.00  0.00    -0.203 N 
ATOM     10  H   UNL     1      -1.329  -6.606  -8.852  0.00  0.00    +0.178 HD
BRANCH   9  11
ATOM     11  N   UNL     1      -1.111  -5.273 -10.414  0.00  0.00    -0.187 NA
ATOM     12  C   UNL     1      -1.591  -6.058 -11.330  0.00  0.00    +0.142 C 
BRANCH  12  13
ATOM     13  C   UNL     1      -1.679  -5.594 -12.726  0.00  0.00    +0.043 A 
ATOM     14  C   UNL     1      -2.200  -6.433 -13.713  0.00  0.00    +0.046 A 
ATOM     15  C   UNL     1      -2.279  -5.992 -15.018  0.00  0.00    +0.127 A 
ATOM     16  C   UNL     1      -1.844  -4.721 -15.353  0.00  0.00    +0.036 A 
ATOM     17  C   UNL     1      -1.327  -3.881 -14.385  0.00  0.00    +0.054 A 
ATOM     18  C   UNL     1      -1.245  -4.306 -13.069  0.00  0.00    +0.188 A 
ATOM     19  O   UNL     1      -0.742  -3.479 -12.116  0.00  0.00    -0.287 OA
BRANCH  15  20
ATOM     20  N   UNL     1      -2.831  -6.882 -16.064  0.00  0.00    +0.056 N 
ATOM     21  O   UNL     1      -3.212  -7.992 -15.774  0.00  0.00    -0.126 OA
ATOM     22  O   UNL     1      -2.902  -6.498 -17.208  0.00  0.00    -0.126 OA
ENDBRANCH  15  20
ENDBRANCH  12  13
ENDBRANCH   9  11
ENDBRANCH   4   7
BRANCH   1  23
ATOM     23  N   UNL     1      -0.195  -6.675  -2.796  0.00  0.00    -0.216 N 
ATOM     24  H   UNL     1      -0.997  -6.735  -2.254  0.00  0.00    +0.174 HD
BRANCH  23  25
ATOM     25  S   UNL     1       1.273  -7.095  -2.154  0.00  0.00    +0.072 S 
ATOM     26  O   UNL     1       1.026  -7.513  -0.818  0.00  0.00    -0.150 OA
ATOM     27  O   UNL     1       2.171  -6.040  -2.469  0.00  0.00    -0.150 OA
BRANCH  25  31
ATOM     28  C   UNL     1       2.725 -10.746  -4.405  0.00  0.00    +0.121 A 
ATOM     29  C   UNL     1       3.145  -9.481  -4.788  0.00  0.00    +0.047 A 
ATOM     30  C   UNL     1       2.700  -8.369  -4.100  0.00  0.00    +0.032 A 
ATOM     31  C   UNL     1       1.837  -8.516  -3.030  0.00  0.00    +0.109 A 
ATOM     32  C   UNL     1       1.418  -9.776  -2.645  0.00  0.00    +0.032 A 
ATOM     33  C   UNL     1       1.855 -10.891  -3.334  0.00  0.00    +0.047 A 
BRANCH  28  34
ATOM     34  O   UNL     1       3.160 -11.842  -5.080  0.00  0.00    -0.492 OA
BRANCH  34  36
ATOM     35  C   UNL     1       4.433 -12.959  -6.805  0.00  0.00    +0.048 C 
ATOM     36  C   UNL     1       4.055 -11.618  -6.172  0.00  0.00    +0.225 C 
ENDBRANCH  34  36
ENDBRANCH  28  34
ENDBRANCH  25  31
ENDBRANCH  23  25
ENDBRANCH   1  23
TORSDOF 9
