REMARK  Name = ZINC12642813
REMARK  6 active torsions:
REMARK  status: ('A' for Active; 'I' for Inactive)
REMARK    1  A    between atoms: C_4  and  C_7
REMARK    2  A    between atoms: C_7  and  N_8
REMARK    3  A    between atoms: C_9  and  C_29
REMARK    4  A    between atoms: C_17  and  C_23
REMARK    5  A    between atoms: N_25  and  C_26
REMARK    6  A    between atoms: N_31  and  C_32
REMARK                            x       y       z     vdW  Elec       q    Type
REMARK                         _______ _______ _______ _____ _____    ______ ____
ROOT
ATOM      1  N   UNL     1       1.535   3.223  -1.557  0.00  0.00    -0.282 N 
ATOM      2  C   UNL     1       1.711   2.997  -0.103  0.00  0.00    +0.199 C 
ATOM      3  C   UNL     1       1.302   1.570   0.094  0.00  0.00    +0.127 C 
ATOM      4  C   UNL     1       1.799   0.691   1.185  0.00  0.00    +0.009 C 
ATOM      5  C   UNL     1       0.981  -0.380   1.134  0.00  0.00    +0.004 C 
ATOM      6  C   UNL     1      -0.022  -0.118   0.005  0.00  0.00    +0.155 C 
ATOM      7  O   UNL     1      -0.134   1.349   0.086  0.00  0.00    -0.358 OA
ATOM      8  C   UNL     1       0.746  -0.256  -1.349  0.00  0.00    +0.122 C 
ATOM      9  C   UNL     1       1.741   0.916  -1.268  0.00  0.00    +0.128 C 
ATOM     10  C   UNL     1       1.482   2.035  -2.237  0.00  0.00    +0.224 C 
ATOM     11  O   UNL     1       1.257   1.899  -3.421  0.00  0.00    -0.275 OA
ENDROOT
BRANCH   8  12
ATOM     12  C   UNL     1      -0.190  -0.088  -2.519  0.00  0.00    +0.220 C 
ATOM     13  O   UNL     1      -1.173   0.614  -2.413  0.00  0.00    -0.275 OA
ATOM     14  N   UNL     1       0.066  -0.719  -3.682  0.00  0.00    -0.312 N 
ATOM     15  H   UNL     1       0.852  -1.281  -3.766  0.00  0.00    +0.149 HD
BRANCH  14  16
ATOM     16  C   UNL     1      -0.843  -0.557  -4.819  0.00  0.00    +0.073 C 
ATOM     17  C   UNL     1      -1.211  -1.811  -5.615  0.00  0.00    +0.024 C 
ATOM     18  C   UNL     1      -0.268  -0.770  -6.220  0.00  0.00    +0.024 C 
ENDBRANCH  14  16
ENDBRANCH   8  12
BRANCH   2  19
ATOM     19  C   UNL     1       3.152   3.193   0.292  0.00  0.00    +0.237 C 
ATOM     20  O   UNL     1       4.014   3.230  -0.560  0.00  0.00    -0.274 OA
ATOM     21  N   UNL     1       3.482   3.326   1.592  0.00  0.00    -0.311 N 
ATOM     22  H   UNL     1       2.793   3.296   2.273  0.00  0.00    +0.149 HD
BRANCH  21  23
ATOM     23  C   UNL     1       4.883   3.516   1.975  0.00  0.00    +0.073 C 
ATOM     24  C   UNL     1       5.570   2.154   2.092  0.00  0.00    +0.022 C 
ATOM     25  C   UNL     1       7.033   2.353   2.493  0.00  0.00    +0.002 C 
ATOM     26  C   UNL     1       7.099   3.075   3.840  0.00  0.00    +0.000 C 
ATOM     27  C   UNL     1       6.413   4.437   3.724  0.00  0.00    +0.002 C 
ATOM     28  C   UNL     1       4.950   4.238   3.323  0.00  0.00    +0.022 C 
ENDBRANCH  21  23
ENDBRANCH   2  19
BRANCH   1  29
ATOM     29  C   UNL     1       1.442   4.542  -2.189  0.00  0.00    +0.143 C 
BRANCH  29  33
ATOM     30  C   UNL     1       5.351   5.877  -3.278  0.00  0.00    +0.000 A 
ATOM     31  C   UNL     1       4.598   5.139  -4.173  0.00  0.00    +0.000 A 
ATOM     32  C   UNL     1       3.333   4.707  -3.820  0.00  0.00    +0.005 A 
ATOM     33  C   UNL     1       2.821   5.012  -2.573  0.00  0.00    -0.030 A 
ATOM     34  C   UNL     1       3.572   5.754  -1.680  0.00  0.00    +0.005 A 
ATOM     35  C   UNL     1       4.839   6.183  -2.031  0.00  0.00    +0.000 A 
ENDBRANCH  29  33
ENDBRANCH   1  29
TORSDOF 6
