REMARK  Name = ZINC00067785
REMARK  5 active torsions:
REMARK  status: ('A' for Active; 'I' for Inactive)
REMARK    1  A    between atoms: C_1  and  C_2
REMARK    2  A    between atoms: C_2  and  C_24
REMARK    3  A    between atoms: C_6  and  C_14
REMARK    4  A    between atoms: C_8  and  C_12
REMARK    5  A    between atoms: C_9  and  N_11
REMARK                            x       y       z     vdW  Elec       q    Type
REMARK                         _______ _______ _______ _____ _____    ______ ____
ROOT
ATOM      1  C   UNL     1      -5.834   0.838  -2.670  0.00  0.00    +0.012 C 
ATOM      2  C   UNL     1      -5.160   2.038  -3.337  0.00  0.00    -0.021 C 
ATOM      3  C   UNL     1      -5.141   3.221  -2.367  0.00  0.00    +0.081 C 
ATOM      4  C   UNL     1      -4.350   2.854  -1.133  0.00  0.00    +0.115 C 
ATOM      5  C   UNL     1      -3.321   1.994  -1.207  0.00  0.00    +0.046 C 
ATOM      6  C   UNL     1      -2.524   1.637   0.023  0.00  0.00    +0.102 C 
ATOM      7  C   UNL     1      -3.306   1.980   1.260  0.00  0.00    +0.098 C 
ATOM      8  C   UNL     1      -4.348   2.845   1.194  0.00  0.00    +0.198 C 
ATOM      9  O   UNL     1      -4.706   3.420   0.036  0.00  0.00    -0.445 OA
ATOM     10  C   UNL     1      -2.954   1.395  -2.430  0.00  0.00    +0.164 C 
ATOM     11  O   UNL     1      -2.007   0.634  -2.462  0.00  0.00    -0.292 OA
ATOM     12  C   UNL     1      -3.713   1.682  -3.697  0.00  0.00    +0.086 C 
ATOM     13  C   UNL     1      -5.929   2.423  -4.602  0.00  0.00    +0.012 C 
ENDROOT
BRANCH   6  14
ATOM     14  C   UNL     1      -1.228   2.407   0.021  0.00  0.00    -0.016 A 
ATOM     15  C   UNL     1      -1.247   3.789   0.033  0.00  0.00    +0.006 A 
ATOM     16  C   UNL     1      -0.059   4.497   0.025  0.00  0.00    +0.000 A 
ATOM     17  C   UNL     1       1.148   3.822   0.011  0.00  0.00    +0.001 A 
ATOM     18  C   UNL     1       1.167   2.440   0.004  0.00  0.00    +0.020 A 
ATOM     19  C   UNL     1      -0.021   1.732   0.012  0.00  0.00    +0.045 A 
ATOM     20 CL   UNL     1       0.002  -0.004   0.002  0.00  0.00    -0.083 Cl
ENDBRANCH   6  14
BRANCH   8  21
ATOM     21  N   UNL     1      -5.051   3.137   2.336  0.00  0.00    -0.328 N 
ATOM     22  H   UNL     1      -4.801   2.727   3.178  0.00  0.00    +0.145 HD
ATOM     23  H   UNL     1      -5.799   3.755   2.300  0.00  0.00    +0.145 HD
ENDBRANCH   8  21
BRANCH   7  24
ATOM     24  C   UNL     1      -2.949   1.391   2.515  0.00  0.00    +0.101 C 
ATOM     25  N   UNL     1      -2.666   0.923   3.511  0.00  0.00    -0.191 NA
ENDBRANCH   7  24
TORSDOF 3
