REMARK  Name = ZINC64354190
REMARK  9 active torsions:
REMARK  status: ('A' for Active; 'I' for Inactive)
REMARK    1  A    between atoms: C_1  and  C_2
REMARK    2  A    between atoms: C_3  and  C_13
REMARK    3  A    between atoms: C_4  and  C_12
REMARK    4  A    between atoms: C_9  and  O_11
REMARK    5  A    between atoms: C_13  and  C_14
REMARK    6  A    between atoms: C_14  and  C_15
REMARK    7  A    between atoms: N_17  and  N_18
REMARK    8  A    between atoms: C_19  and  C_21
REMARK    9  A    between atoms: C_21  and  C_22
REMARK                            x       y       z     vdW  Elec       q    Type
REMARK                         _______ _______ _______ _____ _____    ______ ____
ROOT
ATOM      1  C   UNL     1      -4.215   1.096   1.467  0.00  0.00    +0.229 C 
ATOM      2  O   UNL     1      -4.795   1.317   0.425  0.00  0.00    -0.274 OA
ATOM      3  N   UNL     1      -4.748   1.505   2.635  0.00  0.00    -0.234 N 
ATOM      4  H   UNL     1      -4.285   1.328   3.469  0.00  0.00    +0.173 HD
ENDROOT
BRANCH   3   5
ATOM      5  N   UNL     1      -5.973   2.186   2.646  0.00  0.00    -0.234 N 
ATOM      6  C   UNL     1      -6.506   2.595   3.814  0.00  0.00    +0.233 C 
ATOM      7  O   UNL     1      -5.926   2.374   4.856  0.00  0.00    -0.274 OA
ATOM      8  H   UNL     1      -6.436   2.363   1.812  0.00  0.00    +0.173 HD
BRANCH   6   9
ATOM      9  C   UNL     1      -7.823   3.328   3.825  0.00  0.00    +0.132 C 
BRANCH   9  10
ATOM     10  C   UNL     1      -8.195   3.672   5.245  0.00  0.00    -0.038 A 
ATOM     11  C   UNL     1      -8.940   2.784   5.998  0.00  0.00    +0.007 A 
ATOM     12  C   UNL     1      -9.280   3.098   7.300  0.00  0.00    +0.038 A 
ATOM     13  C   UNL     1      -8.876   4.302   7.850  0.00  0.00    +0.123 A 
ATOM     14  C   UNL     1      -8.130   5.191   7.094  0.00  0.00    +0.038 A 
ATOM     15  C   UNL     1      -7.785   4.872   5.794  0.00  0.00    +0.007 A 
ATOM     16  F   UNL     1      -9.209   4.610   9.122  0.00  0.00    -0.205 F 
ENDBRANCH   9  10
ENDBRANCH   6   9
ENDBRANCH   3   5
BRANCH   1  17
ATOM     17  C   UNL     1      -2.898   0.363   1.456  0.00  0.00    +0.102 C 
BRANCH  17  18
ATOM     18  C   UNL     1      -2.521   0.014   0.015  0.00  0.00    +0.048 C 
BRANCH  18  21
ATOM     19  C   UNL     1      -0.018   1.503   0.010  0.00  0.00    +0.066 C 
ATOM     20  C   UNL     1       0.002  -0.004   0.002  0.00  0.00    +0.045 A 
ATOM     21  C   UNL     1      -1.204  -0.719   0.004  0.00  0.00    -0.005 A 
ATOM     22  C   UNL     1      -1.176  -2.074  -0.004  0.00  0.00    +0.047 A 
ATOM     23  N   UNL     1       0.029  -2.714  -0.014  0.00  0.00    -0.215 N 
ATOM     24  C   UNL     1       1.189  -1.982  -0.015  0.00  0.00    +0.160 A 
ATOM     25  N   UNL     1       1.149  -0.642  -0.012  0.00  0.00    -0.233 NA
ATOM     26  C   UNL     1       2.240  -2.888  -0.026  0.00  0.00    +0.116 A 
ATOM     27  C   UNL     1       1.693  -4.167  -0.030  0.00  0.00    +0.234 A 
ATOM     28  N   UNL     1       0.380  -4.068  -0.023  0.00  0.00    -0.127 NA
ATOM     29  C   UNL     1      -2.459  -2.864  -0.002  0.00  0.00    +0.066 C 
BRANCH  27  30
ATOM     30  O   UNL     1       2.399  -5.329  -0.041  0.00  0.00    -0.491 OA
ATOM     31  H   UNL     1       2.607  -5.670   0.839  0.00  0.00    +0.294 HD
ENDBRANCH  27  30
ENDBRANCH  18  21
ENDBRANCH  17  18
ENDBRANCH   1  17
TORSDOF 7
