REMARK  Name = ZINC18096674
REMARK  9 active torsions:
REMARK  status: ('A' for Active; 'I' for Inactive)
REMARK    1  A    between atoms: C_1  and  C_2
REMARK    2  A    between atoms: C_2  and  C_3
REMARK    3  A    between atoms: C_3  and  C_4
REMARK    4  A    between atoms: C_9  and  N_11
REMARK    5  A    between atoms: C_12  and  N_13
REMARK    6  A    between atoms: C_14  and  C_16
REMARK    7  A    between atoms: C_16  and  C_18
REMARK    8  A    between atoms: C_16  and  N_19
REMARK    9  A    between atoms: N_30  and  C_31
REMARK                            x       y       z     vdW  Elec       q    Type
REMARK                         _______ _______ _______ _____ _____    ______ ____
ROOT
ATOM      1  N   UNL     1      -1.665  -4.531  -2.253  0.00  0.00    -0.176 NA
ATOM      2  C   UNL     1      -1.639  -3.877  -3.406  0.00  0.00    +0.234 C 
ATOM      3  N   UNL     1      -1.221  -2.571  -3.445  0.00  0.00    -0.324 N 
ATOM      4  H   UNL     1      -0.841  -2.160  -2.653  0.00  0.00    +0.169 HD
ENDROOT
BRANCH   1  10
ATOM      5  C   UNL     1      -2.208  -1.851  -0.021  0.00  0.00    +0.050 A 
ATOM      6  C   UNL     1      -2.132  -2.469   1.196  0.00  0.00    +0.093 A 
ATOM      7  C   UNL     1      -1.885  -3.851   1.246  0.00  0.00    +0.253 A 
ATOM      8  O   UNL     1      -1.812  -4.431   2.317  0.00  0.00    -0.268 OA
ATOM      9  N   UNL     1      -1.732  -4.527   0.087  0.00  0.00    -0.291 N 
ATOM     10  C   UNL     1      -1.818  -3.857  -1.104  0.00  0.00    +0.234 A 
ATOM     11  N   UNL     1      -2.056  -2.554  -1.138  0.00  0.00    -0.217 NA
ATOM     12  H   UNL     1      -1.561  -5.481   0.098  0.00  0.00    +0.172 HD
BRANCH   5  13
ATOM     13  C   UNL     1      -2.471  -0.369  -0.095  0.00  0.00    +0.055 C 
BRANCH  13  15
ATOM     14  C   UNL     1      -1.410   1.884  -0.289  0.00  0.00    +0.004 C 
ATOM     15  C   UNL     1      -1.142   0.380  -0.213  0.00  0.00    +0.003 C 
ENDBRANCH  13  15
ENDBRANCH   5  13
ENDBRANCH   1  10
BRANCH   3  16
ATOM     16  C   UNL     1      -1.344  -1.833  -4.626  0.00  0.00    +0.042 A 
ATOM     17  C   UNL     1      -1.345  -2.480  -5.855  0.00  0.00    +0.026 A 
ATOM     18  C   UNL     1      -1.466  -1.748  -7.019  0.00  0.00    +0.002 A 
ATOM     19  C   UNL     1      -1.587  -0.371  -6.963  0.00  0.00    +0.000 A 
ATOM     20  C   UNL     1      -1.586   0.276  -5.741  0.00  0.00    +0.002 A 
ATOM     21  C   UNL     1      -1.472  -0.451  -4.572  0.00  0.00    +0.026 A 
ENDBRANCH   3  16
BRANCH   2  22
ATOM     22  N   UNL     1      -2.022  -4.496  -4.541  0.00  0.00    -0.175 NA
ATOM     23  C   UNL     1      -2.420  -5.741  -4.504  0.00  0.00    +0.270 C 
ATOM     24  O   UNL     1      -2.446  -6.404  -3.336  0.00  0.00    -0.269 OA
BRANCH  23  25
ATOM     25  C   UNL     1      -2.849  -6.433  -5.772  0.00  0.00    +0.172 C 
ATOM     26  C   UNL     1      -4.321  -6.124  -6.049  0.00  0.00    +0.039 C 
BRANCH  25  27
ATOM     27  N   UNL     1      -2.673  -7.880  -5.623  0.00  0.00    -0.222 N 
ATOM     28  C   UNL     1      -3.290  -8.629  -4.691  0.00  0.00    +0.254 C 
ATOM     29  O   UNL     1      -4.068  -8.220  -3.854  0.00  0.00    -0.270 OA
ATOM     30  C   UNL     1      -2.862 -10.034  -4.858  0.00  0.00    +0.049 A 
ATOM     31  C   UNL     1      -3.158 -11.220  -4.205  0.00  0.00    +0.014 A 
ATOM     32  C   UNL     1      -2.567 -12.402  -4.625  0.00  0.00    +0.001 A 
ATOM     33  C   UNL     1      -1.685 -12.404  -5.689  0.00  0.00    +0.001 A 
ATOM     34  C   UNL     1      -1.379 -11.226  -6.351  0.00  0.00    +0.014 A 
ATOM     35  C   UNL     1      -1.962 -10.037  -5.943  0.00  0.00    +0.049 A 
ATOM     36  C   UNL     1      -1.878  -8.635  -6.402  0.00  0.00    +0.254 C 
ATOM     37  O   UNL     1      -1.203  -8.231  -7.328  0.00  0.00    -0.270 OA
ENDBRANCH  25  27
ENDBRANCH  23  25
ENDBRANCH   2  22
TORSDOF 7
