REMARK  Name = ZINC38905298
REMARK  8 active torsions:
REMARK  status: ('A' for Active; 'I' for Inactive)
REMARK    1  A    between atoms: C_1  and  C_2
REMARK    2  A    between atoms: C_2  and  O_3
REMARK    3  A    between atoms: O_3  and  C_4
REMARK    4  A    between atoms: C_4  and  C_6
REMARK    5  A    between atoms: C_12  and  C_14
REMARK    6  A    between atoms: N_19  and  C_21
REMARK    7  A    between atoms: C_21  and  C_22
REMARK    8  A    between atoms: C_24  and  C_27
REMARK                            x       y       z     vdW  Elec       q    Type
REMARK                         _______ _______ _______ _____ _____    ______ ____
ROOT
ATOM      1  C   UNL     1       1.369  -6.181  -5.822  0.00  0.00    +0.059 C 
ATOM      2  C   UNL     1       2.862  -6.461  -5.628  0.00  0.00    +0.009 C 
ATOM      3  C   UNL     1       3.090  -7.975  -5.618  0.00  0.00    -0.018 C 
ATOM      4  C   UNL     1       2.551  -8.575  -6.918  0.00  0.00    -0.078 C 
ATOM      5  N   UNL     1       1.115  -8.296  -7.032  0.00  0.00    +0.386 N 
ATOM      6  C   UNL     1       0.893  -6.847  -7.114  0.00  0.00    -0.065 C 
ATOM      7  H   UNL     1       0.637  -8.662  -6.223  0.00  0.00    -0.081 HD
ENDROOT
BRANCH   1  14
ATOM      8  C   UNL     1      -0.177  -2.618  -2.621  0.00  0.00    +0.101 C 
ATOM      9  C   UNL     1      -0.292  -2.064  -4.043  0.00  0.00    +0.033 C 
ATOM     10  C   UNL     1       0.934  -2.494  -4.855  0.00  0.00    +0.108 C 
ATOM     11  N   UNL     1       1.058  -3.957  -4.785  0.00  0.00    -0.301 N 
ATOM     12  C   UNL     1       1.086  -4.601  -3.465  0.00  0.00    +0.108 C 
ATOM     13  C   UNL     1      -0.141  -4.147  -2.668  0.00  0.00    +0.033 C 
ATOM     14  C   UNL     1       1.144  -4.693  -5.910  0.00  0.00    +0.217 C 
ATOM     15  O   UNL     1       1.040  -4.159  -6.994  0.00  0.00    -0.275 OA
BRANCH   8  16
ATOM     16  C   UNL     1      -1.365  -2.168  -1.810  0.00  0.00    +0.310 C 
ATOM     17  O   UNL     1      -2.106  -2.986  -1.320  0.00  0.00    -0.251 OA
BRANCH  16  18
ATOM     18  O   UNL     1      -1.598  -0.858  -1.631  0.00  0.00    -0.465 OA
BRANCH  18  20
ATOM     19  C   UNL     1      -2.844   1.020  -0.759  0.00  0.00    +0.048 C 
ATOM     20  C   UNL     1      -2.742  -0.503  -0.851  0.00  0.00    +0.229 C 
ENDBRANCH  18  20
ENDBRANCH  16  18
ENDBRANCH   8  16
ENDBRANCH   1  14
BRANCH   5  21
ATOM     21  C   UNL     1       0.587  -8.940  -8.242  0.00  0.00    +0.022 C 
BRANCH  21  22
ATOM     22  C   UNL     1       0.693 -10.437  -8.102  0.00  0.00    +0.211 A 
ATOM     23  N   UNL     1      -0.219 -11.220  -7.601  0.00  0.00    -0.193 NA
ATOM     24  C   UNL     1       0.205 -12.497  -7.629  0.00  0.00    +0.202 A 
ATOM     25  N   UNL     1       1.404 -12.528  -8.155  0.00  0.00    -0.056 NA
ATOM     26  O   UNL     1       1.737 -11.186  -8.476  0.00  0.00    -0.340 OA
BRANCH  24  27
ATOM     27  C   UNL     1      -0.559 -13.673  -7.144  0.00  0.00    +0.023 A 
ATOM     28  C   UNL     1      -1.834 -13.506  -6.607  0.00  0.00    +0.013 A 
ATOM     29  C   UNL     1      -2.539 -14.604  -6.157  0.00  0.00    +0.016 A 
ATOM     30  C   UNL     1      -1.983 -15.868  -6.238  0.00  0.00    +0.018 A 
ATOM     31  C   UNL     1      -0.717 -16.039  -6.771  0.00  0.00    +0.016 A 
ATOM     32  C   UNL     1      -0.006 -14.949  -7.229  0.00  0.00    +0.013 A 
ATOM     33 BR   UNL     1      -2.956 -17.367  -5.620  0.00  0.00    -0.050 Br
ENDBRANCH  24  27
ENDBRANCH  21  22
ENDBRANCH   5  21
TORSDOF 7
