REMARK  Name = ZINC43030939
REMARK  7 active torsions:
REMARK  status: ('A' for Active; 'I' for Inactive)
REMARK    1  A    between atoms: C_1  and  C_2
REMARK    2  A    between atoms: C_2  and  C_3
REMARK    3  A    between atoms: C_2  and  C_4
REMARK    4  A    between atoms: C_4  and  C_6
REMARK    5  A    between atoms: C_4  and  S_18
REMARK    6  A    between atoms: C_12  and  C_15
REMARK    7  A    between atoms: S_18  and  C_19
REMARK                            x       y       z     vdW  Elec       q    Type
REMARK                         _______ _______ _______ _____ _____    ______ ____
ROOT
ATOM      1  C   UNL     1      -1.444  -0.533   0.003  0.00  0.00    +0.142 C 
ENDROOT
BRANCH   1   2
ATOM      2  C   UNL     1      -2.115  -0.291  -1.325  0.00  0.00    +0.229 C 
ATOM      3  O   UNL     1      -2.821   0.682  -1.479  0.00  0.00    -0.274 OA
ATOM      4  N   UNL     1      -1.931  -1.158  -2.340  0.00  0.00    -0.300 N 
ATOM      5  C   UNL     1      -1.083  -2.346  -2.167  0.00  0.00    +0.108 C 
ATOM      6  C   UNL     1      -0.027  -2.364  -3.276  0.00  0.00    +0.020 C 
ATOM      7  C   UNL     1      -0.721  -2.280  -4.637  0.00  0.00    +0.016 C 
ATOM      8  C   UNL     1      -1.501  -0.968  -4.735  0.00  0.00    +0.092 C 
ATOM      9  C   UNL     1      -2.579  -0.936  -3.640  0.00  0.00    +0.120 C 
BRANCH   8  10
ATOM     10  C   UNL     1      -2.158  -0.871  -6.088  0.00  0.00    +0.215 C 
ATOM     11  O   UNL     1      -3.364  -0.781  -6.172  0.00  0.00    -0.276 OA
ATOM     12  N   UNL     1      -1.403  -0.885  -7.205  0.00  0.00    -0.329 N 
ATOM     13  H   UNL     1      -0.439  -0.957  -7.138  0.00  0.00    +0.145 HD
ATOM     14  H   UNL     1      -1.826  -0.823  -8.076  0.00  0.00    +0.145 HD
ENDBRANCH   8  10
ENDBRANCH   1   2
BRANCH   1  16
ATOM     15  C   UNL     1      -0.090   1.560  -0.176  0.00  0.00    +0.009 C 
ATOM     16  C   UNL     1      -0.024   0.038  -0.033  0.00  0.00    +0.005 C 
ATOM     17  C   UNL     1       0.702  -0.322   1.265  0.00  0.00    +0.009 C 
ENDBRANCH   1  16
BRANCH   1  18
ATOM     18  S   UNL     1      -2.391   0.284   1.317  0.00  0.00    -0.086 S 
BRANCH  18  19
ATOM     19  C   UNL     1      -3.896  -0.629   1.388  0.00  0.00    +0.132 C 
ATOM     20  N   UNL     1      -4.129  -1.584   0.527  0.00  0.00    -0.234 NA
ATOM     21  C   UNL     1      -5.242  -2.368   0.501  0.00  0.00    +0.070 A 
ATOM     22  C   UNL     1      -5.131  -3.614  -0.142  0.00  0.00    +0.028 A 
ATOM     23  C   UNL     1      -6.211  -4.462  -0.213  0.00  0.00    +0.002 A 
ATOM     24  C   UNL     1      -7.421  -4.095   0.350  0.00  0.00    +0.000 A 
ATOM     25  C   UNL     1      -7.542  -2.874   0.986  0.00  0.00    +0.006 A 
ATOM     26  C   UNL     1      -6.462  -2.012   1.066  0.00  0.00    -0.012 A 
ATOM     27  C   UNL     1      -6.656  -0.697   1.782  0.00  0.00    +0.113 C 
ATOM     28  S   UNL     1      -5.101  -0.268   2.628  0.00  0.00    -0.094 S 
ENDBRANCH  18  19
ENDBRANCH   1  18
TORSDOF 5
