REMARK  Name = ZINC34876547
REMARK  12 active torsions:
REMARK  status: ('A' for Active; 'I' for Inactive)
REMARK    1  A    between atoms: C_1  and  C_2
REMARK    2  A    between atoms: C_2  and  C_4
REMARK    3  A    between atoms: C_2  and  N_10
REMARK    4  A    between atoms: C_11  and  C_13
REMARK    5  A    between atoms: C_13  and  C_14
REMARK    6  A    between atoms: C_20  and  C_22
REMARK    7  A    between atoms: C_22  and  N_23
REMARK    8  A    between atoms: N_23  and  C_24
REMARK    9  A    between atoms: C_24  and  C_25
REMARK   10  A    between atoms: C_25  and  C_26
REMARK   11  A    between atoms: C_25  and  C_27
REMARK   12  A    between atoms: C_28  and  C_30
REMARK                            x       y       z     vdW  Elec       q    Type
REMARK                         _______ _______ _______ _____ _____    ______ ____
ROOT
ATOM      1  C   UNL     1       3.846  -3.079   1.186  0.00  0.00    +0.059 A 
ATOM      2  C   UNL     1       4.511  -2.544   2.239  0.00  0.00    +0.072 A 
ATOM      3  S   UNL     1       6.173  -2.490   1.590  0.00  0.00    -0.060 S 
ATOM      4  C   UNL     1       5.852  -3.143   0.072  0.00  0.00    +0.165 A 
ATOM      5  N   UNL     1       4.557  -3.372   0.113  0.00  0.00    -0.229 NA
ATOM      6  N   UNL     1       6.740  -3.386  -0.969  0.00  0.00    -0.263 N 
ATOM      7  C   UNL     1       8.046  -3.088  -0.825  0.00  0.00    +0.236 C 
ATOM      8  O   UNL     1       8.447  -2.608   0.214  0.00  0.00    -0.274 OA
ATOM      9  H   UNL     1       6.419  -3.770  -1.800  0.00  0.00    +0.157 HD
ENDROOT
BRANCH   1  10
ATOM     10  C   UNL     1       2.361  -3.333   1.240  0.00  0.00    +0.151 C 
BRANCH  10  12
ATOM     11  N   UNL     1       0.356  -2.737  -0.081  0.00  0.00    -0.308 N 
ATOM     12  C   UNL     1       1.692  -2.648   0.076  0.00  0.00    +0.219 C 
ATOM     13  O   UNL     1       2.355  -2.015  -0.718  0.00  0.00    -0.275 OA
ATOM     14  H   UNL     1      -0.174  -3.243   0.554  0.00  0.00    +0.149 HD
BRANCH  11  16
ATOM     15  C   UNL     1      -0.583  -0.614  -0.849  0.00  0.00    +0.033 C 
ATOM     16  C   UNL     1      -0.294  -2.071  -1.212  0.00  0.00    +0.100 C 
BRANCH  16  17
ATOM     17  C   UNL     1      -1.588  -2.775  -1.533  0.00  0.00    -0.027 A 
ATOM     18  C   UNL     1      -2.403  -3.222  -0.510  0.00  0.00    +0.005 A 
ATOM     19  C   UNL     1      -3.590  -3.867  -0.804  0.00  0.00    +0.000 A 
ATOM     20  C   UNL     1      -3.962  -4.065  -2.121  0.00  0.00    +0.000 A 
ATOM     21  C   UNL     1      -3.147  -3.617  -3.144  0.00  0.00    +0.000 A 
ATOM     22  C   UNL     1      -1.962  -2.968  -2.850  0.00  0.00    +0.005 A 
ENDBRANCH  16  17
ENDBRANCH  11  16
ENDBRANCH  10  12
ENDBRANCH   1  10
BRANCH   7  23
ATOM     23  C   UNL     1       9.008  -3.352  -1.954  0.00  0.00    +0.204 C 
BRANCH  23  24
ATOM     24  N   UNL     1      10.357  -2.945  -1.551  0.00  0.00    -0.288 N 
ATOM     25  C   UNL     1      10.846  -1.751  -1.942  0.00  0.00    +0.247 C 
ATOM     26  O   UNL     1      11.981  -1.433  -1.647  0.00  0.00    -0.270 OA
BRANCH  25  27
ATOM     27  C   UNL     1      10.001  -0.829  -2.729  0.00  0.00    +0.037 A 
ATOM     28  C   UNL     1       8.663  -0.635  -2.382  0.00  0.00    +0.014 A 
ATOM     29  C   UNL     1       7.880   0.228  -3.120  0.00  0.00    +0.021 A 
ATOM     30  C   UNL     1       8.418   0.900  -4.204  0.00  0.00    +0.041 A 
ATOM     31  C   UNL     1       9.745   0.712  -4.554  0.00  0.00    +0.021 A 
ATOM     32  C   UNL     1      10.540  -0.143  -3.820  0.00  0.00    +0.014 A 
ATOM     33 CL   UNL     1       7.426   1.983  -5.129  0.00  0.00    -0.084 Cl
ENDBRANCH  25  27
BRANCH  24  34
ATOM     34  C   UNL     1      11.174  -3.835  -0.723  0.00  0.00    +0.111 C 
BRANCH  34  35
ATOM     35  C   UNL     1      12.102  -4.657  -1.621  0.00  0.00    +0.000 C 
ATOM     36  C   UNL     1      13.042  -5.495  -0.752  0.00  0.00    +0.009 C 
ATOM     37  C   UNL     1      11.267  -5.582  -2.508  0.00  0.00    +0.009 C 
ENDBRANCH  34  35
ENDBRANCH  24  34
ENDBRANCH  23  24
ENDBRANCH   7  23
TORSDOF 9
