REMARK  Name = ZINC16163986
REMARK  11 active torsions:
REMARK  status: ('A' for Active; 'I' for Inactive)
REMARK    1  A    between atoms: C_1  and  C_2
REMARK    2  A    between atoms: C_2  and  C_3
REMARK    3  A    between atoms: C_12  and  C_13
REMARK    4  A    between atoms: C_13  and  C_15
REMARK    5  A    between atoms: C_15  and  O_16
REMARK    6  A    between atoms: O_16  and  C_17
REMARK    7  A    between atoms: C_17  and  C_19
REMARK    8  A    between atoms: N_24  and  S_26
REMARK    9  A    between atoms: S_26  and  C_29
REMARK   10  A    between atoms: C_30  and  C_35
REMARK   11  A    between atoms: C_33  and  C_34
REMARK                            x       y       z     vdW  Elec       q    Type
REMARK                         _______ _______ _______ _____ _____    ______ ____
ROOT
ATOM      1  C   UNL     1      -5.199   5.171   0.077  0.00  0.00    +0.312 C 
ATOM      2  O   UNL     1      -5.779   4.111   0.077  0.00  0.00    -0.250 OA
ENDROOT
BRANCH   1   3
ATOM      3  C   UNL     1      -5.982   6.459   0.091  0.00  0.00    +0.113 C 
ATOM      4  C   UNL     1      -5.621   7.263   1.342  0.00  0.00    +0.017 C 
ATOM      5  C   UNL     1      -6.392   8.585   1.341  0.00  0.00    +0.018 C 
ATOM      6  C   UNL     1      -7.896   8.295   1.369  0.00  0.00    +0.109 C 
ATOM      7  N   UNL     1      -8.227   7.403   0.249  0.00  0.00    -0.176 NA
ATOM      8  C   UNL     1      -7.482   6.145   0.105  0.00  0.00    +0.124 C 
BRANCH   7   9
ATOM      9  S   UNL     1      -9.417   7.807  -0.829  0.00  0.00    +0.066 S 
ATOM     10  O   UNL     1      -9.541   9.222  -0.785  0.00  0.00    -0.153 OA
ATOM     11  O   UNL     1      -9.133   7.103  -2.030  0.00  0.00    -0.153 OA
BRANCH   9  12
ATOM     12  C   UNL     1     -10.929   7.150  -0.206  0.00  0.00    +0.170 A 
ATOM     13  C   UNL     1     -11.496   5.880  -0.460  0.00  0.00    +0.107 A 
ATOM     14  N   UNL     1     -12.611   5.834   0.211  0.00  0.00    -0.081 NA
ATOM     15  O   UNL     1     -12.809   6.863   0.816  0.00  0.00    -0.358 OA
ATOM     16  C   UNL     1     -11.819   7.746   0.622  0.00  0.00    +0.161 A 
ATOM     17  C   UNL     1     -11.718   9.130   1.210  0.00  0.00    +0.091 C 
ATOM     18  C   UNL     1     -10.923   4.793  -1.332  0.00  0.00    +0.071 C 
ENDBRANCH   9  12
ENDBRANCH   7   9
ENDBRANCH   1   3
BRANCH   1  19
ATOM     19  O   UNL     1      -3.857   5.202   0.065  0.00  0.00    -0.456 OA
BRANCH  19  20
ATOM     20  C   UNL     1      -3.168   3.924   0.052  0.00  0.00    +0.311 C 
BRANCH  20  21
ATOM     21  C   UNL     1      -1.679   4.156   0.039  0.00  0.00    +0.202 C 
ATOM     22  O   UNL     1      -1.241   5.288   0.041  0.00  0.00    -0.288 OA
BRANCH  21  32
ATOM     23  C   UNL     1       2.477   1.488  -0.013  0.00  0.00    -0.024 A 
ATOM     24  C   UNL     1       3.389   2.520  -0.017  0.00  0.00    +0.005 A 
ATOM     25  C   UNL     1       2.963   3.840  -0.006  0.00  0.00    +0.001 A 
ATOM     26  C   UNL     1       1.617   4.136   0.008  0.00  0.00    +0.011 A 
ATOM     27  C   UNL     1       0.685   3.103   0.012  0.00  0.00    +0.011 A 
ATOM     28  C   UNL     1       1.114   1.766   0.001  0.00  0.00    +0.050 A 
ATOM     29  N   UNL     1      -0.011   0.966   0.007  0.00  0.00    -0.360 N 
ATOM     30  H   UNL     1       0.002  -0.004   0.002  0.00  0.00    +0.165 HD
ATOM     31  C   UNL     1      -1.129   1.716   0.016  0.00  0.00    +0.095 A 
ATOM     32  C   UNL     1      -0.790   3.053   0.025  0.00  0.00    +0.046 A 
BRANCH  23  34
ATOM     33  C   UNL     1       2.983  -0.458  -1.464  0.00  0.00    +0.009 C 
ATOM     34  C   UNL     1       2.954   0.059  -0.024  0.00  0.00    +0.034 C 
ENDBRANCH  23  34
ENDBRANCH  21  32
ENDBRANCH  20  21
ENDBRANCH  19  20
ENDBRANCH   1  19
TORSDOF 8
