REMARK  Name = ZINC40688669
REMARK  11 active torsions:
REMARK  status: ('A' for Active; 'I' for Inactive)
REMARK    1  A    between atoms: C_1  and  C_2
REMARK    2  A    between atoms: C_4  and  C_24
REMARK    3  A    between atoms: C_7  and  N_8
REMARK    4  A    between atoms: C_10  and  N_22
REMARK    5  A    between atoms: C_11  and  N_15
REMARK    6  A    between atoms: N_15  and  C_16
REMARK    7  A    between atoms: N_15  and  C_19
REMARK    8  A    between atoms: C_16  and  C_17
REMARK    9  A    between atoms: C_19  and  C_20
REMARK   10  A    between atoms: C_24  and  C_26
REMARK   11  A    between atoms: C_24  and  C_28
REMARK                            x       y       z     vdW  Elec       q    Type
REMARK                         _______ _______ _______ _____ _____    ______ ____
ROOT
ATOM      1  C   UNL     1       0.072   0.931   0.684  0.00  0.00    +0.045 C 
ATOM      2  C   UNL     1       0.468  -0.510   0.493  0.00  0.00    -0.029 A 
ATOM      3  C   UNL     1       0.383  -1.090  -0.758  0.00  0.00    +0.011 A 
ATOM      4  C   UNL     1       0.747  -2.412  -0.935  0.00  0.00    -0.008 A 
ATOM      5  C   UNL     1       1.197  -3.159   0.140  0.00  0.00    +0.047 A 
ATOM      6  C   UNL     1       1.285  -2.584   1.393  0.00  0.00    +0.043 A 
ATOM      7  C   UNL     1       0.925  -1.254   1.573  0.00  0.00    +0.037 A 
ATOM      8 CL   UNL     1       1.652  -4.819  -0.087  0.00  0.00    -0.083 Cl
ENDROOT
BRANCH   7   9
ATOM      9  N   UNL     1       1.017  -0.669   2.838  0.00  0.00    -0.298 N 
ATOM     10  C   UNL     1       0.857  -1.448   3.978  0.00  0.00    +0.149 A 
ATOM     11  C   UNL     1       1.068  -0.901   5.246  0.00  0.00    +0.106 A 
ATOM     12  C   UNL     1       0.893  -1.728   6.357  0.00  0.00    +0.149 A 
ATOM     13  N   UNL     1       0.535  -2.996   6.168  0.00  0.00    -0.219 NA
ATOM     14  C   UNL     1       0.346  -3.472   4.954  0.00  0.00    +0.225 A 
ATOM     15  N   UNL     1       0.495  -2.725   3.879  0.00  0.00    -0.219 NA
ATOM     16  H   UNL     1       1.193   0.282   2.921  0.00  0.00    +0.154 HD
BRANCH  11  17
ATOM     17  N   UNL     1       1.446   0.442   5.398  0.00  0.00    -0.353 N 
ATOM     18  H   UNL     1       1.655   0.979   4.617  0.00  0.00    +0.143 HD
ATOM     19  H   UNL     1       1.500   0.834   6.284  0.00  0.00    +0.143 HD
ENDBRANCH  11  17
BRANCH  12  20
ATOM     20  N   UNL     1       1.091  -1.235   7.641  0.00  0.00    -0.287 N 
BRANCH  20  21
ATOM     21  C   UNL     1      -0.028  -0.644   8.379  0.00  0.00    +0.226 C 
BRANCH  21  22
ATOM     22  C   UNL     1      -0.714  -1.692   9.153  0.00  0.00    +0.082 C 
ATOM     23  N   UNL     1      -1.243  -2.501   9.750  0.00  0.00    -0.195 NA
ENDBRANCH  21  22
ENDBRANCH  20  21
BRANCH  20  24
ATOM     24  C   UNL     1       2.418  -1.305   8.257  0.00  0.00    +0.226 C 
BRANCH  24  25
ATOM     25  C   UNL     1       3.119  -0.026   8.060  0.00  0.00    +0.082 C 
ATOM     26  N   UNL     1       3.661   0.961   7.907  0.00  0.00    -0.195 NA
ENDBRANCH  24  25
ENDBRANCH  20  24
ENDBRANCH  12  20
ENDBRANCH   7   9
BRANCH   4  27
ATOM     27  C   UNL     1       0.653  -3.041  -2.301  0.00  0.00    +0.153 C 
BRANCH  27  28
ATOM     28  C   UNL     1       1.593  -2.336  -3.245  0.00  0.00    -0.026 A 
ATOM     29  C   UNL     1       1.318  -1.047  -3.660  0.00  0.00    +0.006 A 
ATOM     30  C   UNL     1       2.180  -0.400  -4.525  0.00  0.00    +0.020 A 
ATOM     31  C   UNL     1       3.319  -1.043  -4.976  0.00  0.00    +0.041 A 
ATOM     32  C   UNL     1       3.594  -2.334  -4.561  0.00  0.00    +0.020 A 
ATOM     33  C   UNL     1       2.734  -2.977  -3.691  0.00  0.00    +0.006 A 
ATOM     34 CL   UNL     1       4.402  -0.231  -6.063  0.00  0.00    -0.084 Cl
ENDBRANCH  27  28
BRANCH  27  35
ATOM     35  C   UNL     1      -0.726  -2.921  -2.803  0.00  0.00    +0.075 C 
ATOM     36  N   UNL     1      -1.790  -2.829  -3.190  0.00  0.00    -0.196 NA
ENDBRANCH  27  35
ENDBRANCH   4  27
TORSDOF 10
