REMARK  Name = ZINC11788642
REMARK  7 active torsions:
REMARK  status: ('A' for Active; 'I' for Inactive)
REMARK    1  A    between atoms: C_4  and  C_7
REMARK    2  A    between atoms: C_7  and  C_8
REMARK    3  A    between atoms: C_8  and  C_10
REMARK    4  A    between atoms: C_8  and  O_33
REMARK    5  A    between atoms: C_20  and  C_21
REMARK    6  A    between atoms: C_20  and  N_59
REMARK    7  A    between atoms: C_26  and  C_27
REMARK                            x       y       z     vdW  Elec       q    Type
REMARK                         _______ _______ _______ _____ _____    ______ ____
ROOT
ATOM      1  C   UNL     1       4.675  -0.785  -1.246  0.00  0.00    -0.018 A 
ATOM      2  C   UNL     1       3.904  -1.933  -1.277  0.00  0.00    +0.010 A 
ATOM      3  C   UNL     1       2.525  -1.844  -1.276  0.00  0.00    +0.046 A 
ATOM      4  C   UNL     1       1.917  -0.597  -1.246  0.00  0.00    +0.122 A 
ATOM      5  C   UNL     1       2.692   0.547  -1.236  0.00  0.00    -0.022 A 
ATOM      6  C   UNL     1       4.069   0.459  -1.225  0.00  0.00    +0.011 A 
ATOM      7  C   UNL     1       2.015   1.904  -1.269  0.00  0.00    -0.039 C 
ATOM      8  C   UNL     1      -0.018   1.509   0.010  0.00  0.00    -0.036 C 
ATOM      9  C   UNL     1       0.002  -0.004   0.002  0.00  0.00    +0.210 C 
ATOM     10  O   UNL     1       0.559  -0.498  -1.222  0.00  0.00    -0.494 OA
ATOM     11  N   UNL     1       1.335   2.104   0.033  0.00  0.00    +0.387 N 
ATOM     12  H   UNL     1       1.885   1.643   0.766  0.00  0.00    -0.081 HD
ENDROOT
BRANCH   1  13
ATOM     13  C   UNL     1       6.178  -0.889  -1.235  0.00  0.00    +0.149 C 
BRANCH  13  14
ATOM     14  O   UNL     1       6.590  -1.933  -2.119  0.00  0.00    -0.387 OA
ATOM     15  H   UNL     1       6.242  -2.805  -1.887  0.00  0.00    +0.210 HD
ENDBRANCH  13  14
BRANCH  13  16
ATOM     16  C   UNL     1       6.657  -1.204   0.184  0.00  0.00    +0.071 C 
BRANCH  16  20
ATOM     17  C   UNL     1      10.927  -1.155   0.290  0.00  0.00    +0.000 A 
ATOM     18  C   UNL     1      10.216   0.004   0.538  0.00  0.00    +0.000 A 
ATOM     19  C   UNL     1       8.835  -0.011   0.504  0.00  0.00    +0.004 A 
ATOM     20  C   UNL     1       8.164  -1.186   0.221  0.00  0.00    -0.045 A 
ATOM     21  C   UNL     1       8.874  -2.347  -0.022  0.00  0.00    +0.004 A 
ATOM     22  C   UNL     1      10.256  -2.330   0.008  0.00  0.00    +0.000 A 
ENDBRANCH  16  20
ENDBRANCH  13  16
ENDBRANCH   1  13
BRANCH  11  23
ATOM     23  C   UNL     1       1.244   3.541   0.337  0.00  0.00    -0.039 C 
BRANCH  23  24
ATOM     24  C   UNL     1       0.788   3.700   1.765  0.00  0.00    -0.019 A 
ATOM     25  C   UNL     1      -0.463   4.008   2.171  0.00  0.00    +0.107 A 
ATOM     26  N   UNL     1      -0.463   4.054   3.520  0.00  0.00    -0.284 N 
ATOM     27  H   UNL     1      -1.253   4.253   4.100  0.00  0.00    +0.188 HD
ATOM     28  N   UNL     1       0.835   3.774   3.967  0.00  0.00    -0.174 NA
ATOM     29  C   UNL     1       1.593   3.561   2.913  0.00  0.00    +0.094 A 
BRANCH  29  30
ATOM     30  C   UNL     1       3.039   3.230   2.930  0.00  0.00    +0.002 A 
ATOM     31  C   UNL     1       3.569   2.357   1.981  0.00  0.00    +0.010 A 
ATOM     32  C   UNL     1       4.916   2.057   1.999  0.00  0.00    +0.001 A 
ATOM     33  C   UNL     1       5.738   2.612   2.963  0.00  0.00    +0.000 A 
ATOM     34  C   UNL     1       5.217   3.475   3.910  0.00  0.00    +0.001 A 
ATOM     35  C   UNL     1       3.872   3.787   3.898  0.00  0.00    +0.010 A 
ENDBRANCH  29  30
ENDBRANCH  23  24
ENDBRANCH  11  23
TORSDOF 7
