REMARK  Name = ZINC16310082
REMARK  5 active torsions:
REMARK  status: ('A' for Active; 'I' for Inactive)
REMARK    1  A    between atoms: C_1  and  C_2
REMARK    2  A    between atoms: C_5  and  S_8
REMARK    3  A    between atoms: S_8  and  N_11
REMARK    4  A    between atoms: C_12  and  C_26
REMARK    5  A    between atoms: C_15  and  C_19
REMARK                            x       y       z     vdW  Elec       q    Type
REMARK                         _______ _______ _______ _____ _____    ______ ____
ROOT
ATOM      1  N   UNL     1       5.027   0.547  -0.060  0.00  0.00    -0.172 N 
ATOM      2  C   UNL     1       3.830  -0.301   0.063  0.00  0.00    +0.154 C 
ATOM      3  C   UNL     1       2.487   0.398   0.087  0.00  0.00    +0.025 C 
ATOM      4  C   UNL     1       2.471   1.730  -0.012  0.00  0.00    +0.039 C 
ATOM      5  N   UNL     1       3.655   2.453  -0.125  0.00  0.00    -0.295 N 
ATOM      6  C   UNL     1       4.866   1.882  -0.147  0.00  0.00    +0.158 C 
ATOM      7  S   UNL     1       6.252   2.878  -0.289  0.00  0.00    -0.017 S 
ATOM      8  H   UNL     1       3.600   3.419  -0.192  0.00  0.00    +0.154 HD
ENDROOT
BRANCH   4   9
ATOM      9  C   UNL     1       1.176   2.447   0.004  0.00  0.00    +0.014 A 
ATOM     10  C   UNL     1       0.299   2.286   1.076  0.00  0.00    +0.011 A 
ATOM     11  C   UNL     1      -0.905   2.958   1.086  0.00  0.00    +0.001 A 
ATOM     12  C   UNL     1      -1.246   3.791   0.035  0.00  0.00    +0.001 A 
ATOM     13  C   UNL     1      -0.379   3.960  -1.029  0.00  0.00    +0.020 A 
ATOM     14  C   UNL     1       0.828   3.289  -1.054  0.00  0.00    +0.050 A 
ATOM     15 CL   UNL     1       1.913   3.497  -2.393  0.00  0.00    -0.083 Cl
ENDBRANCH   4   9
BRANCH   2  16
ATOM     16  C   UNL     1       3.830  -1.272  -1.089  0.00  0.00    -0.021 A 
ATOM     17  C   UNL     1       4.210  -0.850  -2.350  0.00  0.00    +0.006 A 
ATOM     18  C   UNL     1       4.215  -1.742  -3.405  0.00  0.00    +0.000 A 
ATOM     19  C   UNL     1       3.830  -3.054  -3.203  0.00  0.00    +0.000 A 
ATOM     20  C   UNL     1       3.446  -3.476  -1.944  0.00  0.00    +0.000 A 
ATOM     21  C   UNL     1       3.446  -2.584  -0.887  0.00  0.00    +0.006 A 
ENDBRANCH   2  16
BRANCH   1  22
ATOM     22  S   UNL     1       6.540  -0.126  -0.091  0.00  0.00    +0.077 S 
ATOM     23  O   UNL     1       6.380  -1.465  -0.539  0.00  0.00    -0.150 OA
ATOM     24  O   UNL     1       7.385   0.804  -0.754  0.00  0.00    -0.150 OA
BRANCH  22  29
ATOM     25  C   UNL     1       8.469  -0.440   5.618  0.00  0.00    +0.044 C 
ATOM     26  C   UNL     1       7.988  -0.362   4.192  0.00  0.00    -0.050 A 
ATOM     27  C   UNL     1       7.283  -1.417   3.641  0.00  0.00    +0.005 A 
ATOM     28  C   UNL     1       6.841  -1.345   2.333  0.00  0.00    +0.029 A 
ATOM     29  C   UNL     1       7.104  -0.218   1.576  0.00  0.00    +0.109 A 
ATOM     30  C   UNL     1       7.812   0.834   2.125  0.00  0.00    +0.029 A 
ATOM     31  C   UNL     1       8.251   0.764   3.434  0.00  0.00    +0.005 A 
ENDBRANCH  22  29
ENDBRANCH   1  22
TORSDOF 4
