REMARK  Name = ZINC35450886
REMARK  8 active torsions:
REMARK  status: ('A' for Active; 'I' for Inactive)
REMARK    1  A    between atoms: C_1  and  C_2
REMARK    2  A    between atoms: C_2  and  C_3
REMARK    3  A    between atoms: C_3  and  C_4
REMARK    4  A    between atoms: C_4  and  S_5
REMARK    5  A    between atoms: S_5  and  C_6
REMARK    6  A    between atoms: C_13  and  C_25
REMARK    7  A    between atoms: C_19  and  C_23
REMARK    8  A    between atoms: C_19  and  C_24
REMARK                            x       y       z     vdW  Elec       q    Type
REMARK                         _______ _______ _______ _____ _____    ______ ____
ROOT
ATOM      1  C   UNL     1       1.529  -4.368  -2.621  0.00  0.00    +0.171 A 
ATOM      2  N   UNL     1       0.939  -4.915  -1.577  0.00  0.00    -0.208 NA
ATOM      3  C   UNL     1       0.874  -6.243  -1.439  0.00  0.00    +0.135 A 
ATOM      4  C   UNL     1       1.428  -7.065  -2.405  0.00  0.00    +0.069 A 
ATOM      5  C   UNL     1       2.056  -6.479  -3.510  0.00  0.00    +0.258 A 
ATOM      6  O   UNL     1       2.558  -7.173  -4.380  0.00  0.00    -0.267 OA
ATOM      7  N   UNL     1       2.090  -5.132  -3.599  0.00  0.00    -0.302 N 
ATOM      8  C   UNL     1       1.357  -8.557  -2.276  0.00  0.00    +0.092 C 
ATOM      9  C   UNL     1       1.041  -8.972  -0.861  0.00  0.00    +0.024 C 
ATOM     10  C   UNL     1       0.519  -8.097   0.024  0.00  0.00    +0.017 C 
ATOM     11  N   UNL     1       0.258  -6.803  -0.337  0.00  0.00    -0.302 N 
ATOM     12  C   UNL     1       0.210  -8.517   1.441  0.00  0.00    +0.058 C 
ATOM     13  C   UNL     1      -0.168  -9.999   1.467  0.00  0.00    -0.023 C 
ATOM     14  C   UNL     1       1.000 -10.807   0.890  0.00  0.00    +0.086 C 
ATOM     15  C   UNL     1       1.306 -10.303  -0.493  0.00  0.00    +0.162 C 
ATOM     16  O   UNL     1       1.793 -11.061  -1.309  0.00  0.00    -0.292 OA
ATOM     17  C   UNL     1      -1.420 -10.226   0.618  0.00  0.00    +0.011 C 
ATOM     18  C   UNL     1      -0.436 -10.437   2.908  0.00  0.00    +0.011 C 
ATOM     19  H   UNL     1      -0.364  -6.274   0.187  0.00  0.00    +0.153 HD
ATOM     20  H   UNL     1       2.518  -4.708  -4.360  0.00  0.00    +0.171 HD
ENDROOT
BRANCH   8  21
ATOM     21  C   UNL     1       0.282  -9.080  -3.194  0.00  0.00    -0.034 A 
ATOM     22  C   UNL     1      -1.025  -8.658  -3.038  0.00  0.00    +0.004 A 
ATOM     23  C   UNL     1      -2.011  -9.138  -3.880  0.00  0.00    +0.002 A 
ATOM     24  C   UNL     1      -1.691 -10.040  -4.877  0.00  0.00    +0.020 A 
ATOM     25  C   UNL     1      -0.383 -10.462  -5.033  0.00  0.00    +0.041 A 
ATOM     26  C   UNL     1       0.605  -9.977  -4.194  0.00  0.00    +0.024 A 
ATOM     27 CL   UNL     1       0.019 -11.595  -6.285  0.00  0.00    -0.084 Cl
ENDBRANCH   8  21
BRANCH   1  28
ATOM     28  S   UNL     1       1.588  -2.612  -2.758  0.00  0.00    -0.088 S 
BRANCH  28  29
ATOM     29  C   UNL     1       0.739  -2.027  -1.265  0.00  0.00    +0.077 C 
BRANCH  29  30
ATOM     30  C   UNL     1       0.718  -0.497  -1.257  0.00  0.00    +0.011 C 
BRANCH  30  32
ATOM     31  C   UNL     1      -0.019   1.526   0.010  0.00  0.00    +0.004 C 
ATOM     32  C   UNL     1       0.002  -0.004   0.002  0.00  0.00    -0.003 C 
ENDBRANCH  30  32
ENDBRANCH  29  30
ENDBRANCH  28  29
ENDBRANCH   1  28
TORSDOF 5
