REMARK  Name = ZINC14458458
REMARK  6 active torsions:
REMARK  status: ('A' for Active; 'I' for Inactive)
REMARK    1  A    between atoms: C_1  and  C_2
REMARK    2  A    between atoms: C_5  and  C_8
REMARK    3  A    between atoms: C_19  and  S_24
REMARK    4  A    between atoms: S_24  and  N_27
REMARK    5  A    between atoms: N_27  and  C_28
REMARK    6  A    between atoms: N_27  and  C_29
REMARK                            x       y       z     vdW  Elec       q    Type
REMARK                         _______ _______ _______ _____ _____    ______ ____
ROOT
ATOM      1  C   UNL     1       0.844   1.838  -0.608  0.00  0.00    +0.105 C 
ATOM      2  C   UNL     1       1.718   1.792   0.649  0.00  0.00    +0.029 C 
ATOM      3  C   UNL     1       3.000   2.625   0.354  0.00  0.00    +0.033 C 
ATOM      4  C   UNL     1       3.885   1.651  -0.399  0.00  0.00    -0.030 C 
ATOM      5  C   UNL     1       3.526   0.416  -0.148  0.00  0.00    -0.023 C 
ATOM      6  C   UNL     1       2.350   0.395   0.799  0.00  0.00    +0.049 C 
ATOM      7  C   UNL     1       1.402  -0.714   0.469  0.00  0.00    -0.018 A 
ATOM      8  C   UNL     1       1.757  -2.015   0.798  0.00  0.00    +0.034 A 
ATOM      9  C   UNL     1       0.910  -3.066   0.515  0.00  0.00    +0.109 A 
ATOM     10  C   UNL     1      -0.306  -2.836  -0.102  0.00  0.00    +0.030 A 
ATOM     11  C   UNL     1      -0.671  -1.546  -0.435  0.00  0.00    +0.025 A 
ATOM     12  C   UNL     1       0.183  -0.488  -0.151  0.00  0.00    +0.031 A 
ATOM     13  N   UNL     1      -0.199   0.813  -0.499  0.00  0.00    -0.336 N 
ATOM     14  H   UNL     1      -1.129   1.030  -0.667  0.00  0.00    +0.147 HD
ENDROOT
BRANCH   1  19
ATOM     15  C   UNL     1       4.100   0.799  -5.267  0.00  0.00    +0.044 C 
ATOM     16  C   UNL     1       3.250   1.071  -4.053  0.00  0.00    -0.050 A 
ATOM     17  C   UNL     1       2.677   0.019  -3.361  0.00  0.00    +0.004 A 
ATOM     18  C   UNL     1       1.899   0.268  -2.247  0.00  0.00    +0.006 A 
ATOM     19  C   UNL     1       1.693   1.567  -1.823  0.00  0.00    -0.027 A 
ATOM     20  C   UNL     1       2.262   2.619  -2.517  0.00  0.00    +0.006 A 
ATOM     21  C   UNL     1       3.044   2.370  -3.629  0.00  0.00    +0.004 A 
ENDBRANCH   1  19
BRANCH   9  22
ATOM     22  S   UNL     1       1.380  -4.710   0.941  0.00  0.00    +0.074 S 
ATOM     23  O   UNL     1       0.548  -5.579   0.183  0.00  0.00    -0.150 OA
ATOM     24  O   UNL     1       2.798  -4.759   0.869  0.00  0.00    -0.150 OA
BRANCH  22  25
ATOM     25  N   UNL     1       0.978  -4.938   2.531  0.00  0.00    -0.206 N 
ATOM     26  C   UNL     1       1.925  -4.567   3.586  0.00  0.00    +0.157 C 
BRANCH  25  27
ATOM     27  C   UNL     1      -0.263  -5.484   2.867  0.00  0.00    +0.051 A 
ATOM     28  C   UNL     1      -1.343  -5.339   2.005  0.00  0.00    +0.025 A 
ATOM     29  C   UNL     1      -2.567  -5.884   2.338  0.00  0.00    +0.002 A 
ATOM     30  C   UNL     1      -2.722  -6.564   3.532  0.00  0.00    +0.000 A 
ATOM     31  C   UNL     1      -1.650  -6.705   4.395  0.00  0.00    +0.002 A 
ATOM     32  C   UNL     1      -0.421  -6.167   4.066  0.00  0.00    +0.025 A 
ENDBRANCH  25  27
ENDBRANCH  22  25
ENDBRANCH   9  22
TORSDOF 4
