REMARK  Name = ZINC04655211
REMARK  7 active torsions:
REMARK  status: ('A' for Active; 'I' for Inactive)
REMARK    1  A    between atoms: C_1  and  C_2
REMARK    2  A    between atoms: C_5  and  O_30
REMARK    3  A    between atoms: C_18  and  C_29
REMARK    4  A    between atoms: C_23  and  C_24
REMARK    5  A    between atoms: C_23  and  O_28
REMARK    6  A    between atoms: C_24  and  C_26
REMARK    7  A    between atoms: C_26  and  O_27
REMARK                            x       y       z     vdW  Elec       q    Type
REMARK                         _______ _______ _______ _____ _____    ______ ____
ROOT
ATOM      1  C   UNL     1      -0.780   3.064   1.421  0.00  0.00    +0.012 C 
ATOM      2  C   UNL     1      -0.724   1.546   1.294  0.00  0.00    -0.026 C 
ATOM      3  C   UNL     1       0.029   0.955   2.493  0.00  0.00    +0.010 C 
ATOM      4  C   UNL     1       1.494   1.387   2.489  0.00  0.00    +0.032 C 
ATOM      5  C   UNL     1       2.168   0.956   1.188  0.00  0.00    +0.115 C 
ATOM      6  C   UNL     1       1.434   1.579  -0.003  0.00  0.00    +0.035 C 
ATOM      7  C   UNL     1      -0.013   1.101   0.008  0.00  0.00    -0.002 C 
ATOM      8  C   UNL     1      -0.755   1.551  -1.244  0.00  0.00    +0.004 C 
ATOM      9  C   UNL     1      -2.190   0.985  -1.248  0.00  0.00    +0.004 C 
ATOM     10  C   UNL     1      -2.872   1.478   0.016  0.00  0.00    -0.004 C 
ATOM     11  C   UNL     1      -2.119   0.933   1.237  0.00  0.00    -0.001 C 
ATOM     12  C   UNL     1      -2.975   1.146   2.474  0.00  0.00    +0.005 C 
ATOM     13  C   UNL     1      -4.125   0.114   2.429  0.00  0.00    +0.010 C 
ATOM     14  C   UNL     1      -4.669   0.005   1.030  0.00  0.00    +0.007 C 
ATOM     15  C   UNL     1      -4.338   1.239   0.169  0.00  0.00    +0.002 C 
ATOM     16  C   UNL     1      -5.128   0.954  -1.117  0.00  0.00    +0.008 C 
ATOM     17  C   UNL     1      -6.438   0.297  -0.607  0.00  0.00    +0.043 C 
ATOM     18  C   UNL     1      -6.199  -0.058   0.886  0.00  0.00    +0.131 C 
ATOM     19  C   UNL     1      -4.122  -1.276   0.370  0.00  0.00    +0.015 C 
ENDROOT
BRANCH  18  20
ATOM     20  C   UNL     1      -6.894   0.939   1.766  0.00  0.00    +0.190 C 
ATOM     21  O   UNL     1      -6.322   1.948   2.103  0.00  0.00    -0.292 OA
BRANCH  20  22
ATOM     22  C   UNL     1      -8.304   0.681   2.230  0.00  0.00    +0.233 C 
BRANCH  22  23
ATOM     23  O   UNL     1      -8.742   1.766   3.051  0.00  0.00    -0.387 OA
ATOM     24  H   UNL     1      -9.644   1.667   3.385  0.00  0.00    +0.210 HD
ENDBRANCH  22  23
ENDBRANCH  20  22
ENDBRANCH  18  20
BRANCH  18  25
ATOM     25  O   UNL     1      -6.656  -1.384   1.150  0.00  0.00    -0.380 OA
ATOM     26  H   UNL     1      -7.603  -1.511   0.998  0.00  0.00    +0.211 HD
ENDBRANCH  18  25
BRANCH   5  27
ATOM     27  O   UNL     1       3.531   1.385   1.184  0.00  0.00    -0.392 OA
ATOM     28  H   UNL     1       4.058   1.029   1.912  0.00  0.00    +0.210 HD
ENDBRANCH   5  27
TORSDOF 5
