REMARK  Name = ZINC39198026
REMARK  17 active torsions:
REMARK  status: ('A' for Active; 'I' for Inactive)
REMARK    1  A    between atoms: C_1  and  C_2
REMARK    2  A    between atoms: C_2  and  C_3
REMARK    3  A    between atoms: C_2  and  C_4
REMARK    4  A    between atoms: C_4  and  C_5
REMARK    5  A    between atoms: C_5  and  C_7
REMARK    6  A    between atoms: C_5  and  N_21
REMARK    7  A    between atoms: C_12  and  O_15
REMARK    8  A    between atoms: O_15  and  C_16
REMARK    9  A    between atoms: C_16  and  C_17
REMARK   10  A    between atoms: C_17  and  N_18
REMARK   11  A    between atoms: N_18  and  C_19
REMARK   12  A    between atoms: N_18  and  C_20
REMARK   13  A    between atoms: C_22  and  C_24
REMARK   14  A    between atoms: C_24  and  N_25
REMARK   15  A    between atoms: C_26  and  O_28
REMARK   16  A    between atoms: O_28  and  C_29
REMARK   17  A    between atoms: C_29  and  C_30
REMARK                            x       y       z     vdW  Elec       q    Type
REMARK                         _______ _______ _______ _____ _____    ______ ____
ROOT
ATOM      1  C   UNL     1      -1.379  -2.438   0.018  0.00  0.00    +0.159 C 
ENDROOT
BRANCH   1   2
ATOM      2  C   UNL     1      -2.804  -2.879   0.232  0.00  0.00    +0.236 C 
ATOM      3  O   UNL     1      -3.486  -3.208  -0.715  0.00  0.00    -0.274 OA
ATOM      4  N   UNL     1      -3.320  -2.907   1.477  0.00  0.00    -0.300 N 
ATOM      5  C   UNL     1      -2.547  -2.404   2.620  0.00  0.00    +0.110 C 
ATOM      6  C   UNL     1      -3.390  -1.366   3.368  0.00  0.00    +0.050 C 
ATOM      7  C   UNL     1      -4.738  -1.986   3.744  0.00  0.00    +0.121 C 
ATOM      8  C   UNL     1      -5.487  -2.393   2.474  0.00  0.00    +0.050 C 
ATOM      9  C   UNL     1      -4.670  -3.437   1.715  0.00  0.00    +0.110 C 
BRANCH   7  10
ATOM     10  O   UNL     1      -5.514  -1.031   4.470  0.00  0.00    -0.378 OA
BRANCH  10  11
ATOM     11  C   UNL     1      -6.413  -1.612   5.418  0.00  0.00    +0.141 C 
BRANCH  11  12
ATOM     12  C   UNL     1      -7.188  -0.503   6.132  0.00  0.00    -0.051 C 
BRANCH  12  13
ATOM     13  N   UNL     1      -8.036   0.204   5.163  0.00  0.00    +0.377 N 
ATOM     14  C   UNL     1      -9.084  -0.703   4.676  0.00  0.00    -0.097 C 
ATOM     15  C   UNL     1      -8.656   1.366   5.812  0.00  0.00    -0.097 C 
ATOM     16  H   UNL     1      -7.471   0.514   4.386  0.00  0.00    -0.083 HD
ENDBRANCH  12  13
ENDBRANCH  11  12
ENDBRANCH  10  11
ENDBRANCH   7  10
ENDBRANCH   1   2
BRANCH   1  17
ATOM     17  N   UNL     1      -0.878  -2.999  -1.240  0.00  0.00    -0.303 N 
ATOM     18  C   UNL     1       0.445  -3.185  -1.415  0.00  0.00    +0.231 C 
ATOM     19  O   UNL     1       1.222  -2.888  -0.532  0.00  0.00    -0.274 OA
ATOM     20  H   UNL     1      -1.499  -3.236  -1.946  0.00  0.00    +0.149 HD
BRANCH  18  21
ATOM     21  C   UNL     1       0.960  -3.761  -2.709  0.00  0.00    +0.203 C 
BRANCH  21  22
ATOM     22  N   UNL     1       2.420  -3.863  -2.651  0.00  0.00    -0.273 N 
ATOM     23  C   UNL     1       3.104  -4.355  -3.703  0.00  0.00    +0.401 C 
ATOM     24  O   UNL     1       2.509  -4.715  -4.700  0.00  0.00    -0.226 OA
ATOM     25  H   UNL     1       2.896  -3.576  -1.855  0.00  0.00    +0.153 HD
BRANCH  23  26
ATOM     26  O   UNL     1       4.446  -4.449  -3.650  0.00  0.00    -0.446 OA
BRANCH  26  27
ATOM     27  C   UNL     1       5.105  -4.979  -4.801  0.00  0.00    +0.269 C 
BRANCH  27  28
ATOM     28  C   UNL     1       6.593  -5.008  -4.560  0.00  0.00    -0.010 A 
ATOM     29  C   UNL     1       7.369  -3.915  -4.899  0.00  0.00    +0.007 A 
ATOM     30  C   UNL     1       8.733  -3.941  -4.677  0.00  0.00    +0.000 A 
ATOM     31  C   UNL     1       9.321  -5.059  -4.117  0.00  0.00    +0.000 A 
ATOM     32  C   UNL     1       8.545  -6.152  -3.777  0.00  0.00    +0.000 A 
ATOM     33  C   UNL     1       7.180  -6.124  -3.995  0.00  0.00    +0.007 A 
ENDBRANCH  27  28
ENDBRANCH  26  27
ENDBRANCH  23  26
ENDBRANCH  21  22
ENDBRANCH  18  21
ENDBRANCH   1  17
BRANCH   1  34
ATOM     34  C   UNL     1      -1.321  -0.910  -0.047  0.00  0.00    +0.034 C 
BRANCH  34  36
ATOM     35  C   UNL     1       0.195   1.061  -0.287  0.00  0.00    +0.007 C 
ATOM     36  C   UNL     1       0.139  -0.456  -0.097  0.00  0.00    -0.015 C 
ATOM     37  C   UNL     1       0.835  -0.833   1.212  0.00  0.00    +0.007 C 
ENDBRANCH  34  36
ENDBRANCH   1  34
TORSDOF 13
