REMARK  Name = ZINC36601018
REMARK  18 active torsions:
REMARK  status: ('A' for Active; 'I' for Inactive)
REMARK    1  A    between atoms: C_1  and  C_2
REMARK    2  A    between atoms: C_5  and  C_8
REMARK    3  A    between atoms: C_8  and  C_10
REMARK    4  A    between atoms: C_8  and  N_21
REMARK    5  A    between atoms: N_12  and  C_13
REMARK    6  A    between atoms: C_13  and  C_14
REMARK    7  A    between atoms: C_13  and  C_15
REMARK    8  A    between atoms: C_13  and  C_16
REMARK    9  A    between atoms: C_16  and  C_17
REMARK   10  A    between atoms: C_17  and  C_18
REMARK   11  A    between atoms: C_17  and  C_19
REMARK   12  A    between atoms: C_17  and  C_20
REMARK   13  A    between atoms: N_21  and  C_22
REMARK   14  A    between atoms: C_22  and  C_23
REMARK   15  A    between atoms: C_26  and  C_28
REMARK   16  A    between atoms: C_29  and  C_31
REMARK   17  A    between atoms: C_31  and  N_32
REMARK   18  A    between atoms: C_33  and  C_35
REMARK                            x       y       z     vdW  Elec       q    Type
REMARK                         _______ _______ _______ _____ _____    ______ ____
ROOT
ATOM      1  N   UNL     1       0.718  -2.130   1.507  0.00  0.00    -0.277 N 
ATOM      2  C   UNL     1      -0.576  -2.507   1.478  0.00  0.00    +0.234 C 
ATOM      3  O   UNL     1      -1.103  -2.786   0.422  0.00  0.00    -0.274 OA
ENDROOT
BRANCH   1   4
ATOM      4  C   UNL     1       1.488  -2.059   0.263  0.00  0.00    +0.193 C 
BRANCH   4   9
ATOM      5  C   UNL     1      -0.955   1.785  -3.294  0.00  0.00    +0.044 C 
ATOM      6  C   UNL     1      -0.317   0.783  -2.366  0.00  0.00    -0.050 A 
ATOM      7  C   UNL     1       0.286  -0.350  -2.881  0.00  0.00    +0.004 A 
ATOM      8  C   UNL     1       0.870  -1.269  -2.030  0.00  0.00    +0.006 A 
ATOM      9  C   UNL     1       0.852  -1.056  -0.664  0.00  0.00    -0.018 A 
ATOM     10  C   UNL     1       0.249   0.077  -0.150  0.00  0.00    +0.006 A 
ATOM     11  C   UNL     1      -0.331   0.998  -1.001  0.00  0.00    +0.004 A 
ENDBRANCH   4   9
BRANCH   4  12
ATOM     12  C   UNL     1       2.900  -1.633   0.571  0.00  0.00    +0.239 C 
ATOM     13  O   UNL     1       3.338  -1.752   1.695  0.00  0.00    -0.273 OA
ATOM     14  N   UNL     1       3.677  -1.119  -0.404  0.00  0.00    -0.308 N 
ATOM     15  H   UNL     1       3.326  -1.024  -1.303  0.00  0.00    +0.149 HD
BRANCH  14  16
ATOM     16  C   UNL     1       5.050  -0.706  -0.105  0.00  0.00    +0.030 C 
ATOM     17  C   UNL     1       5.033   0.365   0.988  0.00  0.00    +0.031 C 
ATOM     18  C   UNL     1       5.854  -1.915   0.378  0.00  0.00    +0.031 C 
BRANCH  16  19
ATOM     19  C   UNL     1       5.697  -0.134  -1.368  0.00  0.00    +0.031 C 
BRANCH  19  20
ATOM     20  C   UNL     1       5.391  -1.049  -2.556  0.00  0.00    -0.036 C 
ATOM     21  C   UNL     1       3.903  -0.958  -2.900  0.00  0.00    +0.010 C 
ATOM     22  C   UNL     1       6.222  -0.611  -3.764  0.00  0.00    +0.010 C 
ATOM     23  C   UNL     1       5.743  -2.493  -2.192  0.00  0.00    +0.010 C 
ENDBRANCH  19  20
ENDBRANCH  16  19
ENDBRANCH  14  16
ENDBRANCH   4  12
ENDBRANCH   1   4
BRANCH   1  24
ATOM     24  C   UNL     1       1.354  -1.793   2.783  0.00  0.00    +0.183 C 
BRANCH  24  25
ATOM     25  C   UNL     1       1.631  -0.312   2.830  0.00  0.00    +0.122 A 
ATOM     26  C   UNL     1       0.769   0.637   3.236  0.00  0.00    +0.046 A 
ATOM     27  C   UNL     1       1.439   1.876   3.117  0.00  0.00    +0.045 A 
ATOM     28  C   UNL     1       2.670   1.610   2.645  0.00  0.00    +0.102 A 
ATOM     29  O   UNL     1       2.783   0.282   2.478  0.00  0.00    -0.463 OA
ATOM     30  C   UNL     1       3.743   2.629   2.357  0.00  0.00    +0.086 C 
ENDBRANCH  24  25
ENDBRANCH   1  24
BRANCH   2  31
ATOM     31  C   UNL     1      -1.369  -2.580   2.758  0.00  0.00    +0.200 C 
BRANCH  31  32
ATOM     32  N   UNL     1      -2.737  -3.011   2.461  0.00  0.00    -0.303 N 
ATOM     33  C   UNL     1      -3.632  -3.148   3.459  0.00  0.00    +0.244 C 
ATOM     34  O   UNL     1      -3.304  -2.915   4.606  0.00  0.00    -0.270 OA
ATOM     35  H   UNL     1      -2.999  -3.197   1.546  0.00  0.00    +0.150 HD
BRANCH  33  36
ATOM     36  C   UNL     1      -5.013  -3.582   3.159  0.00  0.00    +0.037 A 
ATOM     37  C   UNL     1      -5.392  -3.856   1.844  0.00  0.00    +0.013 A 
ATOM     38  C   UNL     1      -6.682  -4.262   1.571  0.00  0.00    +0.001 A 
ATOM     39  C   UNL     1      -7.600  -4.396   2.598  0.00  0.00    +0.000 A 
ATOM     40  C   UNL     1      -7.231  -4.125   3.904  0.00  0.00    +0.001 A 
ATOM     41  C   UNL     1      -5.942  -3.725   4.191  0.00  0.00    +0.013 A 
ENDBRANCH  33  36
ENDBRANCH  31  32
ENDBRANCH   2  31
TORSDOF 11
