REMARK  Name = ZINC20695901
REMARK  4 active torsions:
REMARK  status: ('A' for Active; 'I' for Inactive)
REMARK    1  A    between atoms: C_3  and  O_28
REMARK    2  A    between atoms: C_4  and  C_8
REMARK    3  A    between atoms: C_19  and  N_25
REMARK    4  A    between atoms: C_21  and  O_24
REMARK                            x       y       z     vdW  Elec       q    Type
REMARK                         _______ _______ _______ _____ _____    ______ ____
ROOT
ATOM      1  C   UNL     1      -0.831   0.844  -2.462  0.00  0.00    +0.109 C 
ATOM      2  C   UNL     1      -0.881   1.812  -1.299  0.00  0.00    +0.029 C 
ATOM      3  C   UNL     1      -0.033   1.499  -0.061  0.00  0.00    +0.033 C 
ATOM      4  C   UNL     1      -0.860   2.151   1.049  0.00  0.00    -0.030 C 
ATOM      5  C   UNL     1      -2.139   2.205   0.688  0.00  0.00    -0.023 C 
ATOM      6  C   UNL     1      -2.279   1.573  -0.647  0.00  0.00    +0.049 C 
ATOM      7  C   UNL     1      -3.288   2.017  -1.635  0.00  0.00    -0.014 A 
ATOM      8  C   UNL     1      -4.490   2.571  -1.244  0.00  0.00    +0.039 A 
ATOM      9  C   UNL     1      -5.421   2.968  -2.185  0.00  0.00    +0.130 A 
ATOM     10  C   UNL     1      -5.144   2.808  -3.531  0.00  0.00    +0.080 A 
ATOM     11  C   UNL     1      -3.943   2.258  -3.932  0.00  0.00    +0.140 A 
ATOM     12  C   UNL     1      -2.989   1.857  -2.988  0.00  0.00    +0.074 A 
ATOM     13  N   UNL     1      -1.789   1.328  -3.468  0.00  0.00    -0.334 N 
ATOM     14  H   UNL     1      -1.542   1.263  -4.538  0.00  0.00    +0.147 HD
ENDROOT
BRANCH   1  18
ATOM     15  C   UNL     1       3.109   0.759  -4.120  0.00  0.00    +0.019 A 
ATOM     16  C   UNL     1       2.776  -0.106  -3.095  0.00  0.00    +0.047 A 
ATOM     17  C   UNL     1       1.498  -0.081  -2.556  0.00  0.00    +0.122 A 
ATOM     18  C   UNL     1       0.558   0.814  -3.046  0.00  0.00    +0.015 A 
ATOM     19  C   UNL     1       0.893   1.673  -4.074  0.00  0.00    +0.024 A 
ATOM     20  C   UNL     1       2.170   1.650  -4.607  0.00  0.00    +0.018 A 
ATOM     21 BR   UNL     1       2.629   2.833  -6.009  0.00  0.00    -0.050 Br
BRANCH  17  22
ATOM     22  O   UNL     1       1.168  -0.931  -1.548  0.00  0.00    -0.506 OA
ATOM     23  H   UNL     1       0.155  -0.910  -1.121  0.00  0.00    +0.292 HD
ENDBRANCH  17  22
ENDBRANCH   1  18
BRANCH   9  24
ATOM     24  N   UNL     1      -6.707   3.562  -1.755  0.00  0.00    +0.057 N 
ATOM     25  O   UNL     1      -7.525   3.910  -2.587  0.00  0.00    -0.126 OA
ATOM     26  O   UNL     1      -6.947   3.701  -0.569  0.00  0.00    -0.126 OA
ENDBRANCH   9  24
BRANCH  11  27
ATOM     27  O   UNL     1      -3.683   2.104  -5.258  0.00  0.00    -0.505 OA
ATOM     28  H   UNL     1      -2.728   1.667  -5.585  0.00  0.00    +0.292 HD
ENDBRANCH  11  27
TORSDOF 4
