REMARK  Name = ZINC02421890
REMARK  9 active torsions:
REMARK  status: ('A' for Active; 'I' for Inactive)
REMARK    1  A    between atoms: C_1  and  C_2
REMARK    2  A    between atoms: C_5  and  C_35
REMARK    3  A    between atoms: C_6  and  S_8
REMARK    4  A    between atoms: S_8  and  C_11
REMARK    5  A    between atoms: N_22  and  N_25
REMARK    6  A    between atoms: C_23  and  N_24
REMARK    7  A    between atoms: C_26  and  C_27
REMARK    8  A    between atoms: C_32  and  O_33
REMARK    9  A    between atoms: O_33  and  C_34
REMARK                            x       y       z     vdW  Elec       q    Type
REMARK                         _______ _______ _______ _____ _____    ______ ____
ROOT
ATOM      1  C   UNL     1       1.272   2.334   0.079  0.00  0.00    +0.162 A 
ATOM      2  C   UNL     1       2.192   2.572   1.130  0.00  0.00    +0.137 A 
ATOM      3  C   UNL     1       3.343   3.245   0.515  0.00  0.00    +0.184 A 
ATOM      4  N   UNL     1       4.369   3.591   1.259  0.00  0.00    -0.224 NA
ATOM      5  C   UNL     1       4.355   3.335   2.574  0.00  0.00    +0.092 A 
ATOM      6  C   UNL     1       5.448   3.706   3.378  0.00  0.00    +0.030 A 
ATOM      7  C   UNL     1       5.430   3.436   4.712  0.00  0.00    +0.002 A 
ATOM      8  C   UNL     1       4.340   2.794   5.298  0.00  0.00    +0.002 A 
ATOM      9  C   UNL     1       3.266   2.420   4.553  0.00  0.00    +0.030 A 
ATOM     10  C   UNL     1       3.247   2.682   3.170  0.00  0.00    +0.090 A 
ATOM     11  N   UNL     1       2.195   2.319   2.429  0.00  0.00    -0.240 NA
ATOM     12  N   UNL     1       3.044   3.372  -0.827  0.00  0.00    -0.197 N 
ATOM     13  C   UNL     1       1.806   2.822  -1.065  0.00  0.00    +0.148 A 
ENDROOT
BRANCH   1  14
ATOM     14  S   UNL     1      -0.296   1.546   0.235  0.00  0.00    +0.031 S 
ATOM     15  O   UNL     1      -1.177   2.216  -0.655  0.00  0.00    -0.164 OA
ATOM     16  O   UNL     1      -0.559   1.437   1.628  0.00  0.00    -0.164 OA
BRANCH  14  22
ATOM     17  C   UNL     1      -1.296  -2.171  -3.300  0.00  0.00    +0.044 C 
ATOM     18  C   UNL     1      -0.608  -1.762  -2.024  0.00  0.00    -0.049 A 
ATOM     19  C   UNL     1       0.164  -2.676  -1.331  0.00  0.00    +0.004 A 
ATOM     20  C   UNL     1       0.795  -2.300  -0.159  0.00  0.00    +0.005 A 
ATOM     21  C   UNL     1       0.654  -1.011   0.319  0.00  0.00    -0.025 A 
ATOM     22  C   UNL     1      -0.117  -0.097  -0.374  0.00  0.00    +0.097 A 
ATOM     23  C   UNL     1      -0.752  -0.474  -1.543  0.00  0.00    +0.031 A 
ATOM     24  C   UNL     1       1.342  -0.602   1.596  0.00  0.00    +0.046 C 
ENDBRANCH  14  22
ENDBRANCH   1  14
BRANCH  13  25
ATOM     25  N   UNL     1       1.191   2.775  -2.304  0.00  0.00    -0.341 N 
ATOM     26  H   UNL     1       0.357   2.291  -2.413  0.00  0.00    +0.144 HD
ATOM     27  H   UNL     1       1.594   3.224  -3.063  0.00  0.00    +0.144 HD
ENDBRANCH  13  25
BRANCH  12  28
ATOM     28  N   UNL     1       3.869   3.965  -1.792  0.00  0.00    -0.171 NA
ATOM     29  C   UNL     1       3.771   5.235  -2.038  0.00  0.00    +0.145 C 
BRANCH  29  30
ATOM     30  C   UNL     1       4.639   5.859  -3.052  0.00  0.00    +0.036 A 
ATOM     31  C   UNL     1       4.532   7.225  -3.324  0.00  0.00    +0.013 A 
ATOM     32  C   UNL     1       5.351   7.803  -4.271  0.00  0.00    +0.001 A 
ATOM     33  C   UNL     1       6.271   7.033  -4.962  0.00  0.00    +0.004 A 
ATOM     34  C   UNL     1       6.383   5.680  -4.706  0.00  0.00    +0.046 A 
ATOM     35  C   UNL     1       5.572   5.083  -3.754  0.00  0.00    +0.129 A 
BRANCH  35  36
ATOM     36  O   UNL     1       5.681   3.754  -3.502  0.00  0.00    -0.494 OA
ATOM     37  C   UNL     1       6.654   3.028  -4.256  0.00  0.00    +0.277 C 
ENDBRANCH  35  36
ENDBRANCH  29  30
ENDBRANCH  12  28
TORSDOF 6
