REMARK  Name = ZINC39635795
REMARK  7 active torsions:
REMARK  status: ('A' for Active; 'I' for Inactive)
REMARK    1  A    between atoms: C_1  and  C_2
REMARK    2  A    between atoms: C_2  and  O_3
REMARK    3  A    between atoms: O_3  and  C_4
REMARK    4  A    between atoms: C_7  and  C_10
REMARK    5  A    between atoms: C_14  and  C_23
REMARK    6  A    between atoms: N_25  and  C_26
REMARK    7  A    between atoms: C_32  and  C_34
REMARK                            x       y       z     vdW  Elec       q    Type
REMARK                         _______ _______ _______ _____ _____    ______ ____
ROOT
ATOM      1  C   UNL     1      -1.998  -6.056  -0.014  0.00  0.00    +0.247 C 
ATOM      2  O   UNL     1      -1.029  -6.780  -0.130  0.00  0.00    -0.270 OA
ATOM      3  N   UNL     1      -3.231  -6.590   0.093  0.00  0.00    -0.296 N 
ATOM      4  C   UNL     1      -4.531  -5.879   0.113  0.00  0.00    +0.121 C 
ATOM      5  C   UNL     1      -5.477  -6.773  -0.720  0.00  0.00    +0.100 C 
ATOM      6  C   UNL     1      -4.857  -8.178  -0.645  0.00  0.00    -0.004 C 
ATOM      7  C   UNL     1      -3.593  -8.023   0.212  0.00  0.00    +0.115 C 
ATOM      8  C   UNL     1      -4.483  -8.666  -2.042  0.00  0.00    -0.010 C 
ATOM      9  C   UNL     1      -3.921 -10.087  -1.947  0.00  0.00    -0.082 C 
ATOM     10  N   UNL     1      -4.927 -10.974  -1.350  0.00  0.00    +0.379 N 
ATOM     11  C   UNL     1      -5.213 -10.552   0.027  0.00  0.00    -0.082 C 
ATOM     12  C   UNL     1      -5.829  -9.150   0.016  0.00  0.00    -0.010 C 
ATOM     13  H   UNL     1      -5.775 -10.934  -1.895  0.00  0.00    -0.086 HD
ATOM     14  H   UNL     1      -4.578 -11.921  -1.344  0.00  0.00    -0.086 HD
ENDROOT
BRANCH   1  18
ATOM     15  C   UNL     1      -1.499  -1.839   0.053  0.00  0.00    +0.121 A 
ATOM     16  C   UNL     1      -2.614  -2.414   0.650  0.00  0.00    +0.046 A 
ATOM     17  C   UNL     1      -2.780  -3.781   0.631  0.00  0.00    +0.016 A 
ATOM     18  C   UNL     1      -1.825  -4.590   0.009  0.00  0.00    +0.037 A 
ATOM     19  C   UNL     1      -0.706  -4.007  -0.592  0.00  0.00    +0.016 A 
ATOM     20  C   UNL     1      -0.550  -2.639  -0.572  0.00  0.00    +0.046 A 
BRANCH  15  21
ATOM     21  O   UNL     1      -1.340  -0.491   0.074  0.00  0.00    -0.492 OA
BRANCH  21  23
ATOM     22  C   UNL     1      -2.003   1.759   0.654  0.00  0.00    +0.048 C 
ATOM     23  C   UNL     1      -2.353   0.272   0.733  0.00  0.00    +0.225 C 
ENDBRANCH  21  23
ENDBRANCH  15  21
ENDBRANCH   1  18
BRANCH   5  24
ATOM     24  C   UNL     1      -6.860  -6.774  -0.121  0.00  0.00    +0.218 C 
ATOM     25  O   UNL     1      -7.010  -6.541   1.059  0.00  0.00    -0.275 OA
ATOM     26  N   UNL     1      -7.930  -7.034  -0.898  0.00  0.00    -0.312 N 
ATOM     27  H   UNL     1      -7.811  -7.220  -1.842  0.00  0.00    +0.149 HD
BRANCH  26  28
ATOM     28  C   UNL     1      -9.275  -7.036  -0.316  0.00  0.00    +0.076 C 
ATOM     29  C   UNL     1      -9.566  -8.409   0.292  0.00  0.00    +0.022 C 
ATOM     30  C   UNL     1      -9.482  -9.478  -0.800  0.00  0.00    +0.002 C 
ATOM     31  C   UNL     1     -10.510  -9.175  -1.891  0.00  0.00    +0.000 C 
ATOM     32  C   UNL     1     -10.219  -7.801  -2.498  0.00  0.00    +0.005 C 
ATOM     33  C   UNL     1     -10.303  -6.732  -1.407  0.00  0.00    +0.006 C 
ATOM     34  C   UNL     1     -10.012  -5.359  -2.014  0.00  0.00    +0.009 C 
ENDBRANCH  26  28
ENDBRANCH   5  24
TORSDOF 5
