REMARK  Name = ZINC13576100
REMARK  6 active torsions:
REMARK  status: ('A' for Active; 'I' for Inactive)
REMARK    1  A    between atoms: C_1  and  N_2
REMARK    2  A    between atoms: C_5  and  C_21
REMARK    3  A    between atoms: C_8  and  C_13
REMARK    4  A    between atoms: C_16  and  O_20
REMARK    5  A    between atoms: C_17  and  O_19
REMARK    6  A    between atoms: N_30  and  C_33
REMARK                            x       y       z     vdW  Elec       q    Type
REMARK                         _______ _______ _______ _____ _____    ______ ____
ROOT
ATOM      1  C   UNL     1       1.185  -2.746   0.346  0.00  0.00    +0.154 C 
ATOM      2  N   UNL     1       1.020  -1.304   0.548  0.00  0.00    -0.294 N 
ATOM      3  C   UNL     1       2.079  -0.435   0.264  0.00  0.00    +0.083 A 
ATOM      4  C   UNL     1       1.861   1.005   0.485  0.00  0.00    +0.089 A 
ATOM      5  C   UNL     1       3.042   1.637   0.134  0.00  0.00    +0.064 A 
ATOM      6  N   UNL     1       3.919   0.682  -0.270  0.00  0.00    -0.337 N 
ATOM      7  C   UNL     1       3.333  -0.564  -0.190  0.00  0.00    +0.077 A 
ATOM      8  C   UNL     1       4.054  -1.836  -0.574  0.00  0.00    +0.197 C 
ATOM      9  O   UNL     1       5.227  -1.469  -1.313  0.00  0.00    -0.364 OA
ATOM     10  C   UNL     1       6.024  -0.466  -0.678  0.00  0.00    +0.182 C 
ATOM     11  C   UNL     1       5.300   0.884  -0.733  0.00  0.00    +0.150 C 
ATOM     12  C   UNL     1       0.551   1.427   0.987  0.00  0.00    +0.266 A 
ATOM     13  O   UNL     1       0.311   2.602   1.190  0.00  0.00    -0.267 OA
ATOM     14  N   UNL     1      -0.382   0.479   1.220  0.00  0.00    -0.263 N 
ATOM     15  C   UNL     1      -0.148  -0.822   1.007  0.00  0.00    +0.332 A 
ATOM     16  O   UNL     1      -1.042  -1.612   1.242  0.00  0.00    -0.246 OA
ATOM     17  C   UNL     1      -1.698   0.890   1.716  0.00  0.00    +0.157 C 
ENDROOT
BRANCH   5  18
ATOM     18  C   UNL     1       3.301   3.089   0.189  0.00  0.00    -0.001 A 
ATOM     19  C   UNL     1       4.496   3.568   0.732  0.00  0.00    +0.011 A 
ATOM     20  C   UNL     1       4.735   4.926   0.775  0.00  0.00    +0.020 A 
ATOM     21  C   UNL     1       3.788   5.814   0.293  0.00  0.00    +0.041 A 
ATOM     22  C   UNL     1       2.599   5.346  -0.241  0.00  0.00    +0.020 A 
ATOM     23  C   UNL     1       2.351   3.991  -0.296  0.00  0.00    +0.011 A 
ATOM     24 CL   UNL     1       4.094   7.522   0.357  0.00  0.00    -0.084 Cl
ENDBRANCH   5  18
BRANCH   8  25
ATOM     25  C   UNL     1       3.158  -2.692  -1.431  0.00  0.00    -0.009 A 
ATOM     26  C   UNL     1       2.990  -4.031  -1.130  0.00  0.00    +0.010 A 
ATOM     27  C   UNL     1       2.164  -4.820  -1.910  0.00  0.00    +0.049 A 
ATOM     28  C   UNL     1       1.512  -4.271  -3.003  0.00  0.00    +0.158 A 
ATOM     29  C   UNL     1       1.686  -2.925  -3.309  0.00  0.00    +0.159 A 
ATOM     30  C   UNL     1       2.511  -2.139  -2.520  0.00  0.00    +0.055 A 
BRANCH  29  31
ATOM     31  O   UNL     1       1.049  -2.382  -4.381  0.00  0.00    -0.503 OA
ATOM     32  H   UNL     1       1.553  -2.431  -5.204  0.00  0.00    +0.292 HD
ENDBRANCH  29  31
BRANCH  28  33
ATOM     33  O   UNL     1       0.705  -5.046  -3.774  0.00  0.00    -0.503 OA
ATOM     34  H   UNL     1       1.160  -5.477  -4.511  0.00  0.00    +0.292 HD
ENDBRANCH  28  33
ENDBRANCH   8  25
TORSDOF 4
