REMARK  Name = ZINC58948323
REMARK  5 active torsions:
REMARK  status: ('A' for Active; 'I' for Inactive)
REMARK    1  A    between atoms: C_1  and  S_2
REMARK    2  A    between atoms: S_2  and  C_5
REMARK    3  A    between atoms: C_8  and  C_11
REMARK    4  A    between atoms: N_13  and  N_14
REMARK    5  A    between atoms: C_15  and  C_17
REMARK                            x       y       z     vdW  Elec       q    Type
REMARK                         _______ _______ _______ _____ _____    ______ ____
ROOT
ATOM      1  C   UNL     1       2.879  -1.481  -5.064  0.00  0.00    +0.260 C 
ATOM      2  O   UNL     1       2.253  -1.635  -6.095  0.00  0.00    -0.269 OA
ATOM      3  N   UNL     1       4.217  -1.641  -5.056  0.00  0.00    -0.230 N 
ATOM      4  H   UNL     1       4.716  -1.518  -4.234  0.00  0.00    +0.173 HD
ENDROOT
BRANCH   1   8
ATOM      5  C   UNL     1       0.845  -0.437  -1.483  0.00  0.00    +0.088 A 
ATOM      6  C   UNL     1       0.131  -0.612  -2.655  0.00  0.00    +0.027 A 
ATOM      7  C   UNL     1       0.785  -0.951  -3.821  0.00  0.00    +0.015 A 
ATOM      8  C   UNL     1       2.171  -1.117  -3.817  0.00  0.00    +0.038 A 
ATOM      9  C   UNL     1       2.886  -0.940  -2.632  0.00  0.00    +0.015 A 
ATOM     10  C   UNL     1       2.220  -0.596  -1.474  0.00  0.00    +0.027 A 
BRANCH   5  12
ATOM     11  C   UNL     1      -0.022   1.810   0.012  0.00  0.00    +0.200 C 
ATOM     12  S   UNL     1       0.002  -0.004   0.002  0.00  0.00    -0.006 S 
ATOM     13  O   UNL     1       0.835  -0.488   1.046  0.00  0.00    -0.170 OA
ATOM     14  O   UNL     1      -1.315  -0.510  -0.168  0.00  0.00    -0.170 OA
ENDBRANCH   5  12
ENDBRANCH   1   8
BRANCH   3  15
ATOM     15  N   UNL     1       4.887  -1.985  -6.237  0.00  0.00    -0.230 N 
ATOM     16  C   UNL     1       6.226  -2.146  -6.230  0.00  0.00    +0.260 C 
ATOM     17  O   UNL     1       6.851  -1.991  -5.199  0.00  0.00    -0.269 OA
ATOM     18  H   UNL     1       4.388  -2.109  -7.060  0.00  0.00    +0.173 HD
BRANCH  16  19
ATOM     19  C   UNL     1       6.933  -2.509  -7.476  0.00  0.00    +0.042 A 
ATOM     20  C   UNL     1       6.219  -2.682  -8.663  0.00  0.00    +0.051 A 
ATOM     21  C   UNL     1       6.886  -3.021  -9.825  0.00  0.00    +0.125 A 
ATOM     22  C   UNL     1       8.261  -3.190  -9.812  0.00  0.00    +0.053 A 
ATOM     23  C   UNL     1       8.974  -3.020  -8.638  0.00  0.00    +0.021 A 
ATOM     24  C   UNL     1       8.319  -2.675  -7.472  0.00  0.00    +0.028 A 
ATOM     25 BR   UNL     1      10.851  -3.254  -8.631  0.00  0.00    -0.050 Br
ATOM     26  F   UNL     1       6.197  -3.188 -10.974  0.00  0.00    -0.205 F 
ENDBRANCH  16  19
ENDBRANCH   3  15
TORSDOF 4
