REMARK  Name = ZINC39675790
REMARK  11 active torsions:
REMARK  status: ('A' for Active; 'I' for Inactive)
REMARK    1  A    between atoms: C_1  and  C_2
REMARK    2  A    between atoms: C_2  and  C_3
REMARK    3  A    between atoms: C_3  and  C_5
REMARK    4  A    between atoms: C_3  and  C_11
REMARK    5  A    between atoms: C_15  and  C_24
REMARK    6  A    between atoms: N_26  and  C_27
REMARK    7  A    between atoms: C_27  and  C_28
REMARK    8  A    between atoms: C_28  and  C_30
REMARK    9  A    between atoms: C_28  and  N_36
REMARK   10  A    between atoms: N_36  and  C_37
REMARK   11  A    between atoms: N_36  and  C_38
REMARK                            x       y       z     vdW  Elec       q    Type
REMARK                         _______ _______ _______ _____ _____    ______ ____
ROOT
ATOM      1  C   UNL     1       0.829  -2.160  -2.884  0.00  0.00    +0.223 C 
ATOM      2  O   UNL     1       1.793  -2.857  -3.119  0.00  0.00    -0.275 OA
ATOM      3  N   UNL     1      -0.395  -2.715  -2.776  0.00  0.00    -0.300 N 
ATOM      4  C   UNL     1      -1.681  -2.032  -2.501  0.00  0.00    +0.121 C 
ATOM      5  C   UNL     1      -2.705  -2.750  -3.408  0.00  0.00    +0.100 C 
ATOM      6  C   UNL     1      -2.095  -4.137  -3.668  0.00  0.00    -0.004 C 
ATOM      7  C   UNL     1      -0.758  -4.146  -2.912  0.00  0.00    +0.115 C 
ATOM      8  C   UNL     1      -1.850  -4.336  -5.161  0.00  0.00    -0.010 C 
ATOM      9  C   UNL     1      -1.296  -5.743  -5.400  0.00  0.00    -0.082 C 
ATOM     10  N   UNL     1      -2.255  -6.739  -4.904  0.00  0.00    +0.379 N 
ATOM     11  C   UNL     1      -2.414  -6.600  -3.451  0.00  0.00    -0.082 C 
ATOM     12  C   UNL     1      -3.014  -5.229  -3.130  0.00  0.00    -0.010 C 
ATOM     13  H   UNL     1      -3.147  -6.598  -5.353  0.00  0.00    -0.086 HD
ATOM     14  H   UNL     1      -1.916  -7.665  -5.117  0.00  0.00    -0.086 HD
ENDROOT
BRANCH   5  15
ATOM     15  C   UNL     1      -4.030  -2.881  -2.701  0.00  0.00    +0.218 C 
ATOM     16  O   UNL     1      -4.065  -2.990  -1.494  0.00  0.00    -0.275 OA
ATOM     17  N   UNL     1      -5.176  -2.877  -3.411  0.00  0.00    -0.316 N 
ATOM     18  H   UNL     1      -5.148  -2.789  -4.377  0.00  0.00    +0.149 HD
BRANCH  17  19
ATOM     19  C   UNL     1      -6.463  -3.004  -2.724  0.00  0.00    +0.093 C 
BRANCH  19  20
ATOM     20  C   UNL     1      -7.587  -3.095  -3.759  0.00  0.00    -0.021 C 
BRANCH  20  21
ATOM     21  C   UNL     1      -7.423  -4.355  -4.569  0.00  0.00    -0.059 A 
ATOM     22  C   UNL     1      -7.851  -5.566  -4.057  0.00  0.00    +0.002 A 
ATOM     23  C   UNL     1      -7.701  -6.722  -4.800  0.00  0.00    +0.000 A 
ATOM     24  C   UNL     1      -7.123  -6.667  -6.055  0.00  0.00    +0.000 A 
ATOM     25  C   UNL     1      -6.696  -5.456  -6.567  0.00  0.00    +0.000 A 
ATOM     26  C   UNL     1      -6.850  -4.299  -5.826  0.00  0.00    +0.002 A 
ENDBRANCH  20  21
BRANCH  20  27
ATOM     27  N   UNL     1      -8.885  -3.119  -3.072  0.00  0.00    +0.382 N 
ATOM     28  C   UNL     1      -9.062  -1.872  -2.316  0.00  0.00    -0.096 C 
ATOM     29  C   UNL     1      -9.961  -3.248  -4.063  0.00  0.00    -0.096 C 
ATOM     30  H   UNL     1      -8.915  -3.904  -2.438  0.00  0.00    -0.082 HD
ENDBRANCH  20  27
ENDBRANCH  19  20
ENDBRANCH  17  19
ENDBRANCH   5  15
BRANCH   1  31
ATOM     31  C   UNL     1       1.000  -0.672  -2.712  0.00  0.00    +0.105 C 
BRANCH  31  32
ATOM     32  C   UNL     1       2.453  -0.311  -2.879  0.00  0.00    -0.036 A 
ATOM     33  C   UNL     1       3.403  -0.860  -2.039  0.00  0.00    +0.004 A 
ATOM     34  C   UNL     1       4.736  -0.528  -2.192  0.00  0.00    +0.000 A 
ATOM     35  C   UNL     1       5.119   0.352  -3.187  0.00  0.00    +0.000 A 
ATOM     36  C   UNL     1       4.169   0.901  -4.028  0.00  0.00    +0.000 A 
ATOM     37  C   UNL     1       2.836   0.566  -3.877  0.00  0.00    +0.004 A 
ENDBRANCH  31  32
BRANCH  31  39
ATOM     38  C   UNL     1       0.586   1.260  -1.183  0.00  0.00    +0.005 C 
ATOM     39  C   UNL     1       0.530  -0.264  -1.314  0.00  0.00    +0.014 C 
ENDBRANCH  31  39
ENDBRANCH   1  31
TORSDOF 8
