REMARK  Name = ZINC08927104
REMARK  6 active torsions:
REMARK  status: ('A' for Active; 'I' for Inactive)
REMARK    1  A    between atoms: C_4  and  C_7
REMARK    2  A    between atoms: N_9  and  C_10
REMARK    3  A    between atoms: C_10  and  C_21
REMARK    4  A    between atoms: C_11  and  C_12
REMARK    5  A    between atoms: C_15  and  N_18
REMARK    6  A    between atoms: N_23  and  C_24
REMARK                            x       y       z     vdW  Elec       q    Type
REMARK                         _______ _______ _______ _____ _____    ______ ____
ROOT
ATOM      1  C   UNL     1      -3.984   1.674   0.033  0.00  0.00    +0.097 C 
ATOM      2  C   UNL     1      -2.716   1.229  -0.126  0.00  0.00    +0.036 C 
ENDROOT
BRANCH   2   3
ATOM      3  C   UNL     1      -1.601   2.187  -0.171  0.00  0.00    -0.023 A 
ATOM      4  C   UNL     1      -0.393   1.832  -0.781  0.00  0.00    +0.010 A 
ATOM      5  C   UNL     1       0.646   2.737  -0.824  0.00  0.00    +0.033 A 
ATOM      6  C   UNL     1       0.498   3.994  -0.262  0.00  0.00    +0.126 A 
ATOM      7  C   UNL     1      -0.692   4.351   0.347  0.00  0.00    +0.033 A 
ATOM      8  C   UNL     1      -1.741   3.457   0.399  0.00  0.00    +0.010 A 
BRANCH   6   9
ATOM      9  N   UNL     1       1.618   4.960  -0.314  0.00  0.00    +0.056 N 
ATOM     10  O   UNL     1       2.666   4.649  -0.850  0.00  0.00    -0.126 OA
ATOM     11  O   UNL     1       1.491   6.066   0.180  0.00  0.00    -0.126 OA
ENDBRANCH   6   9
ENDBRANCH   2   3
BRANCH   1  14
ATOM     12  C   UNL     1      -4.882   3.645   1.013  0.00  0.00    +0.248 C 
ATOM     13  O   UNL     1      -5.125   3.019   2.026  0.00  0.00    -0.270 OA
ATOM     14  N   UNL     1      -4.255   3.044  -0.018  0.00  0.00    -0.277 N 
ATOM     15  H   UNL     1      -3.992   3.562  -0.794  0.00  0.00    +0.155 HD
BRANCH  12  19
ATOM     16  C   UNL     1      -6.012   7.729   0.721  0.00  0.00    +0.000 A 
ATOM     17  C   UNL     1      -6.289   7.019   1.875  0.00  0.00    +0.001 A 
ATOM     18  C   UNL     1      -5.925   5.692   1.976  0.00  0.00    +0.013 A 
ATOM     19  C   UNL     1      -5.275   5.067   0.911  0.00  0.00    +0.037 A 
ATOM     20  C   UNL     1      -4.993   5.791  -0.249  0.00  0.00    +0.013 A 
ATOM     21  C   UNL     1      -5.368   7.115  -0.339  0.00  0.00    +0.001 A 
ENDBRANCH  12  19
ENDBRANCH   1  14
BRANCH   1  22
ATOM     22  C   UNL     1      -5.076   0.716   0.258  0.00  0.00    +0.262 C 
ATOM     23  O   UNL     1      -6.202   1.119   0.482  0.00  0.00    -0.268 OA
ATOM     24  N   UNL     1      -4.831  -0.608   0.215  0.00  0.00    -0.279 N 
ATOM     25  H   UNL     1      -3.921  -0.930   0.112  0.00  0.00    +0.155 HD
BRANCH  24  26
ATOM     26  C   UNL     1      -5.887  -1.519   0.320  0.00  0.00    +0.052 A 
ATOM     27  C   UNL     1      -7.141  -1.191  -0.179  0.00  0.00    +0.025 A 
ATOM     28  C   UNL     1      -8.181  -2.095  -0.078  0.00  0.00    +0.002 A 
ATOM     29  C   UNL     1      -7.977  -3.321   0.527  0.00  0.00    +0.002 A 
ATOM     30  C   UNL     1      -6.731  -3.650   1.029  0.00  0.00    +0.022 A 
ATOM     31  C   UNL     1      -5.685  -2.752   0.927  0.00  0.00    +0.062 A 
ATOM     32 CL   UNL     1      -4.122  -3.165   1.559  0.00  0.00    -0.082 Cl
ENDBRANCH  24  26
ENDBRANCH   1  22
TORSDOF 6
