REMARK  Name = ZINC45125255
REMARK  7 active torsions:
REMARK  status: ('A' for Active; 'I' for Inactive)
REMARK    1  A    between atoms: C_1  and  C_2
REMARK    2  A    between atoms: C_2  and  C_3
REMARK    3  A    between atoms: N_15  and  C_16
REMARK    4  A    between atoms: C_16  and  C_18
REMARK    5  A    between atoms: C_16  and  C_19
REMARK    6  A    between atoms: C_23  and  S_25
REMARK    7  A    between atoms: S_25  and  N_28
REMARK                            x       y       z     vdW  Elec       q    Type
REMARK                         _______ _______ _______ _____ _____    ______ ____
ROOT
ATOM      1  C   UNL     1      -1.731  -0.856  -2.481  0.00  0.00    +0.108 C 
ATOM      2  C   UNL     1      -0.205  -0.881  -2.559  0.00  0.00    -0.017 A 
ATOM      3  C   UNL     1       0.494  -1.221  -3.716  0.00  0.00    +0.013 A 
ATOM      4  C   UNL     1       1.847  -1.226  -3.711  0.00  0.00    +0.046 A 
ATOM      5  S   UNL     1       2.211  -0.739  -2.031  0.00  0.00    -0.101 S 
ATOM      6  C   UNL     1       0.539  -0.564  -1.466  0.00  0.00    -0.004 A 
ATOM      7  C   UNL     1       0.056  -0.158  -0.111  0.00  0.00    +0.062 C 
ATOM      8  C   UNL     1      -1.429  -0.533   0.014  0.00  0.00    +0.115 C 
ATOM      9  N   UNL     1      -2.107  -0.166  -1.240  0.00  0.00    -0.278 N 
ATOM     10  C   UNL     1      -3.057   0.790  -1.250  0.00  0.00    +0.303 C 
ATOM     11  O   UNL     1      -3.425   1.293  -0.206  0.00  0.00    -0.253 OA
ATOM     12  N   UNL     1      -3.598   1.190  -2.418  0.00  0.00    -0.293 N 
ATOM     13  H   UNL     1      -3.359   0.739  -3.243  0.00  0.00    +0.151 HD
ENDROOT
BRANCH   1  15
ATOM     14  C   UNL     1      -3.802  -2.254  -2.490  0.00  0.00    +0.006 C 
ATOM     15  C   UNL     1      -2.272  -2.287  -2.463  0.00  0.00    +0.024 C 
ENDBRANCH   1  15
BRANCH  12  16
ATOM     16  C   UNL     1      -4.547   2.305  -2.442  0.00  0.00    +0.102 C 
ATOM     17  C   UNL     1      -3.780   3.627  -2.514  0.00  0.00    +0.033 C 
BRANCH  16  18
ATOM     18  C   UNL     1      -5.442   2.177  -3.648  0.00  0.00    -0.026 A 
ATOM     19  C   UNL     1      -4.918   1.760  -4.857  0.00  0.00    +0.005 A 
ATOM     20  C   UNL     1      -5.738   1.643  -5.963  0.00  0.00    +0.002 A 
ATOM     21  C   UNL     1      -7.084   1.942  -5.859  0.00  0.00    +0.028 A 
ATOM     22  C   UNL     1      -7.609   2.358  -4.650  0.00  0.00    +0.105 A 
ATOM     23  C   UNL     1      -6.789   2.471  -3.543  0.00  0.00    +0.034 A 
BRANCH  22  24
ATOM     24  S   UNL     1      -9.324   2.739  -4.519  0.00  0.00    +0.056 S 
ATOM     25  O   UNL     1      -9.459   3.628  -3.418  0.00  0.00    -0.153 OA
ATOM     26  O   UNL     1      -9.767   3.074  -5.827  0.00  0.00    -0.153 OA
BRANCH  24  27
ATOM     27  N   UNL     1     -10.106   1.342  -4.098  0.00  0.00    -0.204 NA
ATOM     28  H   UNL     1     -10.918   1.381  -3.568  0.00  0.00    +0.144 HD
ATOM     29  H   UNL     1      -9.752   0.484  -4.380  0.00  0.00    +0.144 HD
ENDBRANCH  24  27
ENDBRANCH  22  24
ENDBRANCH  16  18
ENDBRANCH  12  16
TORSDOF 5
