REMARK  Name = ZINC02914933
REMARK  2 active torsions:
REMARK  status: ('A' for Active; 'I' for Inactive)
REMARK    1  A    between atoms: C_10  and  C_22
REMARK    2  A    between atoms: C_13  and  C_15
REMARK                            x       y       z     vdW  Elec       q    Type
REMARK                         _______ _______ _______ _____ _____    ______ ____
ROOT
ATOM      1  C   UNL     1      -1.439   5.840  -5.188  0.00  0.00    +0.002 A 
ATOM      2  C   UNL     1      -0.269   5.670  -4.468  0.00  0.00    +0.002 A 
ATOM      3  C   UNL     1      -0.272   5.494  -3.094  0.00  0.00    +0.028 A 
ATOM      4  C   UNL     1      -1.507   5.494  -2.458  0.00  0.00    +0.071 A 
ATOM      5  C   UNL     1      -2.708   5.668  -3.191  0.00  0.00    +0.091 A 
ATOM      6  C   UNL     1      -2.681   5.844  -4.579  0.00  0.00    +0.030 A 
ATOM      7  N   UNL     1      -3.727   5.624  -2.310  0.00  0.00    -0.214 NA
ATOM      8  C   UNL     1      -3.253   5.442  -1.108  0.00  0.00    +0.202 A 
ATOM      9  N   UNL     1      -1.879   5.350  -1.151  0.00  0.00    -0.300 N 
ATOM     10  C   UNL     1      -1.054   5.133   0.037  0.00  0.00    +0.152 C 
ATOM     11  C   UNL     1      -1.879   5.343   1.276  0.00  0.00    +0.027 C 
ATOM     12  C   UNL     1      -3.199   5.435   1.270  0.00  0.00    +0.039 C 
ATOM     13  N   UNL     1      -3.945   5.349   0.089  0.00  0.00    -0.285 N 
ATOM     14  H   UNL     1      -4.907   5.229   0.107  0.00  0.00    +0.155 HD
ENDROOT
BRANCH  12  15
ATOM     15  C   UNL     1      -3.910   5.635   2.554  0.00  0.00    -0.003 A 
ATOM     16  C   UNL     1      -3.192   5.719   3.747  0.00  0.00    +0.010 A 
ATOM     17  C   UNL     1      -3.859   5.909   4.939  0.00  0.00    +0.002 A 
ATOM     18  C   UNL     1      -5.239   6.007   4.955  0.00  0.00    +0.015 A 
ATOM     19  C   UNL     1      -5.958   5.920   3.776  0.00  0.00    +0.018 A 
ATOM     20  C   UNL     1      -5.301   5.734   2.576  0.00  0.00    +0.025 A 
ATOM     21 BR   UNL     1      -7.844   6.054   3.808  0.00  0.00    -0.050 Br
ENDBRANCH  12  15
BRANCH  10  22
ATOM     22  C   UNL     1      -0.518   3.725   0.025  0.00  0.00    +0.017 A 
ATOM     23  C   UNL     1       0.770   3.301   0.012  0.00  0.00    +0.013 A 
ATOM     24  C   UNL     1       1.029   1.944   0.003  0.00  0.00    +0.008 A 
ATOM     25  C   UNL     1      -0.013   1.076   0.008  0.00  0.00    +0.045 A 
ATOM     26  S   UNL     1      -1.415   2.181   0.019  0.00  0.00    -0.099 S 
ENDBRANCH  10  22
TORSDOF 2
