REMARK  Name = ZINC17725697
REMARK  10 active torsions:
REMARK  status: ('A' for Active; 'I' for Inactive)
REMARK    1  A    between atoms: C_1  and  C_2
REMARK    2  A    between atoms: C_4  and  N_25
REMARK    3  A    between atoms: C_6  and  S_8
REMARK    4  A    between atoms: S_8  and  C_9
REMARK    5  A    between atoms: C_9  and  C_10
REMARK    6  A    between atoms: C_12  and  C_15
REMARK    7  A    between atoms: C_18  and  O_23
REMARK    8  A    between atoms: C_20  and  O_21
REMARK    9  A    between atoms: O_21  and  C_22
REMARK   10  A    between atoms: O_23  and  C_24
REMARK                            x       y       z     vdW  Elec       q    Type
REMARK                         _______ _______ _______ _____ _____    ______ ____
ROOT
ATOM      1  C   UNL     1       0.092  -5.461   3.466  0.00  0.00    +0.238 A 
ATOM      2  N   UNL     1      -0.956  -5.909   4.096  0.00  0.00    -0.191 NA
ATOM      3  C   UNL     1      -0.577  -6.635   5.163  0.00  0.00    +0.206 A 
ATOM      4  N   UNL     1       0.734  -6.649   5.215  0.00  0.00    -0.056 NA
ATOM      5  O   UNL     1       1.188  -5.888   4.106  0.00  0.00    -0.337 OA
ENDROOT
BRANCH   3   6
ATOM      6  C   UNL     1      -1.487  -7.305   6.122  0.00  0.00    +0.064 A 
ATOM      7  C   UNL     1      -2.868  -7.217   5.952  0.00  0.00    +0.019 A 
ATOM      8  C   UNL     1      -3.713  -7.841   6.844  0.00  0.00    +0.046 A 
ATOM      9  C   UNL     1      -3.193  -8.559   7.914  0.00  0.00    +0.124 A 
ATOM     10  C   UNL     1      -1.820  -8.651   8.091  0.00  0.00    +0.092 A 
ATOM     11  C   UNL     1      -0.964  -8.033   7.196  0.00  0.00    +0.134 A 
BRANCH  11  12
ATOM     12  O   UNL     1       0.380  -8.127   7.364  0.00  0.00    -0.494 OA
ATOM     13  C   UNL     1       0.843  -8.886   8.482  0.00  0.00    +0.277 C 
ENDBRANCH  11  12
BRANCH   9  14
ATOM     14  O   UNL     1      -4.031  -9.172   8.790  0.00  0.00    -0.495 OA
ATOM     15  C   UNL     1      -5.433  -9.036   8.550  0.00  0.00    +0.277 C 
ENDBRANCH   9  14
ENDBRANCH   3   6
BRANCH   1  16
ATOM     16  C   UNL     1       0.075  -4.610   2.222  0.00  0.00    +0.176 C 
BRANCH  16  17
ATOM     17  S   UNL     1       0.053  -2.857   2.690  0.00  0.00    -0.076 S 
BRANCH  17  23
ATOM     18  C   UNL     1      -0.018   1.503   0.010  0.00  0.00    +0.066 C 
ATOM     19  C   UNL     1       0.002  -0.004   0.002  0.00  0.00    +0.044 A 
ATOM     20  C   UNL     1       0.006  -0.696  -1.194  0.00  0.00    +0.066 A 
ATOM     21  C   UNL     1       0.025  -2.091  -1.157  0.00  0.00    +0.121 A 
ATOM     22  N   UNL     1       0.039  -2.705   0.022  0.00  0.00    -0.207 NA
ATOM     23  C   UNL     1       0.035  -2.005   1.147  0.00  0.00    +0.191 A 
ATOM     24  N   UNL     1       0.022  -0.679   1.141  0.00  0.00    -0.227 NA
BRANCH  21  25
ATOM     25  N   UNL     1       0.029  -2.826  -2.331  0.00  0.00    -0.343 N 
ATOM     26  H   UNL     1       0.018  -2.371  -3.188  0.00  0.00    +0.144 HD
ATOM     27  H   UNL     1       0.042  -3.795  -2.297  0.00  0.00    +0.144 HD
ENDBRANCH  21  25
ENDBRANCH  17  23
ENDBRANCH  16  17
ENDBRANCH   1  16
TORSDOF 7
