REMARK  Name = ZINC17306224
REMARK  7 active torsions:
REMARK  status: ('A' for Active; 'I' for Inactive)
REMARK    1  A    between atoms: C_1  and  C_2
REMARK    2  A    between atoms: C_2  and  C_4
REMARK    3  A    between atoms: C_2  and  N_47
REMARK    4  A    between atoms: C_7  and  N_10
REMARK    5  A    between atoms: C_15  and  N_47
REMARK    6  A    between atoms: C_16  and  C_17
REMARK    7  A    between atoms: C_16  and  N_47
REMARK                            x       y       z     vdW  Elec       q    Type
REMARK                         _______ _______ _______ _____ _____    ______ ____
ROOT
ATOM      1  C   UNL     1      -6.035   2.627  -1.906  0.00  0.00    -0.095 C 
ATOM      2  N   UNL     1      -5.553   3.875  -1.278  0.00  0.00    +0.385 N 
ATOM      3  H   UNL     1      -4.734   4.215  -1.797  0.00  0.00    -0.081 HD
ENDROOT
BRANCH   2   5
ATOM      4  C   UNL     1      -7.092   5.063  -2.768  0.00  0.00    -0.008 C 
ATOM      5  C   UNL     1      -6.612   4.905  -1.324  0.00  0.00    -0.041 C 
BRANCH   5   6
ATOM      6  C   UNL     1      -6.040   6.213  -0.839  0.00  0.00    -0.061 A 
ATOM      7  C   UNL     1      -4.809   6.641  -1.301  0.00  0.00    +0.004 A 
ATOM      8  C   UNL     1      -4.286   7.842  -0.863  0.00  0.00    +0.028 A 
ATOM      9  C   UNL     1      -4.991   8.613   0.051  0.00  0.00    +0.067 A 
ATOM     10  C   UNL     1      -6.224   8.177   0.517  0.00  0.00    +0.028 A 
ATOM     11  C   UNL     1      -6.745   6.978   0.071  0.00  0.00    +0.004 A 
BRANCH   9  12
ATOM     12  N   UNL     1      -4.460   9.830   0.501  0.00  0.00    -0.220 N 
ATOM     13  C   UNL     1      -3.282  10.378   0.146  0.00  0.00    +0.225 A 
ATOM     14  N   UNL     1      -3.155  11.514   0.783  0.00  0.00    -0.222 NA
ATOM     15  C   UNL     1      -4.221  11.721   1.556  0.00  0.00    +0.245 A 
ATOM     16  N   UNL     1      -5.048  10.717   1.418  0.00  0.00    -0.154 NA
ENDBRANCH   9  12
ENDBRANCH   5   6
ENDBRANCH   2   5
BRANCH   2  17
ATOM     17  C   UNL     1      -5.160   3.617   0.123  0.00  0.00    -0.039 C 
BRANCH  17  18
ATOM     18  C   UNL     1      -3.963   2.701   0.131  0.00  0.00    -0.026 A 
ATOM     19  C   UNL     1      -4.124   1.369   0.388  0.00  0.00    +0.014 A 
ATOM     20  C   UNL     1      -2.980   0.549   0.386  0.00  0.00    +0.001 A 
ATOM     21  C   UNL     1      -3.068  -0.829   0.642  0.00  0.00    +0.010 A 
ATOM     22  C   UNL     1      -1.938  -1.589   0.631  0.00  0.00    +0.001 A 
ATOM     23  C   UNL     1      -0.695  -1.017   0.370  0.00  0.00    +0.002 A 
ATOM     24  C   UNL     1      -0.573   0.314   0.118  0.00  0.00    +0.028 A 
ATOM     25  C   UNL     1      -1.715   1.133   0.126  0.00  0.00    +0.073 A 
ATOM     26  N   UNL     1      -1.627   2.443  -0.125  0.00  0.00    -0.235 NA
ATOM     27  C   UNL     1      -2.691   3.211  -0.123  0.00  0.00    +0.131 A 
ATOM     28 CL   UNL     1      -2.510   4.907  -0.448  0.00  0.00    -0.062 Cl
ENDBRANCH  17  18
ENDBRANCH   2  17
TORSDOF 5
