REMARK  Name = ZINC37641503
REMARK  4 active torsions:
REMARK  status: ('A' for Active; 'I' for Inactive)
REMARK    1  A    between atoms: C_1  and  C_2
REMARK    2  A    between atoms: C_3  and  N_20
REMARK    3  A    between atoms: C_5  and  C_9
REMARK    4  A    between atoms: C_15  and  C_17
REMARK                            x       y       z     vdW  Elec       q    Type
REMARK                         _______ _______ _______ _____ _____    ______ ____
ROOT
ATOM      1  C   UNL     1       0.059  -4.258  -0.016  0.00  0.00    +0.247 C 
ATOM      2  O   UNL     1      -0.044  -4.864  -1.065  0.00  0.00    -0.270 OA
ATOM      3  N   UNL     1       0.176  -4.934   1.144  0.00  0.00    -0.286 N 
ATOM      4  C   UNL     1       0.181  -4.334   2.491  0.00  0.00    +0.109 C 
ATOM      5  C   UNL     1      -0.286  -5.471   3.433  0.00  0.00    +0.021 C 
ATOM      6  C   UNL     1       0.389  -6.709   2.785  0.00  0.00    +0.033 C 
ATOM      7  C   UNL     1       0.312  -6.391   1.276  0.00  0.00    +0.162 C 
ENDROOT
BRANCH   1  12
ATOM      8  C   UNL     1       0.049   1.503  -0.017  0.00  0.00    +0.048 C 
ATOM      9  C   UNL     1       0.052  -0.004  -0.015  0.00  0.00    +0.005 A 
ATOM     10  C   UNL     1       0.660  -0.694   1.026  0.00  0.00    +0.031 A 
ATOM     11  C   UNL     1       0.664  -2.081   1.030  0.00  0.00    +0.036 A 
ATOM     12  C   UNL     1       0.058  -2.779  -0.014  0.00  0.00    +0.041 A 
ATOM     13  C   UNL     1      -0.550  -2.078  -1.056  0.00  0.00    +0.051 A 
ATOM     14  C   UNL     1      -0.555  -0.696  -1.049  0.00  0.00    +0.129 A 
ATOM     15  F   UNL     1      -1.148  -0.019  -2.056  0.00  0.00    -0.205 F 
BRANCH  10  16
ATOM     16  N   UNL     1       1.266   0.009   2.070  0.00  0.00    -0.358 N 
ATOM     17  H   UNL     1       1.264   0.979   2.068  0.00  0.00    +0.142 HD
ATOM     18  H   UNL     1       1.690  -0.473   2.798  0.00  0.00    +0.142 HD
ENDBRANCH  10  16
ENDBRANCH   1  12
BRANCH   7  19
ATOM     19  C   UNL     1       1.574  -6.852   0.594  0.00  0.00    +0.231 C 
ATOM     20  O   UNL     1       2.297  -6.046   0.046  0.00  0.00    -0.274 OA
ATOM     21  N   UNL     1       1.900  -8.160   0.592  0.00  0.00    -0.328 N 
ATOM     22  H   UNL     1       1.323  -8.805   1.030  0.00  0.00    +0.145 HD
ATOM     23  H   UNL     1       2.713  -8.457   0.153  0.00  0.00    +0.145 HD
ENDBRANCH   7  19
TORSDOF 3
