REMARK  Name = ZINC34835149
REMARK  14 active torsions:
REMARK  status: ('A' for Active; 'I' for Inactive)
REMARK    1  A    between atoms: C_1  and  C_2
REMARK    2  A    between atoms: C_2  and  N_3
REMARK    3  A    between atoms: N_6  and  C_9
REMARK    4  A    between atoms: C_10  and  C_21
REMARK    5  A    between atoms: C_11  and  C_20
REMARK    6  A    between atoms: N_13  and  C_14
REMARK    7  A    between atoms: C_21  and  N_22
REMARK    8  A    between atoms: N_22  and  C_23
REMARK    9  A    between atoms: C_23  and  C_24
REMARK   10  A    between atoms: C_24  and  C_25
REMARK   11  A    between atoms: C_25  and  O_26
REMARK   12  A    between atoms: O_26  and  C_27
REMARK   13  A    between atoms: C_28  and  C_30
REMARK   14  A    between atoms: C_30  and  C_31
REMARK                            x       y       z     vdW  Elec       q    Type
REMARK                         _______ _______ _______ _____ _____    ______ ____
ROOT
ATOM      1  C   UNL     1       0.313  -2.941   4.693  0.00  0.00    +0.130 A 
ATOM      2  C   UNL     1       0.691  -4.249   4.660  0.00  0.00    +0.032 A 
ATOM      3  C   UNL     1       0.740  -4.715   5.977  0.00  0.00    +0.067 A 
ATOM      4  N   UNL     1       0.407  -3.734   6.777  0.00  0.00    -0.170 NA
ATOM      5  N   UNL     1       0.138  -2.600   5.999  0.00  0.00    -0.218 N 
ATOM      6  C   UNL     1       1.114  -6.111   6.404  0.00  0.00    +0.068 C 
ENDROOT
BRANCH   1  10
ATOM      7  N   UNL     1      -0.520   0.156   2.091  0.00  0.00    +0.382 N 
ATOM      8  C   UNL     1       0.633   0.207   2.998  0.00  0.00    -0.060 C 
ATOM      9  C   UNL     1       1.218  -1.200   3.159  0.00  0.00    +0.088 C 
ATOM     10  N   UNL     1       0.143  -2.105   3.594  0.00  0.00    -0.318 N 
ATOM     11  C   UNL     1      -1.117  -2.101   2.834  0.00  0.00    +0.088 C 
ATOM     12  C   UNL     1      -1.591  -0.651   2.689  0.00  0.00    -0.060 C 
ATOM     13  H   UNL     1      -0.238  -0.257   1.215  0.00  0.00    -0.082 HD
BRANCH   7  15
ATOM     14  C   UNL     1       0.058   2.326   1.115  0.00  0.00    -0.017 C 
ATOM     15  C   UNL     1      -1.013   1.519   1.851  0.00  0.00    -0.082 C 
ENDBRANCH   7  15
ENDBRANCH   1  10
BRANCH   5  16
ATOM     16  C   UNL     1      -0.247  -1.341   6.480  0.00  0.00    +0.067 A 
ATOM     17  C   UNL     1       0.370  -0.194   5.998  0.00  0.00    +0.028 A 
ATOM     18  C   UNL     1      -0.012   1.045   6.473  0.00  0.00    +0.002 A 
ATOM     19  C   UNL     1      -1.007   1.145   7.428  0.00  0.00    +0.000 A 
ATOM     20  C   UNL     1      -1.623   0.004   7.910  0.00  0.00    +0.002 A 
ATOM     21  C   UNL     1      -1.250  -1.238   7.434  0.00  0.00    +0.028 A 
ENDBRANCH   5  16
BRANCH   2  22
ATOM     22  C   UNL     1       1.000  -5.052   3.423  0.00  0.00    +0.148 C 
BRANCH  22  23
ATOM     23  N   UNL     1       2.447  -5.063   3.197  0.00  0.00    -0.297 N 
ATOM     24  C   UNL     1       3.001  -4.185   2.337  0.00  0.00    +0.221 C 
ATOM     25  O   UNL     1       2.314  -3.336   1.810  0.00  0.00    -0.275 OA
BRANCH  23  26
ATOM     26  C   UNL     1       3.292  -6.028   3.905  0.00  0.00    +0.110 C 
BRANCH  26  27
ATOM     27  C   UNL     1       3.411  -7.308   3.075  0.00  0.00    +0.047 C 
BRANCH  27  28
ATOM     28  C   UNL     1       4.293  -8.315   3.814  0.00  0.00    +0.161 C 
BRANCH  28  29
ATOM     29  O   UNL     1       4.404  -9.511   3.039  0.00  0.00    -0.383 OA
ATOM     30  C   UNL     1       5.212 -10.523   3.643  0.00  0.00    +0.193 C 
ENDBRANCH  28  29
ENDBRANCH  27  28
ENDBRANCH  26  27
ENDBRANCH  23  26
BRANCH  24  31
ATOM     31  C   UNL     1       4.475  -4.259   2.031  0.00  0.00    +0.138 C 
BRANCH  31  32
ATOM     32  C   UNL     1       4.839  -3.175   1.049  0.00  0.00    -0.001 A 
ATOM     33  C   UNL     1       5.249  -1.906   1.292  0.00  0.00    +0.011 A 
ATOM     34  C   UNL     1       5.531  -1.077   0.223  0.00  0.00    +0.008 A 
ATOM     35  C   UNL     1       5.390  -1.557  -1.037  0.00  0.00    +0.045 A 
ATOM     36  S   UNL     1       4.849  -3.232  -0.735  0.00  0.00    -0.101 S 
ENDBRANCH  31  32
ENDBRANCH  24  31
ENDBRANCH  22  23
ENDBRANCH   2  22
TORSDOF 11
