REMARK  Name = ZINC05081698
REMARK  9 active torsions:
REMARK  status: ('A' for Active; 'I' for Inactive)
REMARK    1  A    between atoms: C_1  and  C_2
REMARK    2  A    between atoms: C_2  and  C_3
REMARK    3  A    between atoms: C_3  and  C_5
REMARK    4  A    between atoms: C_3  and  S_6
REMARK    5  A    between atoms: S_6  and  C_7
REMARK    6  A    between atoms: C_12  and  N_16
REMARK    7  A    between atoms: C_13  and  N_15
REMARK    8  A    between atoms: C_17  and  C_19
REMARK    9  A    between atoms: C_22  and  C_25
REMARK                            x       y       z     vdW  Elec       q    Type
REMARK                         _______ _______ _______ _____ _____    ______ ____
ROOT
ATOM      1  C   UNL     1       2.803  -6.911   0.112  0.00  0.00    +0.171 A 
ATOM      2  N   UNL     1       1.556  -6.367   0.050  0.00  0.00    -0.300 N 
ATOM      3  H   UNL     1       0.752  -6.963   0.041  0.00  0.00    +0.171 HD
ATOM      4  C   UNL     1       1.402  -5.028   0.001  0.00  0.00    +0.275 A 
ATOM      5  O   UNL     1       0.287  -4.532  -0.056  0.00  0.00    -0.266 OA
ATOM      6  C   UNL     1       2.545  -4.215   0.015  0.00  0.00    +0.139 A 
ATOM      7  C   UNL     1       3.795  -4.822   0.074  0.00  0.00    +0.146 A 
ATOM      8  N   UNL     1       3.882  -6.156   0.126  0.00  0.00    -0.207 NA
ENDROOT
BRANCH   6   9
ATOM      9  N   UNL     1       2.429  -2.812  -0.036  0.00  0.00    -0.274 N 
ATOM     10  C   UNL     1       1.751  -2.157   0.927  0.00  0.00    +0.248 C 
ATOM     11  O   UNL     1       1.167  -2.781   1.792  0.00  0.00    -0.270 OA
ATOM     12  H   UNL     1       2.838  -2.318  -0.763  0.00  0.00    +0.155 HD
BRANCH  10  13
ATOM     13  C   UNL     1       1.717  -0.679   0.932  0.00  0.00    +0.037 A 
ATOM     14  C   UNL     1       1.016   0.003   1.927  0.00  0.00    +0.013 A 
ATOM     15  C   UNL     1       0.989   1.382   1.927  0.00  0.00    +0.004 A 
ATOM     16  C   UNL     1       1.655   2.090   0.942  0.00  0.00    -0.050 A 
ATOM     17  C   UNL     1       2.352   1.420  -0.048  0.00  0.00    +0.004 A 
ATOM     18  C   UNL     1       2.387   0.041  -0.059  0.00  0.00    +0.013 A 
ATOM     19  C   UNL     1       1.620   3.596   0.947  0.00  0.00    +0.044 C 
ENDBRANCH  10  13
ENDBRANCH   6   9
BRANCH   7  20
ATOM     20  N   UNL     1       4.942  -4.050   0.084  0.00  0.00    -0.341 N 
ATOM     21  H   UNL     1       4.877  -3.083   0.050  0.00  0.00    +0.144 HD
ATOM     22  H   UNL     1       5.813  -4.476   0.125  0.00  0.00    +0.144 HD
ENDBRANCH   7  20
BRANCH   1  23
ATOM     23  S   UNL     1       2.977  -8.663   0.176  0.00  0.00    -0.085 S 
BRANCH  23  24
ATOM     24  C   UNL     1       4.781  -8.798   0.244  0.00  0.00    +0.051 C 
ATOM     25  C   UNL     1       5.381  -8.271  -1.061  0.00  0.00    +0.019 C 
BRANCH  24  27
ATOM     26  C   UNL     1       4.682 -10.754   1.795  0.00  0.00    +0.005 C 
ATOM     27  C   UNL     1       5.176 -10.264   0.433  0.00  0.00    +0.011 C 
ENDBRANCH  24  27
ENDBRANCH  23  24
ENDBRANCH   1  23
TORSDOF 6
