REMARK  Name = ZINC37621734
REMARK  9 active torsions:
REMARK  status: ('A' for Active; 'I' for Inactive)
REMARK    1  A    between atoms: C_1  and  C_2
REMARK    2  A    between atoms: C_2  and  C_3
REMARK    3  A    between atoms: C_3  and  C_4
REMARK    4  A    between atoms: C_4  and  C_5
REMARK    5  A    between atoms: C_4  and  C_6
REMARK    6  A    between atoms: C_4  and  N_20
REMARK    7  A    between atoms: N_8  and  C_9
REMARK    8  A    between atoms: C_9  and  C_11
REMARK    9  A    between atoms: C_9  and  C_12
REMARK                            x       y       z     vdW  Elec       q    Type
REMARK                         _______ _______ _______ _____ _____    ______ ____
ROOT
ATOM      1  C   UNL     1       1.382  -2.542   2.512  0.00  0.00    +0.202 C 
ATOM      2  O   UNL     1       2.157  -1.839   3.127  0.00  0.00    -0.277 OA
ATOM      3  N   UNL     1       1.076  -3.771   2.973  0.00  0.00    -0.307 N 
ATOM      4  H   UNL     1       0.456  -4.332   2.482  0.00  0.00    +0.149 HD
ENDROOT
BRANCH   1   5
ATOM      5  C   UNL     1       0.763  -2.041   1.233  0.00  0.00    +0.004 C 
ATOM      6  C   UNL     1       1.586  -2.533   0.041  0.00  0.00    -0.001 C 
BRANCH   5   7
ATOM      7  N   UNL     1      -0.611  -2.549   1.123  0.00  0.00    +0.387 N 
ATOM      8  H   UNL     1      -1.026  -2.213   0.266  0.00  0.00    -0.089 HD
ATOM      9  H   UNL     1      -0.598  -3.557   1.117  0.00  0.00    -0.089 HD
ATOM     10  H   UNL     1      -1.154  -2.224   1.909  0.00  0.00    -0.089 HD
ENDBRANCH   5   7
BRANCH   5  11
ATOM     11  C   UNL     1       0.742  -0.511   1.242  0.00  0.00    -0.004 C 
BRANCH  11  13
ATOM     12  C   UNL     1      -0.019   1.526   0.010  0.00  0.00    +0.004 C 
ATOM     13  C   UNL     1       0.002  -0.004   0.002  0.00  0.00    -0.004 C 
ENDBRANCH  11  13
ENDBRANCH   5  11
ENDBRANCH   1   5
BRANCH   3  14
ATOM     14  C   UNL     1       1.678  -4.258   4.217  0.00  0.00    +0.138 C 
ATOM     15  C   UNL     1       0.855  -3.765   5.409  0.00  0.00    +0.036 C 
BRANCH  14  16
ATOM     16  C   UNL     1       1.698  -5.764   4.209  0.00  0.00    +0.154 A 
ATOM     17  N   UNL     1       0.720  -6.550   3.849  0.00  0.00    -0.132 NA
ATOM     18  N   UNL     1       1.084  -7.777   3.968  0.00  0.00    -0.134 NA
ATOM     19  C   UNL     1       2.312  -7.830   4.411  0.00  0.00    +0.134 A 
ATOM     20  N   UNL     1       2.739  -6.557   4.568  0.00  0.00    -0.313 N 
ATOM     21  C   UNL     1       4.124  -6.518   5.053  0.00  0.00    +0.125 C 
ATOM     22  C   UNL     1       4.410  -7.932   5.603  0.00  0.00    +0.029 C 
ATOM     23  C   UNL     1       3.411  -8.794   4.802  0.00  0.00    +0.078 C 
ENDBRANCH  14  16
ENDBRANCH   3  14
TORSDOF 6
