REMARK  Name = ZINC01630833
REMARK  9 active torsions:
REMARK  status: ('A' for Active; 'I' for Inactive)
REMARK    1  A    between atoms: C_1  and  O_2
REMARK    2  A    between atoms: O_2  and  C_3
REMARK    3  A    between atoms: C_5  and  C_10
REMARK    4  A    between atoms: C_8  and  O_9
REMARK    5  A    between atoms: C_12  and  C_35
REMARK    6  A    between atoms: C_18  and  O_33
REMARK    7  A    between atoms: C_22  and  C_26
REMARK    8  A    between atoms: C_29  and  O_32
REMARK    9  A    between atoms: C_35  and  O_36
REMARK                            x       y       z     vdW  Elec       q    Type
REMARK                         _______ _______ _______ _____ _____    ______ ____
ROOT
ATOM      1  C   UNL     1       0.206   6.050  -0.474  0.00  0.00    +0.246 C 
ATOM      2  C   UNL     1      -0.915   6.566  -1.386  0.00  0.00    +0.244 C 
ATOM      3  O   UNL     1      -0.337   7.457  -2.346  0.00  0.00    -0.475 OA
ATOM      4  C   UNL     1       0.541   8.385  -1.871  0.00  0.00    +0.206 A 
ATOM      5  C   UNL     1       1.118   8.243  -0.616  0.00  0.00    +0.170 A 
ATOM      6  C   UNL     1       2.017   9.194  -0.141  0.00  0.00    +0.095 A 
ATOM      7  C   UNL     1       2.344  10.291  -0.914  0.00  0.00    +0.135 A 
ATOM      8  C   UNL     1       1.765  10.443  -2.179  0.00  0.00    +0.109 A 
ATOM      9  C   UNL     1       0.858   9.485  -2.663  0.00  0.00    +0.188 A 
ATOM     10  O   UNL     1       0.298   9.627  -3.882  0.00  0.00    -0.451 OA
ATOM     11  C   UNL     1       0.591  10.677  -4.656  0.00  0.00    +0.139 A 
ATOM     12  C   UNL     1       1.452  11.663  -4.295  0.00  0.00    +0.098 A 
ATOM     13  C   UNL     1       2.089  11.600  -3.032  0.00  0.00    +0.197 A 
ATOM     14  O   UNL     1       2.870  12.464  -2.666  0.00  0.00    -0.287 OA
ATOM     15  O   UNL     1       0.812   7.175   0.171  0.00  0.00    -0.477 OA
ENDROOT
BRANCH   1  18
ATOM     16  C   UNL     1      -0.787   2.893   1.346  0.00  0.00    +0.162 A 
ATOM     17  C   UNL     1      -0.254   3.751   0.398  0.00  0.00    +0.056 A 
ATOM     18  C   UNL     1      -0.368   5.119   0.562  0.00  0.00    -0.000 A 
ATOM     19  C   UNL     1      -1.003   5.634   1.677  0.00  0.00    +0.011 A 
ATOM     20  C   UNL     1      -1.532   4.784   2.629  0.00  0.00    +0.049 A 
ATOM     21  C   UNL     1      -1.427   3.411   2.468  0.00  0.00    +0.158 A 
BRANCH  16  23
ATOM     22  C   UNL     1      -0.013   1.086   0.008  0.00  0.00    +0.277 C 
ATOM     23  O   UNL     1      -0.682   1.547   1.184  0.00  0.00    -0.491 OA
ENDBRANCH  16  23
BRANCH  21  24
ATOM     24  O   UNL     1      -1.947   2.574   3.404  0.00  0.00    -0.503 OA
ATOM     25  H   UNL     1      -1.328   2.339   4.110  0.00  0.00    +0.292 HD
ENDBRANCH  21  24
ENDBRANCH   1  18
BRANCH  11  26
ATOM     26  C   UNL     1      -0.058  10.769  -5.978  0.00  0.00    +0.018 A 
ATOM     27  C   UNL     1       0.214  11.852  -6.819  0.00  0.00    +0.015 A 
ATOM     28  C   UNL     1      -0.390  11.931  -8.054  0.00  0.00    +0.046 A 
ATOM     29  C   UNL     1      -1.278  10.942  -8.460  0.00  0.00    +0.117 A 
ATOM     30  C   UNL     1      -1.555   9.866  -7.625  0.00  0.00    +0.046 A 
ATOM     31  C   UNL     1      -0.951   9.776  -6.391  0.00  0.00    +0.015 A 
BRANCH  29  32
ATOM     32  O   UNL     1      -1.875  11.027  -9.676  0.00  0.00    -0.507 OA
ATOM     33  H   UNL     1      -2.716  11.503  -9.669  0.00  0.00    +0.292 HD
ENDBRANCH  29  32
ENDBRANCH  11  26
BRANCH   7  34
ATOM     34  O   UNL     1       3.221  11.218  -0.449  0.00  0.00    -0.506 OA
ATOM     35  H   UNL     1       4.144  11.034  -0.674  0.00  0.00    +0.292 HD
ENDBRANCH   7  34
BRANCH   2  36
ATOM     36  C   UNL     1      -1.578   5.390  -2.105  0.00  0.00    +0.204 C 
BRANCH  36  37
ATOM     37  O   UNL     1      -2.695   5.862  -2.862  0.00  0.00    -0.391 OA
ATOM     38  H   UNL     1      -3.164   5.168  -3.345  0.00  0.00    +0.210 HD
ENDBRANCH  36  37
ENDBRANCH   2  36
TORSDOF 8
