REMARK  Name = ZINC58893959
REMARK  13 active torsions:
REMARK  status: ('A' for Active; 'I' for Inactive)
REMARK    1  A    between atoms: C_1  and  C_2
REMARK    2  A    between atoms: C_2  and  O_3
REMARK    3  A    between atoms: O_3  and  C_4
REMARK    4  A    between atoms: C_7  and  C_10
REMARK    5  A    between atoms: C_10  and  C_12
REMARK    6  A    between atoms: C_10  and  O_30
REMARK    7  A    between atoms: C_12  and  C_13
REMARK    8  A    between atoms: C_13  and  C_14
REMARK    9  A    between atoms: N_16  and  N_17
REMARK   10  A    between atoms: C_18  and  C_19
REMARK   11  A    between atoms: C_22  and  O_26
REMARK   12  A    between atoms: O_26  and  C_27
REMARK   13  A    between atoms: C_27  and  C_28
REMARK                            x       y       z     vdW  Elec       q    Type
REMARK                         _______ _______ _______ _____ _____    ______ ____
ROOT
ATOM      1  C   UNL     1      -1.817  -8.624  -3.007  0.00  0.00    +0.232 C 
ATOM      2  O   UNL     1      -2.363  -7.808  -3.720  0.00  0.00    -0.274 OA
ATOM      3  N   UNL     1      -1.855  -9.932  -3.327  0.00  0.00    -0.207 N 
ATOM      4  H   UNL     1      -1.418 -10.584  -2.757  0.00  0.00    +0.177 HD
ENDROOT
BRANCH   3   5
ATOM      5  N   UNL     1      -2.527 -10.351  -4.483  0.00  0.00    -0.188 NA
ATOM      6  C   UNL     1      -2.666 -11.617  -4.730  0.00  0.00    +0.138 C 
BRANCH   6   7
ATOM      7  C   UNL     1      -2.567 -12.598  -3.633  0.00  0.00    -0.004 A 
ATOM      8  C   UNL     1      -2.607 -12.168  -2.304  0.00  0.00    +0.013 A 
ATOM      9  C   UNL     1      -2.514 -13.088  -1.282  0.00  0.00    +0.047 A 
ATOM     10  C   UNL     1      -2.380 -14.440  -1.571  0.00  0.00    +0.135 A 
ATOM     11  C   UNL     1      -2.338 -14.871  -2.891  0.00  0.00    +0.056 A 
ATOM     12  C   UNL     1      -2.437 -13.959  -3.920  0.00  0.00    +0.027 A 
ATOM     13  I   UNL     1      -2.134 -16.912  -3.319  0.00  0.00    -0.040 I 
BRANCH  10  14
ATOM     14  O   UNL     1      -2.288 -15.343  -0.560  0.00  0.00    -0.476 OA
BRANCH  14  15
ATOM     15  C   UNL     1      -2.337 -14.831   0.773  0.00  0.00    +0.346 C 
BRANCH  15  16
ATOM     16  C   UNL     1      -2.225 -15.944   1.730  0.00  0.00    +0.104 C 
ATOM     17  N   UNL     1      -2.138 -16.803   2.468  0.00  0.00    -0.193 NA
ENDBRANCH  15  16
ENDBRANCH  14  15
ENDBRANCH  10  14
ENDBRANCH   6   7
ENDBRANCH   3   5
BRANCH   1  18
ATOM     18  C   UNL     1      -1.094  -8.173  -1.763  0.00  0.00    +0.100 C 
BRANCH  18  19
ATOM     19  C   UNL     1      -1.201  -6.652  -1.634  0.00  0.00    +0.045 C 
BRANCH  19  20
ATOM     20  C   UNL     1      -0.467  -6.195  -0.371  0.00  0.00    +0.145 C 
BRANCH  20  24
ATOM     21  C   UNL     1      -0.466  -1.926  -0.192  0.00  0.00    +0.121 A 
ATOM     22  C   UNL     1       0.617  -2.599  -0.739  0.00  0.00    +0.046 A 
ATOM     23  C   UNL     1       0.614  -3.979  -0.796  0.00  0.00    +0.010 A 
ATOM     24  C   UNL     1      -0.467  -4.690  -0.308  0.00  0.00    -0.019 A 
ATOM     25  C   UNL     1      -1.548  -4.021   0.237  0.00  0.00    +0.010 A 
ATOM     26  C   UNL     1      -1.547  -2.642   0.301  0.00  0.00    +0.046 A 
BRANCH  21  27
ATOM     27  O   UNL     1      -0.466  -0.568  -0.135  0.00  0.00    -0.492 OA
BRANCH  27  29
ATOM     28  C   UNL     1       0.501   1.615  -0.512  0.00  0.00    +0.048 C 
ATOM     29  C   UNL     1       0.681   0.103  -0.662  0.00  0.00    +0.225 C 
ENDBRANCH  27  29
ENDBRANCH  21  27
ENDBRANCH  20  24
BRANCH  20  30
ATOM     30  O   UNL     1      -1.130  -6.720   0.781  0.00  0.00    -0.387 OA
ATOM     31  H   UNL     1      -2.050  -6.438   0.868  0.00  0.00    +0.210 HD
ENDBRANCH  20  30
ENDBRANCH  19  20
ENDBRANCH  18  19
ENDBRANCH   1  18
TORSDOF 12
