REMARK  Name = ZINC41511472
REMARK  12 active torsions:
REMARK  status: ('A' for Active; 'I' for Inactive)
REMARK    1  A    between atoms: C_1  and  C_2
REMARK    2  A    between atoms: C_4  and  O_34
REMARK    3  A    between atoms: C_5  and  C_25
REMARK    4  A    between atoms: C_11  and  C_12
REMARK    5  A    between atoms: C_15  and  O_22
REMARK    6  A    between atoms: C_16  and  O_20
REMARK    7  A    between atoms: C_17  and  O_18
REMARK    8  A    between atoms: O_18  and  C_19
REMARK    9  A    between atoms: O_20  and  C_21
REMARK   10  A    between atoms: O_22  and  C_23
REMARK   11  A    between atoms: C_25  and  N_26
REMARK   12  A    between atoms: C_31  and  C_33
REMARK                            x       y       z     vdW  Elec       q    Type
REMARK                         _______ _______ _______ _____ _____    ______ ____
ROOT
ATOM      1  C   UNL     1      -0.706   1.601   0.142  0.00  0.00    +0.045 C 
ATOM      2  C   UNL     1      -0.779   0.096   0.115  0.00  0.00    -0.033 A 
ATOM      3  C   UNL     1      -1.038  -0.556  -1.058  0.00  0.00    +0.050 A 
ATOM      4  C   UNL     1      -1.105  -1.946  -1.085  0.00  0.00    +0.122 A 
ATOM      5  C   UNL     1      -0.911  -2.684   0.072  0.00  0.00    +0.020 A 
ATOM      6  C   UNL     1      -0.647  -2.037   1.272  0.00  0.00    +0.145 A 
ATOM      7  C   UNL     1      -0.576  -0.634   1.286  0.00  0.00    +0.071 A 
ATOM      8  C   UNL     1      -0.280  -0.247   2.678  0.00  0.00    +0.232 C 
ATOM      9  O   UNL     1      -0.141   0.878   3.125  0.00  0.00    -0.283 OA
ATOM     10  C   UNL     1      -0.190  -1.520   3.404  0.00  0.00    +0.176 C 
ATOM     11  C   UNL     1       0.068  -1.672   4.729  0.00  0.00    +0.062 C 
ATOM     12  O   UNL     1      -0.425  -2.516   2.516  0.00  0.00    -0.451 OA
ENDROOT
BRANCH  11  13
ATOM     13  C   UNL     1      -0.018  -2.998   5.346  0.00  0.00    +0.024 A 
ATOM     14  C   UNL     1      -0.009  -4.149   4.545  0.00  0.00    +0.015 A 
ATOM     15  C   UNL     1      -0.090  -5.393   5.127  0.00  0.00    +0.050 A 
ATOM     16  C   UNL     1      -0.181  -5.516   6.510  0.00  0.00    +0.165 A 
ATOM     17  C   UNL     1      -0.191  -4.383   7.316  0.00  0.00    +0.204 A 
ATOM     18  C   UNL     1      -0.104  -3.123   6.743  0.00  0.00    +0.172 A 
BRANCH  18  19
ATOM     19  O   UNL     1      -0.108  -2.015   7.528  0.00  0.00    -0.491 OA
ATOM     20  C   UNL     1      -1.380  -1.438   7.829  0.00  0.00    +0.277 C 
ENDBRANCH  18  19
BRANCH  17  21
ATOM     21  O   UNL     1      -0.281  -4.511   8.668  0.00  0.00    -0.488 OA
ATOM     22  C   UNL     1       0.947  -4.618   9.393  0.00  0.00    +0.277 C 
ENDBRANCH  17  21
BRANCH  16  23
ATOM     23  O   UNL     1      -0.261  -6.749   7.074  0.00  0.00    -0.491 OA
ATOM     24  C   UNL     1      -0.246  -7.870   6.189  0.00  0.00    +0.277 C 
ENDBRANCH  16  23
ENDBRANCH  11  13
BRANCH   4  25
ATOM     25  O   UNL     1      -1.363  -2.585  -2.255  0.00  0.00    -0.506 OA
ATOM     26  H   UNL     1      -0.571  -2.808  -2.764  0.00  0.00    +0.292 HD
ENDBRANCH   4  25
BRANCH   5  27
ATOM     27  C   UNL     1      -0.988  -4.189   0.028  0.00  0.00    -0.035 C 
BRANCH  27  28
ATOM     28  N   UNL     1       0.345  -4.739  -0.253  0.00  0.00    +0.384 N 
ATOM     29  C   UNL     1       1.248  -4.420   0.859  0.00  0.00    -0.078 C 
ATOM     30  C   UNL     1       2.658  -4.920   0.535  0.00  0.00    -0.019 C 
ATOM     31  C   UNL     1       2.620  -6.436   0.325  0.00  0.00    -0.003 C 
ATOM     32  C   UNL     1       1.619  -6.763  -0.787  0.00  0.00    -0.016 C 
ATOM     33  C   UNL     1       0.248  -6.194  -0.414  0.00  0.00    -0.071 C 
ATOM     34  C   UNL     1      -0.756  -6.518  -1.523  0.00  0.00    -0.013 C 
ATOM     35  H   UNL     1       0.704  -4.330  -1.103  0.00  0.00    -0.081 HD
ENDBRANCH  27  28
ENDBRANCH   5  27
TORSDOF 7
