REMARK  Name = ZINC03424361
REMARK  10 active torsions:
REMARK  status: ('A' for Active; 'I' for Inactive)
REMARK    1  A    between atoms: C_2  and  C_3
REMARK    2  A    between atoms: C_2  and  N_39
REMARK    3  A    between atoms: C_3  and  C_5
REMARK    4  A    between atoms: C_3  and  C_7
REMARK    5  A    between atoms: C_7  and  C_9
REMARK    6  A    between atoms: C_9  and  S_10
REMARK    7  A    between atoms: S_10  and  C_11
REMARK    8  A    between atoms: N_16  and  C_17
REMARK    9  A    between atoms: C_20  and  S_23
REMARK   10  A    between atoms: S_23  and  C_24
REMARK                            x       y       z     vdW  Elec       q    Type
REMARK                         _______ _______ _______ _____ _____    ______ ____
ROOT
ATOM      1  C   UNL     1      -3.225  -2.453   0.345  0.00  0.00    +0.160 A 
ATOM      2  N   UNL     1      -3.471  -1.159   0.266  0.00  0.00    -0.133 NA
ATOM      3  N   UNL     1      -2.427  -0.270   0.153  0.00  0.00    -0.125 NA
ATOM      4  C   UNL     1      -1.187  -0.716   0.115  0.00  0.00    +0.187 A 
ATOM      5  S   UNL     1      -1.442  -2.478   0.253  0.00  0.00    -0.024 S 
ATOM      6  N   UNL     1       0.002  -0.004   0.002  0.00  0.00    -0.292 N 
ATOM      7  H   UNL     1       0.852  -0.465   0.074  0.00  0.00    +0.154 HD
ENDROOT
BRANCH   6   8
ATOM      8  C   UNL     1      -0.028   1.379  -0.215  0.00  0.00    +0.033 A 
ATOM      9  C   UNL     1      -1.125   1.960  -0.837  0.00  0.00    +0.024 A 
ATOM     10  C   UNL     1      -1.157   3.324  -1.048  0.00  0.00    +0.017 A 
ATOM     11  C   UNL     1      -0.087   4.114  -0.646  0.00  0.00    +0.013 A 
ATOM     12  C   UNL     1       1.013   3.532  -0.029  0.00  0.00    +0.017 A 
ATOM     13  C   UNL     1       1.042   2.168   0.186  0.00  0.00    +0.024 A 
BRANCH  11  14
ATOM     14  S   UNL     1      -0.125   5.854  -0.920  0.00  0.00    -0.056 S 
BRANCH  14  15
ATOM     15  C   UNL     1      -1.721   6.136  -1.733  0.00  0.00    +0.404 C 
ATOM     16  F   UNL     1      -1.769   5.413  -2.930  0.00  0.00    -0.197 F 
ATOM     17  F   UNL     1      -2.755   5.713  -0.891  0.00  0.00    -0.197 F 
ENDBRANCH  14  15
ENDBRANCH  11  14
ENDBRANCH   6   8
BRANCH   1  18
ATOM     18  S   UNL     1      -4.355  -3.797   0.498  0.00  0.00    -0.089 S 
BRANCH  18  19
ATOM     19  C   UNL     1      -5.984  -2.999   0.528  0.00  0.00    +0.152 C 
BRANCH  19  20
ATOM     20  C   UNL     1      -7.056  -4.051   0.658  0.00  0.00    +0.166 C 
ATOM     21  O   UNL     1      -6.752  -5.218   0.724  0.00  0.00    -0.295 OA
BRANCH  20  22
ATOM     22  C   UNL     1      -8.506  -3.646   0.706  0.00  0.00    +0.200 C 
BRANCH  22  24
ATOM     23  C   UNL     1      -9.922  -4.249   2.613  0.00  0.00    +0.028 C 
ATOM     24  C   UNL     1      -9.279  -4.644   1.529  0.00  0.00    +0.003 C 
BRANCH  24  27
ATOM     25  H   UNL     1      -8.844  -6.270   0.353  0.00  0.00    +0.120 HD
ATOM     26  H   UNL     1      -9.813  -6.621   1.679  0.00  0.00    +0.120 HD
ATOM     27  N   UNL     1      -9.088  -6.034   1.301  0.00  0.00    -0.419 NA
ATOM     28  H   UNL     1      -8.255  -6.300   1.839  0.00  0.00    +0.120 HD
ENDBRANCH  24  27
ENDBRANCH  22  24
BRANCH  22  29
ATOM     29  C   UNL     1      -9.051  -3.612  -0.661  0.00  0.00    +0.079 C 
ATOM     30  N   UNL     1      -9.472  -3.585  -1.716  0.00  0.00    -0.195 NA
ENDBRANCH  22  29
ENDBRANCH  20  22
ENDBRANCH  19  20
ENDBRANCH  18  19
ENDBRANCH   1  18
TORSDOF 10
