REMARK  Name = ZINC12652067
REMARK  4 active torsions:
REMARK  status: ('A' for Active; 'I' for Inactive)
REMARK    1  A    between atoms: C_1  and  C_2
REMARK    2  A    between atoms: C_2  and  C_32
REMARK    3  A    between atoms: C_6  and  C_25
REMARK    4  A    between atoms: C_18  and  C_20
REMARK                            x       y       z     vdW  Elec       q    Type
REMARK                         _______ _______ _______ _____ _____    ______ ____
ROOT
ATOM      1  C   UNL     1       4.240   5.259   2.781  0.00  0.00    +0.011 C 
ATOM      2  C   UNL     1       4.962   5.316   1.433  0.00  0.00    -0.023 C 
ATOM      3  C   UNL     1       5.974   4.169   1.339  0.00  0.00    +0.086 C 
ATOM      4  C   UNL     1       5.234   2.866   1.418  0.00  0.00    +0.163 C 
ATOM      5  C   UNL     1       3.961   2.725   0.994  0.00  0.00    +0.037 C 
ATOM      6  C   UNL     1       3.339   1.378   1.146  0.00  0.00    +0.147 C 
ATOM      7  N   UNL     1       2.380   1.050   0.121  0.00  0.00    -0.254 N 
ATOM      8  C   UNL     1       1.098   1.570   0.136  0.00  0.00    +0.059 A 
ATOM      9  C   UNL     1      -0.023   0.771   0.213  0.00  0.00    +0.025 A 
ATOM     10  C   UNL     1      -1.281   1.342   0.292  0.00  0.00    +0.002 A 
ATOM     11  C   UNL     1      -1.414   2.720   0.304  0.00  0.00    +0.002 A 
ATOM     12  C   UNL     1      -0.306   3.533   0.214  0.00  0.00    +0.025 A 
ATOM     13  C   UNL     1       0.978   2.981   0.115  0.00  0.00    +0.053 A 
ATOM     14  N   UNL     1       2.044   3.778  -0.017  0.00  0.00    -0.316 N 
ATOM     15  C   UNL     1       3.248   3.807   0.430  0.00  0.00    +0.017 C 
ATOM     16  C   UNL     1       3.951   5.152   0.299  0.00  0.00    +0.058 C 
ATOM     17  C   UNL     1       2.741   0.218  -0.875  0.00  0.00    +0.258 C 
ATOM     18  O   UNL     1       3.821  -0.342  -0.840  0.00  0.00    -0.269 OA
ATOM     19  O   UNL     1       5.867   1.792   1.936  0.00  0.00    -0.292 OA
ATOM     20  C   UNL     1       5.686   6.657   1.291  0.00  0.00    +0.011 C 
ATOM     21  H   UNL     1       1.690   4.568  -0.694  0.00  0.00    +0.152 HD
ENDROOT
BRANCH   6  22
ATOM     22  C   UNL     1       2.650   1.316   2.484  0.00  0.00    -0.022 A 
ATOM     23  C   UNL     1       1.742   2.295   2.840  0.00  0.00    +0.006 A 
ATOM     24  C   UNL     1       1.106   2.236   4.066  0.00  0.00    +0.000 A 
ATOM     25  C   UNL     1       1.387   1.203   4.941  0.00  0.00    +0.000 A 
ATOM     26  C   UNL     1       2.299   0.227   4.587  0.00  0.00    +0.000 A 
ATOM     27  C   UNL     1       2.931   0.283   3.359  0.00  0.00    +0.006 A 
ENDBRANCH   6  22
BRANCH  17  28
ATOM     28  C   UNL     1       1.832  -0.015  -2.001  0.00  0.00    +0.074 A 
ATOM     29  C   UNL     1       1.946  -0.921  -3.044  0.00  0.00    +0.021 A 
ATOM     30  C   UNL     1       0.938  -0.932  -3.975  0.00  0.00    +0.008 A 
ATOM     31  C   UNL     1      -0.100  -0.065  -3.841  0.00  0.00    +0.046 A 
ATOM     32  S   UNL     1       0.294   0.801  -2.391  0.00  0.00    -0.092 S 
ENDBRANCH  17  28
TORSDOF 2
