REMARK  Name = ZINC05216640
REMARK  7 active torsions:
REMARK  status: ('A' for Active; 'I' for Inactive)
REMARK    1  A    between atoms: C_1  and  C_2
REMARK    2  A    between atoms: C_5  and  S_14
REMARK    3  A    between atoms: N_6  and  C_7
REMARK    4  A    between atoms: C_7  and  C_8
REMARK    5  A    between atoms: S_14  and  C_15
REMARK    6  A    between atoms: C_15  and  C_16
REMARK    7  A    between atoms: C_29  and  C_31
REMARK                            x       y       z     vdW  Elec       q    Type
REMARK                         _______ _______ _______ _____ _____    ______ ____
ROOT
ATOM      1  C   UNL     1      -0.420   5.962   1.045  0.00  0.00    +0.230 C 
ATOM      2  O   UNL     1      -0.424   7.174   0.996  0.00  0.00    -0.274 OA
ATOM      3  N   UNL     1      -0.072   5.246  -0.042  0.00  0.00    -0.266 N 
ATOM      4  C   UNL     1      -0.062   3.845  -0.001  0.00  0.00    +0.058 A 
ATOM      5  C   UNL     1      -1.249   3.131   0.021  0.00  0.00    +0.025 A 
ATOM      6  C   UNL     1      -1.221   1.748   0.017  0.00  0.00    +0.002 A 
ATOM      7  C   UNL     1      -0.013   1.076   0.008  0.00  0.00    +0.002 A 
ATOM      8  C   UNL     1       1.177   1.781   0.000  0.00  0.00    +0.025 A 
ATOM      9  C   UNL     1       1.157   3.166   0.000  0.00  0.00    +0.055 A 
ATOM     10  N   UNL     1       2.347   3.902   0.026  0.00  0.00    -0.284 N 
ATOM     11  C   UNL     1       2.540   4.924  -0.836  0.00  0.00    +0.219 C 
ATOM     12  O   UNL     1       3.541   5.604  -0.750  0.00  0.00    -0.275 OA
ATOM     13  C   UNL     1       1.521   5.225  -1.904  0.00  0.00    +0.118 C 
ATOM     14  C   UNL     1       0.303   5.916  -1.289  0.00  0.00    +0.087 C 
ATOM     15  C   UNL     1      -0.867   5.853  -2.272  0.00  0.00    +0.029 C 
ATOM     16  H   UNL     1       3.039   3.676   0.667  0.00  0.00    +0.155 HD
ENDROOT
BRANCH   1  17
ATOM     17  C   UNL     1      -0.803   5.258   2.321  0.00  0.00    +0.173 C 
BRANCH  17  18
ATOM     18  S   UNL     1      -1.215   6.484   3.587  0.00  0.00    -0.077 S 
BRANCH  18  23
ATOM     19  C   UNL     1      -2.646   4.518   8.312  0.00  0.00    +0.088 C 
ATOM     20  C   UNL     1      -2.203   4.635   6.876  0.00  0.00    +0.131 A 
ATOM     21  N   UNL     1      -1.936   3.648   6.067  0.00  0.00    -0.134 NA
ATOM     22  N   UNL     1      -1.587   4.103   4.917  0.00  0.00    -0.122 NA
ATOM     23  C   UNL     1      -1.613   5.416   4.930  0.00  0.00    +0.192 A 
ATOM     24  N   UNL     1      -2.001   5.796   6.182  0.00  0.00    -0.302 N 
BRANCH  24  25
ATOM     25  C   UNL     1      -2.170   7.164   6.679  0.00  0.00    +0.160 C 
BRANCH  25  26
ATOM     26  C   UNL     1      -3.586   7.616   6.434  0.00  0.00    -0.028 A 
ATOM     27  C   UNL     1      -3.913   8.257   5.253  0.00  0.00    +0.005 A 
ATOM     28  C   UNL     1      -5.213   8.668   5.027  0.00  0.00    +0.000 A 
ATOM     29  C   UNL     1      -6.184   8.447   5.985  0.00  0.00    +0.000 A 
ATOM     30  C   UNL     1      -5.857   7.810   7.167  0.00  0.00    +0.000 A 
ATOM     31  C   UNL     1      -4.558   7.395   7.392  0.00  0.00    +0.005 A 
ENDBRANCH  25  26
ENDBRANCH  24  25
ENDBRANCH  18  23
ENDBRANCH  17  18
ENDBRANCH   1  17
TORSDOF 5
