REMARK  Name = ZINC54418205
REMARK  7 active torsions:
REMARK  status: ('A' for Active; 'I' for Inactive)
REMARK    1  A    between atoms: C_1  and  C_2
REMARK    2  A    between atoms: C_10  and  C_12
REMARK    3  A    between atoms: C_12  and  N_13
REMARK    4  A    between atoms: N_13  and  C_14
REMARK    5  A    between atoms: N_13  and  C_15
REMARK    6  A    between atoms: C_15  and  C_16
REMARK    7  A    between atoms: C_16  and  N_17
REMARK                            x       y       z     vdW  Elec       q    Type
REMARK                         _______ _______ _______ _____ _____    ______ ____
ROOT
ATOM      1  C   UNL     1       0.452   0.619  -0.753  0.00  0.00    +0.064 C 
ATOM      2  C   UNL     1       0.340  -0.864  -0.508  0.00  0.00    +0.033 A 
ATOM      3  C   UNL     1       0.296  -1.698  -1.546  0.00  0.00    +0.070 A 
ATOM      4  S   UNL     1       0.168  -3.284  -0.736  0.00  0.00    -0.059 S 
ATOM      5  C   UNL     1       0.184  -2.690   0.942  0.00  0.00    +0.158 A 
ATOM      6  N   UNL     1       0.291  -1.334   0.782  0.00  0.00    -0.261 N 
ATOM      7  C   UNL     1       0.332  -0.588   1.927  0.00  0.00    +0.259 A 
ATOM      8  O   UNL     1       0.422   0.628   1.860  0.00  0.00    -0.267 OA
ATOM      9  C   UNL     1       0.272  -1.217   3.170  0.00  0.00    +0.093 A 
ATOM     10  C   UNL     1       0.170  -2.590   3.239  0.00  0.00    +0.037 A 
ATOM     11  N   UNL     1       0.122  -3.287   2.106  0.00  0.00    -0.337 N 
ATOM     12  H   UNL     1       0.052  -4.253   2.143  0.00  0.00    +0.168 HD
ENDROOT
BRANCH  10  13
ATOM     13  C   UNL     1       0.104  -3.289   4.572  0.00  0.00    +0.137 C 
BRANCH  13  14
ATOM     14  N   UNL     1      -1.200  -3.949   4.715  0.00  0.00    -0.302 NA
ATOM     15  C   UNL     1      -1.173  -4.938   5.800  0.00  0.00    +0.105 C 
BRANCH  14  16
ATOM     16  C   UNL     1      -2.269  -2.964   4.927  0.00  0.00    +0.065 C 
BRANCH  16  17
ATOM     17  C   UNL     1      -3.629  -3.656   4.822  0.00  0.00    -0.071 C 
BRANCH  17  18
ATOM     18  N   UNL     1      -4.698  -2.671   5.034  0.00  0.00    +0.379 N 
ATOM     19  H   UNL     1      -5.595  -3.127   4.965  0.00  0.00    -0.090 HD
ATOM     20  H   UNL     1      -4.599  -2.260   5.950  0.00  0.00    -0.090 HD
ATOM     21  H   UNL     1      -4.633  -1.948   4.332  0.00  0.00    -0.090 HD
ENDBRANCH  17  18
ENDBRANCH  16  17
ENDBRANCH  14  16
ENDBRANCH  13  14
ENDBRANCH  10  13
TORSDOF 5
