REMARK  Name = ZINC03554639
REMARK  5 active torsions:
REMARK  status: ('A' for Active; 'I' for Inactive)
REMARK    1  A    between atoms: C_1  and  C_2
REMARK    2  A    between atoms: C_9  and  C_11
REMARK    3  A    between atoms: N_13  and  N_14
REMARK    4  A    between atoms: C_15  and  C_16
REMARK    5  A    between atoms: C_21  and  C_22
REMARK                            x       y       z     vdW  Elec       q    Type
REMARK                         _______ _______ _______ _____ _____    ______ ____
ROOT
ATOM      1  C   UNL     1       1.849  -5.238   2.871  0.00  0.00    +0.270 C 
ATOM      2  O   UNL     1       2.786  -4.971   3.600  0.00  0.00    -0.268 OA
ATOM      3  N   UNL     1       1.481  -6.521   2.688  0.00  0.00    -0.203 N 
ATOM      4  H   UNL     1       0.734  -6.734   2.108  0.00  0.00    +0.178 HD
ENDROOT
BRANCH   1  12
ATOM      5  C   UNL     1      -0.193   1.567   0.265  0.00  0.00    +0.008 C 
ATOM      6  C   UNL     1      -0.147   0.039   0.222  0.00  0.00    -0.009 C 
ATOM      7  C   UNL     1      -1.576  -0.513   0.208  0.00  0.00    +0.009 C 
ATOM      8  C   UNL     1      -1.522  -2.014  -0.107  0.00  0.00    +0.043 C 
ATOM      9  C   UNL     1      -0.486  -2.647   0.776  0.00  0.00    -0.006 A 
ATOM     10  C   UNL     1       0.479  -2.003   1.492  0.00  0.00    -0.036 A 
ATOM     11  C   UNL     1       1.331  -2.797   2.245  0.00  0.00    +0.024 A 
ATOM     12  C   UNL     1       1.119  -4.163   2.193  0.00  0.00    +0.076 A 
ATOM     13  S   UNL     1      -0.274  -4.274   1.086  0.00  0.00    -0.088 S 
ATOM     14  C   UNL     1       0.596  -0.481   1.453  0.00  0.00    +0.039 C 
ENDBRANCH   1  12
BRANCH   3  15
ATOM     15  N   UNL     1       2.179  -7.549   3.337  0.00  0.00    -0.187 NA
ATOM     16  C   UNL     1       1.824  -8.787   3.161  0.00  0.00    +0.139 C 
BRANCH  16  17
ATOM     17  C   UNL     1       2.557  -9.866   3.842  0.00  0.00    +0.009 A 
ATOM     18  C   UNL     1       3.706  -9.578   4.580  0.00  0.00    +0.010 A 
ATOM     19  C   UNL     1       4.388 -10.594   5.216  0.00  0.00    +0.001 A 
ATOM     20  C   UNL     1       3.943 -11.904   5.129  0.00  0.00    +0.001 A 
ATOM     21  C   UNL     1       2.811 -12.211   4.405  0.00  0.00    +0.016 A 
ATOM     22  C   UNL     1       2.099 -11.198   3.758  0.00  0.00    +0.072 A 
BRANCH  22  23
ATOM     23  C   UNL     1       0.886 -11.519   2.989  0.00  0.00    +0.387 C 
ATOM     24  O   UNL     1       0.431 -12.654   3.010  0.00  0.00    -0.241 OA
ATOM     25  O   UNL     1       0.333 -10.650   2.329  0.00  0.00    -0.241 OA
ENDBRANCH  22  23
ENDBRANCH  16  17
ENDBRANCH   3  15
TORSDOF 4
