REMARK  Name = ZINC05384663
REMARK  11 active torsions:
REMARK  status: ('A' for Active; 'I' for Inactive)
REMARK    1  A    between atoms: C_1  and  C_2
REMARK    2  A    between atoms: C_2  and  C_3
REMARK    3  A    between atoms: C_2  and  C_4
REMARK    4  A    between atoms: C_7  and  C_10
REMARK    5  A    between atoms: C_11  and  C_12
REMARK    6  A    between atoms: N_14  and  C_15
REMARK    7  A    between atoms: C_16  and  C_29
REMARK    8  A    between atoms: C_21  and  C_25
REMARK    9  A    between atoms: C_25  and  C_26
REMARK   10  A    between atoms: C_25  and  C_27
REMARK   11  A    between atoms: C_25  and  C_28
REMARK                            x       y       z     vdW  Elec       q    Type
REMARK                         _______ _______ _______ _____ _____    ______ ____
ROOT
ATOM      1  C   UNL     1      -8.939  -4.543  -1.952  0.00  0.00    +0.085 A 
ATOM      2  C   UNL     1      -9.556  -5.355  -2.892  0.00  0.00    +0.068 A 
ATOM      3  C   UNL     1     -10.939  -5.722  -2.647  0.00  0.00    -0.023 A 
ATOM      4  C   UNL     1     -11.453  -5.210  -1.508  0.00  0.00    -0.004 A 
ATOM      5  S   UNL     1     -10.127  -4.281  -0.795  0.00  0.00    -0.077 S 
ATOM      6  C   UNL     1     -12.842  -5.403  -0.981  0.00  0.00    +0.046 C 
ATOM      7  C   UNL     1     -13.714  -5.960  -2.115  0.00  0.00    -0.000 C 
ATOM      8  C   UNL     1     -12.978  -7.127  -2.780  0.00  0.00    +0.009 C 
ATOM      9  C   UNL     1     -11.774  -6.603  -3.565  0.00  0.00    +0.037 C 
ENDROOT
BRANCH   2  10
ATOM     10  C   UNL     1      -8.841  -5.822  -4.084  0.00  0.00    +0.244 C 
ATOM     11  O   UNL     1      -8.224  -6.871  -4.051  0.00  0.00    -0.270 OA
ATOM     12  N   UNL     1      -8.867  -5.091  -5.215  0.00  0.00    -0.325 N 
ATOM     13  H   UNL     1      -9.359  -4.255  -5.242  0.00  0.00    +0.145 HD
ATOM     14  H   UNL     1      -8.394  -5.400  -6.004  0.00  0.00    +0.145 HD
ENDBRANCH   2  10
BRANCH   1  17
ATOM     15  C   UNL     1      -7.202  -3.283  -0.954  0.00  0.00    +0.241 C 
ATOM     16  O   UNL     1      -7.948  -3.001  -0.035  0.00  0.00    -0.270 OA
ATOM     17  N   UNL     1      -7.640  -4.063  -1.962  0.00  0.00    -0.276 N 
ATOM     18  H   UNL     1      -7.046  -4.288  -2.695  0.00  0.00    +0.156 HD
BRANCH  15  20
ATOM     19  C   UNL     1      -5.391  -1.995   0.044  0.00  0.00    +0.013 C 
ATOM     20  C   UNL     1      -5.829  -2.775  -0.965  0.00  0.00    +0.068 C 
BRANCH  19  24
ATOM     21  C   UNL     1      -1.412  -0.526   0.013  0.00  0.00    -0.045 A 
ATOM     22  C   UNL     1      -2.257  -0.202   1.060  0.00  0.00    +0.004 A 
ATOM     23  C   UNL     1      -3.552  -0.675   1.077  0.00  0.00    +0.008 A 
ATOM     24  C   UNL     1      -4.010  -1.485   0.033  0.00  0.00    -0.025 A 
ATOM     25  C   UNL     1      -3.150  -1.807  -1.022  0.00  0.00    +0.008 A 
ATOM     26  C   UNL     1      -1.860  -1.322  -1.027  0.00  0.00    +0.004 A 
BRANCH  21  28
ATOM     27  C   UNL     1      -0.019   1.526   0.010  0.00  0.00    +0.012 C 
ATOM     28  C   UNL     1       0.002  -0.004   0.002  0.00  0.00    +0.013 C 
ATOM     29  C   UNL     1       0.742  -0.511   1.242  0.00  0.00    +0.012 C 
ENDBRANCH  21  28
ENDBRANCH  19  24
ENDBRANCH  15  20
ENDBRANCH   1  17
BRANCH   7  30
ATOM     30  C   UNL     1     -15.046  -6.451  -1.543  0.00  0.00    -0.035 C 
ATOM     31  C   UNL     1     -15.772  -5.285  -0.869  0.00  0.00    +0.011 C 
ATOM     32  C   UNL     1     -15.914  -7.005  -2.675  0.00  0.00    +0.011 C 
ATOM     33  C   UNL     1     -14.785  -7.552  -0.514  0.00  0.00    +0.011 C 
ENDBRANCH   7  30
TORSDOF 6
