REMARK  Name = ZINC36206831
REMARK  19 active torsions:
REMARK  status: ('A' for Active; 'I' for Inactive)
REMARK    1  A    between atoms: C_1  and  C_2
REMARK    2  A    between atoms: C_8  and  C_19
REMARK    3  A    between atoms: C_12  and  C_13
REMARK    4  A    between atoms: C_13  and  O_15
REMARK    5  A    between atoms: O_15  and  C_16
REMARK    6  A    between atoms: C_16  and  C_17
REMARK    7  A    between atoms: C_16  and  C_18
REMARK    8  A    between atoms: C_19  and  N_20
REMARK    9  A    between atoms: N_20  and  C_21
REMARK   10  A    between atoms: N_20  and  C_28
REMARK   11  A    between atoms: C_21  and  C_22
REMARK   12  A    between atoms: C_28  and  C_29
REMARK   13  A    between atoms: C_29  and  C_31
REMARK   14  A    between atoms: C_29  and  O_37
REMARK   15  A    between atoms: C_31  and  O_32
REMARK   16  A    between atoms: O_32  and  C_33
REMARK   17  A    between atoms: C_33  and  C_34
REMARK   18  A    between atoms: C_34  and  C_35
REMARK   19  A    between atoms: C_34  and  C_36
REMARK                            x       y       z     vdW  Elec       q    Type
REMARK                         _______ _______ _______ _____ _____    ______ ____
ROOT
ATOM      1  C   UNL     1       0.847  -3.556  -4.476  0.00  0.00    -0.003 C 
ENDROOT
BRANCH   1   9
ATOM      2  C   UNL     1       2.471   0.869   0.219  0.00  0.00    +0.046 C 
ATOM      3  C   UNL     1       1.956  -0.546   0.176  0.00  0.00    -0.015 A 
ATOM      4  C   UNL     1       1.725  -1.170  -1.051  0.00  0.00    +0.076 A 
ATOM      5  C   UNL     1       1.914  -0.640  -2.421  0.00  0.00    +0.260 A 
ATOM      6  O   UNL     1       2.326   0.492  -2.601  0.00  0.00    -0.267 OA
ATOM      7  N   UNL     1       1.619  -1.442  -3.462  0.00  0.00    -0.312 N 
ATOM      8  H   UNL     1       1.738  -1.111  -4.366  0.00  0.00    +0.170 HD
ATOM      9  C   UNL     1       1.161  -2.704  -3.273  0.00  0.00    +0.094 A 
ATOM     10  N   UNL     1       0.983  -3.202  -2.080  0.00  0.00    -0.229 NA
ATOM     11  C   UNL     1       1.242  -2.498  -0.986  0.00  0.00    +0.116 A 
ATOM     12  S   UNL     1       1.134  -2.807   0.759  0.00  0.00    -0.062 S 
ATOM     13  C   UNL     1       1.719  -1.224   1.338  0.00  0.00    +0.102 A 
BRANCH  13  14
ATOM     14  C   UNL     1       1.897  -0.764   2.717  0.00  0.00    +0.346 C 
ATOM     15  O   UNL     1       2.308   0.360   2.935  0.00  0.00    -0.244 OA
BRANCH  14  16
ATOM     16  O   UNL     1       1.607  -1.587   3.745  0.00  0.00    -0.458 OA
BRANCH  16  17
ATOM     17  C   UNL     1       1.804  -1.073   5.064  0.00  0.00    +0.171 C 
ATOM     18  C   UNL     1       0.807  -1.727   6.021  0.00  0.00    +0.052 C 
ATOM     19  C   UNL     1       3.231  -1.382   5.523  0.00  0.00    +0.052 C 
ENDBRANCH  16  17
ENDBRANCH  14  16
ENDBRANCH  13  14
ENDBRANCH   1   9
BRANCH   1  20
ATOM     20  N   UNL     1       0.369  -4.872  -4.032  0.00  0.00    +0.389 N 
ATOM     21  H   UNL     1       1.050  -5.286  -3.413  0.00  0.00    -0.081 HD
BRANCH  20  22
ATOM     22  C   UNL     1      -0.908  -4.716  -3.323  0.00  0.00    -0.042 C 
BRANCH  22  23
ATOM     23  C   UNL     1      -1.884  -3.978  -4.202  0.00  0.00    -0.064 A 
ATOM     24  C   UNL     1      -1.965  -2.600  -4.140  0.00  0.00    +0.002 A 
ATOM     25  C   UNL     1      -2.861  -1.923  -4.946  0.00  0.00    +0.000 A 
ATOM     26  C   UNL     1      -3.675  -2.624  -5.815  0.00  0.00    +0.000 A 
ATOM     27  C   UNL     1      -3.594  -4.003  -5.878  0.00  0.00    +0.000 A 
ATOM     28  C   UNL     1      -2.695  -4.680  -5.075  0.00  0.00    +0.002 A 
ENDBRANCH  22  23
ENDBRANCH  20  22
BRANCH  20  29
ATOM     29  C   UNL     1       0.177  -5.743  -5.200  0.00  0.00    -0.044 C 
BRANCH  29  30
ATOM     30  C   UNL     1       0.042  -7.195  -4.737  0.00  0.00    +0.124 C 
BRANCH  30  31
ATOM     31  O   UNL     1      -1.175  -7.351  -4.005  0.00  0.00    -0.391 OA
ATOM     32  H   UNL     1      -1.973  -7.258  -4.545  0.00  0.00    +0.210 HD
ENDBRANCH  30  31
BRANCH  30  33
ATOM     33  C   UNL     1       0.027  -8.119  -5.956  0.00  0.00    +0.189 C 
BRANCH  33  34
ATOM     34  O   UNL     1       0.019  -9.481  -5.522  0.00  0.00    -0.377 OA
BRANCH  34  35
ATOM     35  C   UNL     1       0.004 -10.431  -6.588  0.00  0.00    +0.163 C 
BRANCH  35  36
ATOM     36  C   UNL     1      -0.004 -11.848  -6.010  0.00  0.00    +0.009 C 
ATOM     37  C   UNL     1      -0.145 -12.862  -7.146  0.00  0.00    +0.009 C 
ATOM     38  C   UNL     1       1.307 -12.100  -5.261  0.00  0.00    +0.009 C 
ENDBRANCH  35  36
ENDBRANCH  34  35
ENDBRANCH  33  34
ENDBRANCH  30  33
ENDBRANCH  29  30
ENDBRANCH  20  29
ENDBRANCH   1  20
TORSDOF 14
