REMARK  Name = ZINC20425190
REMARK  9 active torsions:
REMARK  status: ('A' for Active; 'I' for Inactive)
REMARK    1  A    between atoms: C_1  and  C_2
REMARK    2  A    between atoms: C_7  and  C_8
REMARK    3  A    between atoms: C_8  and  O_9
REMARK    4  A    between atoms: O_9  and  C_10
REMARK    5  A    between atoms: C_13  and  C_15
REMARK    6  A    between atoms: N_16  and  N_17
REMARK    7  A    between atoms: C_20  and  S_23
REMARK    8  A    between atoms: S_23  and  C_24
REMARK    9  A    between atoms: C_24  and  C_25
REMARK                            x       y       z     vdW  Elec       q    Type
REMARK                         _______ _______ _______ _____ _____    ______ ____
ROOT
ATOM      1  C   UNL     1       5.222   3.125  -1.555  0.00  0.00    +0.287 A 
ATOM      2  C   UNL     1       5.763   3.455  -2.754  0.00  0.00    +0.091 A 
ATOM      3  C   UNL     1       6.948   4.164  -2.490  0.00  0.00    +0.055 A 
ATOM      4  C   UNL     1       7.077   4.226  -1.133  0.00  0.00    +0.151 A 
ATOM      5  O   UNL     1       6.021   3.591  -0.581  0.00  0.00    -0.424 OA
ENDROOT
BRANCH   4   6
ATOM      6  C   UNL     1       8.171   4.870  -0.401  0.00  0.00    +0.176 C 
ATOM      7  N   UNL     1       8.178   4.859   0.901  0.00  0.00    -0.184 NA
BRANCH   7   8
ATOM      8  N   UNL     1       9.224   5.475   1.600  0.00  0.00    -0.205 N 
ATOM      9  C   UNL     1       9.232   5.464   2.987  0.00  0.00    +0.232 A 
ATOM     10  N   UNL     1      10.187   6.024   3.789  0.00  0.00    -0.186 NA
ATOM     11  C   UNL     1       9.832   5.797   5.089  0.00  0.00    +0.211 A 
ATOM     12  N   UNL     1       8.705   5.126   5.090  0.00  0.00    -0.144 NA
ATOM     13  N   UNL     1       8.322   4.920   3.758  0.00  0.00    -0.245 N 
ATOM     14  H   UNL     1      10.040   5.967   1.049  0.00  0.00    +0.177 HD
ATOM     15  H   UNL     1       7.453   4.415   3.312  0.00  0.00    +0.192 HD
BRANCH  11  16
ATOM     16  S   UNL     1      10.729   6.317   6.514  0.00  0.00    -0.069 S 
BRANCH  16  17
ATOM     17  C   UNL     1       9.735   5.708   7.904  0.00  0.00    +0.195 C 
BRANCH  17  18
ATOM     18  C   UNL     1      10.385   6.082   9.171  0.00  0.00    +0.074 C 
ATOM     19  N   UNL     1      10.886   6.370  10.149  0.00  0.00    -0.196 NA
ENDBRANCH  17  18
ENDBRANCH  16  17
ENDBRANCH  11  16
ENDBRANCH   7   8
ENDBRANCH   4   6
BRANCH   1  20
ATOM     20  O   UNL     1       4.068   2.436  -1.371  0.00  0.00    -0.459 OA
BRANCH  20  21
ATOM     21  C   UNL     1       3.672   2.184  -0.021  0.00  0.00    +0.269 C 
BRANCH  21  28
ATOM     22  C   UNL     1       1.149   3.593   0.010  0.00  0.00    +0.044 C 
ATOM     23  C   UNL     1       1.171   2.086   0.002  0.00  0.00    -0.043 A 
ATOM     24  C   UNL     1      -0.017   1.378   0.010  0.00  0.00    +0.004 A 
ATOM     25  C   UNL     1       0.002  -0.004   0.002  0.00  0.00    +0.002 A 
ATOM     26  C   UNL     1       1.208  -0.679  -0.013  0.00  0.00    +0.020 A 
ATOM     27  C   UNL     1       2.397   0.029  -0.021  0.00  0.00    +0.048 A 
ATOM     28  C   UNL     1       2.377   1.412  -0.013  0.00  0.00    +0.011 A 
ATOM     29 CL   UNL     1       3.912  -0.818  -0.039  0.00  0.00    -0.083 Cl
ENDBRANCH  21  28
ENDBRANCH  20  21
ENDBRANCH   1  20
TORSDOF 8
