REMARK  Name = ZINC49357323
REMARK  8 active torsions:
REMARK  status: ('A' for Active; 'I' for Inactive)
REMARK    1  A    between atoms: C_1  and  S_2
REMARK    2  A    between atoms: S_2  and  C_3
REMARK    3  A    between atoms: C_6  and  C_9
REMARK    4  A    between atoms: C_9  and  S_10
REMARK    5  A    between atoms: S_10  and  C_11
REMARK    6  A    between atoms: C_12  and  C_19
REMARK    7  A    between atoms: C_13  and  N_18
REMARK    8  A    between atoms: C_15  and  N_17
REMARK                            x       y       z     vdW  Elec       q    Type
REMARK                         _______ _______ _______ _____ _____    ______ ____
ROOT
ATOM      1  C   UNL     1      -8.128  -2.144  -1.474  0.00  0.00    +0.118 A 
ATOM      2  C   UNL     1      -8.920  -2.356  -2.616  0.00  0.00    +0.104 A 
ATOM      3  C   UNL     1     -10.274  -2.714  -2.447  0.00  0.00    +0.048 A 
ATOM      4  C   UNL     1     -10.765  -2.841  -1.153  0.00  0.00    +0.067 A 
ATOM      5  C   UNL     1      -9.916  -2.614  -0.077  0.00  0.00    +0.119 A 
ATOM      6  N   UNL     1      -8.644  -2.284  -0.263  0.00  0.00    -0.225 NA
ENDROOT
BRANCH   5   7
ATOM      7  N   UNL     1     -10.404  -2.741   1.214  0.00  0.00    -0.343 N 
ATOM      8  H   UNL     1     -11.332  -2.985   1.360  0.00  0.00    +0.144 HD
ATOM      9  H   UNL     1      -9.819  -2.584   1.972  0.00  0.00    +0.144 HD
ENDBRANCH   5   7
BRANCH   3  10
ATOM     10  N   UNL     1     -11.095  -2.932  -3.543  0.00  0.00    -0.357 N 
ATOM     11  H   UNL     1     -10.739  -2.840  -4.441  0.00  0.00    +0.142 HD
ATOM     12  H   UNL     1     -12.024  -3.178  -3.412  0.00  0.00    +0.142 HD
ENDBRANCH   3  10
BRANCH   2  13
ATOM     13  C   UNL     1      -8.363  -2.211  -3.927  0.00  0.00    +0.104 C 
ATOM     14  N   UNL     1      -7.921  -2.096  -4.967  0.00  0.00    -0.191 NA
ENDBRANCH   2  13
BRANCH   1  15
ATOM     15  S   UNL     1      -6.433  -1.697  -1.656  0.00  0.00    -0.100 S 
BRANCH  15  16
ATOM     16  C   UNL     1      -5.834  -1.544   0.050  0.00  0.00    +0.111 C 
BRANCH  16  20
ATOM     17  C   UNL     1      -1.702  -0.454   0.016  0.00  0.00    +0.008 A 
ATOM     18  C   UNL     1      -2.682   0.531   0.025  0.00  0.00    +0.015 A 
ATOM     19  C   UNL     1      -4.016   0.176   0.036  0.00  0.00    +0.005 A 
ATOM     20  C   UNL     1      -4.377  -1.159   0.038  0.00  0.00    -0.037 A 
ATOM     21  C   UNL     1      -3.404  -2.143   0.029  0.00  0.00    +0.005 A 
ATOM     22  C   UNL     1      -2.068  -1.794   0.012  0.00  0.00    +0.015 A 
BRANCH  17  24
ATOM     23  C   UNL     1      -0.022   1.810   0.012  0.00  0.00    +0.090 C 
ATOM     24  S   UNL     1       0.002  -0.004   0.002  0.00  0.00    -0.129 S 
ENDBRANCH  17  24
ENDBRANCH  16  20
ENDBRANCH  15  16
ENDBRANCH   1  15
TORSDOF 7
