REMARK  Name = ZINC13574166
REMARK  12 active torsions:
REMARK  status: ('A' for Active; 'I' for Inactive)
REMARK    1  A    between atoms: C_1  and  C_2
REMARK    2  A    between atoms: C_2  and  C_3
REMARK    3  A    between atoms: C_3  and  C_4
REMARK    4  A    between atoms: C_4  and  C_5
REMARK    5  A    between atoms: C_5  and  O_30
REMARK    6  A    between atoms: C_7  and  C_22
REMARK    7  A    between atoms: C_9  and  C_14
REMARK    8  A    between atoms: C_11  and  C_13
REMARK    9  A    between atoms: C_17  and  O_20
REMARK   10  A    between atoms: O_20  and  C_21
REMARK   11  A    between atoms: C_25  and  O_28
REMARK   12  A    between atoms: O_28  and  C_29
REMARK                            x       y       z     vdW  Elec       q    Type
REMARK                         _______ _______ _______ _____ _____    ______ ____
ROOT
ATOM      1  C   UNL     1      -0.261   1.573  -0.428  0.00  0.00    +0.066 C 
ATOM      2  C   UNL     1      -1.705   1.100  -0.627  0.00  0.00    +0.024 C 
ATOM      3  C   UNL     1      -2.566   1.601   0.535  0.00  0.00    -0.037 C 
ATOM      4  C   UNL     1      -0.664   1.561   2.037  0.00  0.00    -0.034 C 
ATOM      5  C   UNL     1       0.254   1.059   0.919  0.00  0.00    +0.008 C 
ATOM      6  C   UNL     1       1.674   1.577   1.154  0.00  0.00    +0.009 C 
ATOM      7  N   UNL     1      -2.038   1.074   1.808  0.00  0.00    +0.388 N 
ATOM      8  H   UNL     1      -2.031   0.048   1.773  0.00  0.00    -0.084 HD
ATOM      9  H   UNL     1      -2.640   1.386   2.579  0.00  0.00    -0.084 HD
ENDROOT
BRANCH   4  10
ATOM     10  C   UNL     1      -0.171   1.041   3.363  0.00  0.00    -0.061 A 
ATOM     11  C   UNL     1      -0.470  -0.252   3.751  0.00  0.00    +0.005 A 
ATOM     12  C   UNL     1      -0.015  -0.733   4.963  0.00  0.00    +0.046 A 
ATOM     13  C   UNL     1       0.733   0.086   5.797  0.00  0.00    +0.120 A 
ATOM     14  C   UNL     1       1.026   1.385   5.407  0.00  0.00    +0.046 A 
ATOM     15  C   UNL     1       0.574   1.859   4.191  0.00  0.00    +0.005 A 
BRANCH  13  16
ATOM     16  O   UNL     1       1.176  -0.382   6.993  0.00  0.00    -0.495 OA
ATOM     17  C   UNL     1       0.836  -1.729   7.329  0.00  0.00    +0.277 C 
ENDBRANCH  13  16
ENDBRANCH   4  10
BRANCH   3  18
ATOM     18  C   UNL     1      -2.546   3.107   0.562  0.00  0.00    -0.061 A 
ATOM     19  C   UNL     1      -2.458   3.775   1.770  0.00  0.00    +0.005 A 
ATOM     20  C   UNL     1      -2.434   5.155   1.798  0.00  0.00    +0.046 A 
ATOM     21  C   UNL     1      -2.509   5.873   0.612  0.00  0.00    +0.120 A 
ATOM     22  C   UNL     1      -2.602   5.201  -0.598  0.00  0.00    +0.046 A 
ATOM     23  C   UNL     1      -2.620   3.820  -0.620  0.00  0.00    +0.005 A 
BRANCH  21  24
ATOM     24  O   UNL     1      -2.490   7.231   0.637  0.00  0.00    -0.495 OA
ATOM     25  C   UNL     1      -2.393   7.856   1.918  0.00  0.00    +0.277 C 
ENDBRANCH  21  24
ENDBRANCH   3  18
BRANCH   1  26
ATOM     26  O   UNL     1      -0.221   3.001  -0.441  0.00  0.00    -0.388 OA
ATOM     27  H   UNL     1      -0.443   3.393  -1.297  0.00  0.00    +0.210 HD
ENDBRANCH   1  26
BRANCH   1  28
ATOM     28  C   UNL     1       0.618   1.025  -1.554  0.00  0.00    +0.035 C 
BRANCH  28  29
ATOM     29  C   UNL     1       0.102   1.539  -2.900  0.00  0.00    +0.003 C 
BRANCH  29  31
ATOM     30  C   UNL     1       0.465   1.505  -5.371  0.00  0.00    +0.004 C 
ATOM     31  C   UNL     1       0.981   0.991  -4.026  0.00  0.00    -0.003 C 
ENDBRANCH  29  31
ENDBRANCH  28  29
ENDBRANCH   1  28
TORSDOF 8
