REMARK  Name = ZINC44877759
REMARK  12 active torsions:
REMARK  status: ('A' for Active; 'I' for Inactive)
REMARK    1  A    between atoms: C_1  and  C_2
REMARK    2  A    between atoms: C_5  and  S_8
REMARK    3  A    between atoms: S_8  and  N_11
REMARK    4  A    between atoms: N_11  and  C_12
REMARK    5  A    between atoms: N_11  and  C_32
REMARK    6  A    between atoms: C_12  and  C_13
REMARK    7  A    between atoms: N_15  and  C_16
REMARK    8  A    between atoms: C_16  and  C_17
REMARK    9  A    between atoms: C_20  and  C_23
REMARK   10  A    between atoms: C_23  and  N_24
REMARK   11  A    between atoms: C_28  and  C_31
REMARK   12  A    between atoms: C_37  and  C_38
REMARK                            x       y       z     vdW  Elec       q    Type
REMARK                         _______ _______ _______ _____ _____    ______ ____
ROOT
ATOM      1  C   UNL     1       1.499  -6.714   1.108  0.00  0.00    +0.232 C 
ATOM      2  O   UNL     1       0.932  -7.357   0.250  0.00  0.00    -0.274 OA
ATOM      3  N   UNL     1       1.889  -7.312   2.251  0.00  0.00    -0.310 N 
ATOM      4  H   UNL     1       2.343  -6.798   2.937  0.00  0.00    +0.149 HD
ENDROOT
BRANCH   1   5
ATOM      5  C   UNL     1       1.767  -5.246   0.896  0.00  0.00    +0.227 C 
BRANCH   5   6
ATOM      6  N   UNL     1       1.250  -4.840  -0.413  0.00  0.00    -0.194 N 
BRANCH   6   7
ATOM      7  C   UNL     1       2.033  -5.011  -1.557  0.00  0.00    +0.055 A 
ATOM      8  C   UNL     1       1.978  -6.204  -2.266  0.00  0.00    +0.025 A 
ATOM      9  C   UNL     1       2.753  -6.370  -3.397  0.00  0.00    +0.002 A 
ATOM     10  C   UNL     1       3.583  -5.350  -3.824  0.00  0.00    +0.000 A 
ATOM     11  C   UNL     1       3.640  -4.161  -3.121  0.00  0.00    +0.005 A 
ATOM     12  C   UNL     1       2.863  -3.986  -1.992  0.00  0.00    -0.028 A 
ATOM     13  C   UNL     1       2.921  -2.687  -1.230  0.00  0.00    +0.046 C 
ENDBRANCH   6   7
BRANCH   6  14
ATOM     14  S   UNL     1      -0.263  -4.177  -0.537  0.00  0.00    +0.075 S 
ATOM     15  O   UNL     1      -0.948  -4.501   0.665  0.00  0.00    -0.150 OA
ATOM     16  O   UNL     1      -0.761  -4.537  -1.818  0.00  0.00    -0.150 OA
BRANCH  14  21
ATOM     17  C   UNL     1       0.410   1.819  -0.573  0.00  0.00    +0.044 C 
ATOM     18  C   UNL     1       0.242   0.321  -0.564  0.00  0.00    -0.050 A 
ATOM     19  C   UNL     1       0.096  -0.365  -1.755  0.00  0.00    +0.005 A 
ATOM     20  C   UNL     1      -0.059  -1.739  -1.747  0.00  0.00    +0.029 A 
ATOM     21  C   UNL     1      -0.066  -2.426  -0.547  0.00  0.00    +0.109 A 
ATOM     22  C   UNL     1       0.082  -1.740   0.643  0.00  0.00    +0.029 A 
ATOM     23  C   UNL     1       0.240  -0.367   0.635  0.00  0.00    +0.005 A 
ENDBRANCH  14  21
ENDBRANCH   6  14
ENDBRANCH   5   6
ENDBRANCH   1   5
BRANCH   3  24
ATOM     24  C   UNL     1       1.629  -8.739   2.457  0.00  0.00    +0.139 C 
BRANCH  24  25
ATOM     25  C   UNL     1       2.161  -9.157   3.803  0.00  0.00    -0.030 A 
ATOM     26  C   UNL     1       3.462  -9.608   3.923  0.00  0.00    +0.005 A 
ATOM     27  C   UNL     1       3.950  -9.992   5.158  0.00  0.00    +0.002 A 
ATOM     28  C   UNL     1       3.137  -9.924   6.274  0.00  0.00    -0.064 A 
ATOM     29  C   UNL     1       1.836  -9.472   6.154  0.00  0.00    +0.002 A 
ATOM     30  C   UNL     1       1.349  -9.084   4.920  0.00  0.00    +0.005 A 
BRANCH  28  31
ATOM     31  C   UNL     1       3.668 -10.343   7.620  0.00  0.00    -0.043 C 
BRANCH  31  32
ATOM     32  N   UNL     1       4.270  -9.184   8.292  0.00  0.00    +0.383 N 
ATOM     33  C   UNL     1       5.439  -8.730   7.528  0.00  0.00    -0.078 C 
ATOM     34  C   UNL     1       6.021  -7.473   8.178  0.00  0.00    -0.018 C 
ATOM     35  C   UNL     1       6.443  -7.797   9.614  0.00  0.00    -0.001 C 
ATOM     36  C   UNL     1       5.234  -8.340  10.381  0.00  0.00    -0.031 C 
ATOM     37  C   UNL     1       4.680  -9.564   9.649  0.00  0.00    -0.075 C 
ATOM     38  C   UNL     1       5.662  -8.739  11.794  0.00  0.00    +0.005 C 
ATOM     39  H   UNL     1       3.594  -8.437   8.342  0.00  0.00    -0.081 HD
ENDBRANCH  31  32
ENDBRANCH  28  31
ENDBRANCH  24  25
ENDBRANCH   3  24
TORSDOF 9
