REMARK  Name = ZINC38994201
REMARK  7 active torsions:
REMARK  status: ('A' for Active; 'I' for Inactive)
REMARK    1  A    between atoms: C_5  and  C_7
REMARK    2  A    between atoms: C_7  and  O_8
REMARK    3  A    between atoms: O_8  and  C_9
REMARK    4  A    between atoms: C_12  and  C_16
REMARK    5  A    between atoms: C_13  and  O_15
REMARK    6  A    between atoms: C_18  and  O_22
REMARK    7  A    between atoms: O_22  and  C_23
REMARK                            x       y       z     vdW  Elec       q    Type
REMARK                         _______ _______ _______ _____ _____    ______ ____
ROOT
ATOM      1  C   UNL     1      -0.755  -3.661  -0.532  0.00  0.00    +0.124 A 
ATOM      2  C   UNL     1       0.406  -4.401  -0.355  0.00  0.00    +0.046 A 
ATOM      3  C   UNL     1       0.334  -5.771  -0.190  0.00  0.00    +0.013 A 
ATOM      4  C   UNL     1      -0.892  -6.407  -0.201  0.00  0.00    +0.025 A 
ATOM      5  C   UNL     1      -2.055  -5.672  -0.377  0.00  0.00    +0.126 A 
ATOM      6  C   UNL     1      -1.987  -4.296  -0.537  0.00  0.00    +0.091 A 
ENDROOT
BRANCH   4   7
ATOM      7  C   UNL     1      -0.967  -7.902  -0.021  0.00  0.00    +0.199 C 
ATOM      8  C   UNL     1      -0.952  -8.607  -1.367  0.00  0.00    +0.153 C 
ATOM      9  C   UNL     1       0.167  -9.357  -1.321  0.00  0.00    +0.176 C 
ATOM     10  N   UNL     1       0.800  -9.192  -0.154  0.00  0.00    -0.182 NA
ATOM     11  N   UNL     1       0.252  -8.410   0.632  0.00  0.00    -0.294 N 
ATOM     12  H   UNL     1       0.566  -8.172   1.518  0.00  0.00    +0.184 HD
BRANCH   8  13
ATOM     13  O   UNL     1      -1.849  -8.506  -2.371  0.00  0.00    -0.455 OA
BRANCH  13  14
ATOM     14  C   UNL     1      -3.103  -8.984  -2.158  0.00  0.00    +0.142 A 
ATOM     15  C   UNL     1      -3.398  -9.659  -0.982  0.00  0.00    +0.047 A 
ATOM     16  C   UNL     1      -4.674 -10.144  -0.767  0.00  0.00    +0.004 A 
ATOM     17  C   UNL     1      -5.656  -9.958  -1.723  0.00  0.00    +0.001 A 
ATOM     18  C   UNL     1      -5.364  -9.287  -2.896  0.00  0.00    +0.019 A 
ATOM     19  C   UNL     1      -4.091  -8.794  -3.113  0.00  0.00    +0.060 A 
ATOM     20 BR   UNL     1      -3.696  -7.870  -4.715  0.00  0.00    -0.046 Br
ENDBRANCH  13  14
ENDBRANCH   8  13
ENDBRANCH   4   7
BRANCH   5  21
ATOM     21  O   UNL     1      -3.261  -6.298  -0.388  0.00  0.00    -0.506 OA
ATOM     22  H   UNL     1      -3.675  -6.371   0.483  0.00  0.00    +0.292 HD
ENDBRANCH   5  21
BRANCH   1  23
ATOM     23  O   UNL     1      -0.684  -2.313  -0.694  0.00  0.00    -0.487 OA
BRANCH  23  24
ATOM     24  C   UNL     1       0.619  -1.726  -0.678  0.00  0.00    +0.267 C 
BRANCH  24  29
ATOM     25  C   UNL     1      -0.853   1.710  -1.207  0.00  0.00    +0.001 A 
ATOM     26  C   UNL     1       0.282   2.499  -1.227  0.00  0.00    +0.003 A 
ATOM     27  C   UNL     1       1.528   1.921  -1.070  0.00  0.00    +0.039 A 
ATOM     28  C   UNL     1       1.638   0.552  -0.892  0.00  0.00    +0.130 A 
ATOM     29  C   UNL     1       0.500  -0.236  -0.872  0.00  0.00    +0.025 A 
ATOM     30  C   UNL     1      -0.744   0.344  -1.029  0.00  0.00    +0.010 A 
ATOM     31  F   UNL     1       2.855  -0.013  -0.738  0.00  0.00    -0.205 F 
ENDBRANCH  24  29
ENDBRANCH  23  24
ENDBRANCH   1  23
TORSDOF 7
