REMARK  Name = ZINC22061043
REMARK  6 active torsions:
REMARK  status: ('A' for Active; 'I' for Inactive)
REMARK    1  A    between atoms: C_1  and  O_2
REMARK    2  A    between atoms: O_2  and  C_3
REMARK    3  A    between atoms: C_6  and  C_9
REMARK    4  A    between atoms: N_14  and  C_15
REMARK    5  A    between atoms: C_15  and  C_16
REMARK    6  A    between atoms: C_26  and  C_28
REMARK                            x       y       z     vdW  Elec       q    Type
REMARK                         _______ _______ _______ _____ _____    ______ ____
ROOT
ATOM      1  C   UNL     1       4.632   1.676   2.994  0.00  0.00    +0.200 C 
ATOM      2  O   UNL     1       5.378   2.488   2.489  0.00  0.00    -0.278 OA
ATOM      3  N   UNL     1       4.840   1.264   4.260  0.00  0.00    -0.291 N 
ATOM      4  C   UNL     1       3.942   0.280   4.882  0.00  0.00    +0.114 C 
ATOM      5  C   UNL     1       4.747  -0.998   5.165  0.00  0.00    +0.062 C 
ATOM      6  C   UNL     1       6.075  -0.611   5.731  0.00  0.00    -0.003 A 
ATOM      7  C   UNL     1       6.673   0.610   5.702  0.00  0.00    -0.012 A 
ATOM      8  C   UNL     1       7.927   0.707   6.302  0.00  0.00    +0.013 A 
ATOM      9  C   UNL     1       8.487  -0.380   6.880  0.00  0.00    +0.046 A 
ATOM     10  S   UNL     1       7.241  -1.629   6.596  0.00  0.00    -0.101 S 
ATOM     11  C   UNL     1       5.972   1.788   5.037  0.00  0.00    +0.144 C 
ENDROOT
BRANCH  11  12
ATOM     12  C   UNL     1       5.471   2.740   6.092  0.00  0.00    +0.015 A 
ATOM     13  C   UNL     1       6.007   3.913   6.508  0.00  0.00    +0.013 A 
ATOM     14  C   UNL     1       5.364   4.630   7.500  0.00  0.00    +0.008 A 
ATOM     15  C   UNL     1       4.222   4.133   8.035  0.00  0.00    +0.045 A 
ATOM     16  S   UNL     1       4.020   2.611   7.124  0.00  0.00    -0.099 S 
ENDBRANCH  11  12
BRANCH   1  17
ATOM     17  C   UNL     1       3.471   1.127   2.205  0.00  0.00    +0.020 C 
BRANCH  17  22
ATOM     18  C   UNL     1       2.490   1.045  -0.016  0.00  0.00    -0.037 C 
ATOM     19  C   UNL     1       3.079   1.054  -1.439  0.00  0.00    -0.013 C 
ATOM     20  C   UNL     1       4.450   1.755  -1.304  0.00  0.00    -0.020 C 
ATOM     21  C   UNL     1       4.784   1.576   0.198  0.00  0.00    -0.077 C 
ATOM     22  N   UNL     1       3.462   1.728   0.865  0.00  0.00    +0.390 N 
ATOM     23  H   UNL     1       3.198   2.785   1.017  0.00  0.00    -0.080 HD
BRANCH  18  27
ATOM     24  C   UNL     1      -1.237   3.137   0.031  0.00  0.00    +0.120 A 
ATOM     25  C   UNL     1      -1.218   1.750   0.017  0.00  0.00    +0.046 A 
ATOM     26  C   UNL     1      -0.013   1.076   0.008  0.00  0.00    +0.005 A 
ATOM     27  C   UNL     1       1.176   1.783   0.000  0.00  0.00    -0.061 A 
ATOM     28  C   UNL     1       1.160   3.165   0.007  0.00  0.00    +0.005 A 
ATOM     29  C   UNL     1      -0.043   3.844   0.023  0.00  0.00    +0.046 A 
BRANCH  24  31
ATOM     30  C   UNL     1      -3.611   3.009   0.054  0.00  0.00    +0.277 C 
ATOM     31  O   UNL     1      -2.422   3.802   0.046  0.00  0.00    -0.495 OA
ENDBRANCH  24  31
ENDBRANCH  18  27
ENDBRANCH  17  22
ENDBRANCH   1  17
TORSDOF 5
