REMARK  Name = ZINC35641509
REMARK  11 active torsions:
REMARK  status: ('A' for Active; 'I' for Inactive)
REMARK    1  A    between atoms: C_1  and  C_2
REMARK    2  A    between atoms: C_2  and  O_3
REMARK    3  A    between atoms: O_3  and  C_4
REMARK    4  A    between atoms: C_4  and  C_6
REMARK    5  A    between atoms: C_7  and  C_24
REMARK    6  A    between atoms: N_8  and  C_21
REMARK    7  A    between atoms: C_12  and  C_14
REMARK    8  A    between atoms: C_21  and  C_22
REMARK    9  A    between atoms: C_24  and  N_25
REMARK   10  A    between atoms: N_25  and  C_26
REMARK   11  A    between atoms: N_25  and  C_27
REMARK                            x       y       z     vdW  Elec       q    Type
REMARK                         _______ _______ _______ _____ _____    ______ ____
ROOT
ATOM      1  C   UNL     1       1.297  -2.341  -2.943  0.00  0.00    +0.077 C 
ATOM      2  C   UNL     1       1.932  -3.531  -2.998  0.00  0.00    +0.011 C 
ATOM      3  N   UNL     1       2.724  -3.859  -4.062  0.00  0.00    -0.257 N 
ATOM      4  C   UNL     1       2.932  -3.051  -5.109  0.00  0.00    +0.307 C 
ATOM      5  O   UNL     1       3.655  -3.430  -6.010  0.00  0.00    -0.252 OA
ATOM      6  N   UNL     1       2.367  -1.830  -5.197  0.00  0.00    -0.288 N 
ATOM      7  C   UNL     1       1.489  -1.384  -4.102  0.00  0.00    +0.145 C 
ATOM      8  H   UNL     1       2.532  -1.261  -5.965  0.00  0.00    +0.151 HD
ENDROOT
BRANCH   7   9
ATOM      9  C   UNL     1       2.053  -0.098  -3.555  0.00  0.00    -0.004 A 
ATOM     10  C   UNL     1       3.422   0.086  -3.494  0.00  0.00    +0.007 A 
ATOM     11  C   UNL     1       3.939   1.265  -2.993  0.00  0.00    +0.000 A 
ATOM     12  C   UNL     1       3.088   2.262  -2.552  0.00  0.00    +0.001 A 
ATOM     13  C   UNL     1       1.720   2.079  -2.612  0.00  0.00    +0.020 A 
ATOM     14  C   UNL     1       1.201   0.901  -3.120  0.00  0.00    +0.046 A 
ATOM     15 CL   UNL     1      -0.518   0.673  -3.202  0.00  0.00    -0.083 Cl
ENDBRANCH   7   9
BRANCH   1  16
ATOM     16  C   UNL     1       0.477  -2.001  -1.842  0.00  0.00    +0.339 C 
ATOM     17  O   UNL     1       0.881  -1.222  -0.999  0.00  0.00    -0.245 OA
BRANCH  16  18
ATOM     18  O   UNL     1      -0.755  -2.540  -1.727  0.00  0.00    -0.462 OA
BRANCH  18  20
ATOM     19  C   UNL     1      -2.870  -2.878  -0.607  0.00  0.00    +0.048 C 
ATOM     20  C   UNL     1      -1.569  -2.073  -0.649  0.00  0.00    +0.229 C 
ENDBRANCH  18  20
ENDBRANCH  16  18
ENDBRANCH   1  16
BRANCH   3  21
ATOM     21  C   UNL     1       3.383  -5.167  -4.057  0.00  0.00    +0.141 C 
BRANCH  21  22
ATOM     22  C   UNL     1       2.551  -6.151  -4.839  0.00  0.00    -0.015 C 
ATOM     23  C   UNL     1       3.083  -6.807  -5.841  0.00  0.00    +0.005 C 
ENDBRANCH  21  22
ENDBRANCH   3  21
BRANCH   2  24
ATOM     24  C   UNL     1       1.765  -4.514  -1.869  0.00  0.00    -0.026 C 
BRANCH  24  25
ATOM     25  N   UNL     1       2.986  -4.535  -1.053  0.00  0.00    +0.383 N 
ATOM     26  C   UNL     1       3.161  -3.231  -0.399  0.00  0.00    -0.095 C 
ATOM     27  H   UNL     1       3.782  -4.725  -1.643  0.00  0.00    -0.081 HD
BRANCH  25  28
ATOM     28  C   UNL     1       2.874  -5.584  -0.030  0.00  0.00    -0.068 C 
ATOM     29  C   UNL     1       4.146  -5.606   0.820  0.00  0.00    -0.015 C 
ATOM     30  C   UNL     1       4.029  -6.698   1.885  0.00  0.00    -0.002 C 
ATOM     31  C   UNL     1       3.847  -8.056   1.204  0.00  0.00    -0.000 C 
ATOM     32  C   UNL     1       2.575  -8.034   0.355  0.00  0.00    -0.002 C 
ATOM     33  C   UNL     1       2.692  -6.942  -0.710  0.00  0.00    -0.015 C 
ENDBRANCH  25  28
ENDBRANCH  24  25
ENDBRANCH   2  24
TORSDOF 9
