REMARK  Name = ZINC02738500
REMARK  12 active torsions:
REMARK  status: ('A' for Active; 'I' for Inactive)
REMARK    1  A    between atoms: C_1  and  C_2
REMARK    2  A    between atoms: C_2  and  N_63
REMARK    3  A    between atoms: C_3  and  C_4
REMARK    4  A    between atoms: C_3  and  N_63
REMARK    5  A    between atoms: C_5  and  C_6
REMARK    6  A    between atoms: C_5  and  N_63
REMARK    7  A    between atoms: C_7  and  C_17
REMARK    8  A    between atoms: N_19  and  N_20
REMARK    9  A    between atoms: C_21  and  C_22
REMARK   10  A    between atoms: C_25  and  O_28
REMARK   11  A    between atoms: O_28  and  C_29
REMARK   12  A    between atoms: C_29  and  C_30
REMARK                            x       y       z     vdW  Elec       q    Type
REMARK                         _______ _______ _______ _____ _____    ______ ____
ROOT
ATOM      1  C   UNL     1      -0.429   5.483   0.097  0.00  0.00    +0.063 A 
ATOM      2  C   UNL     1       0.797   6.085   0.074  0.00  0.00    +0.170 A 
ATOM      3  N   UNL     1       1.742   5.128   0.097  0.00  0.00    -0.124 NA
ATOM      4  N   UNL     1       1.182   3.970   0.139  0.00  0.00    -0.058 NA
ATOM      5  N   UNL     1      -0.209   4.150   0.144  0.00  0.00    -0.194 N 
ATOM      6  C   UNL     1      -1.181   3.144   0.183  0.00  0.00    +0.240 A 
ATOM      7  C   UNL     1      -0.922   1.702   0.227  0.00  0.00    +0.206 A 
ATOM      8  N   UNL     1      -2.068   1.080   0.261  0.00  0.00    -0.032 NA
ATOM      9  O   UNL     1      -3.093   2.058   0.236  0.00  0.00    -0.239 OA
ATOM     10  N   UNL     1      -2.470   3.330   0.183  0.00  0.00    -0.027 NA
ATOM     11  N   UNL     1       0.331   1.100   0.237  0.00  0.00    -0.337 N 
ATOM     12  H   UNL     1       0.405   0.134   0.272  0.00  0.00    +0.144 HD
ATOM     13  H   UNL     1       1.132   1.647   0.206  0.00  0.00    +0.144 HD
ENDROOT
BRANCH   2  14
ATOM     14  C   UNL     1       1.043   7.538   0.025  0.00  0.00    +0.285 C 
ATOM     15  O   UNL     1       0.106   8.313   0.007  0.00  0.00    -0.267 OA
ATOM     16  N   UNL     1       2.306   8.007   0.001  0.00  0.00    -0.202 N 
ATOM     17  H   UNL     1       3.054   7.389   0.016  0.00  0.00    +0.178 HD
BRANCH  16  18
ATOM     18  N   UNL     1       2.540   9.388  -0.045  0.00  0.00    -0.187 NA
ATOM     19  C   UNL     1       3.757   9.840  -0.068  0.00  0.00    +0.138 C 
BRANCH  19  20
ATOM     20  C   UNL     1       4.003  11.292  -0.117  0.00  0.00    -0.005 A 
ATOM     21  C   UNL     1       2.928  12.185  -0.143  0.00  0.00    +0.013 A 
ATOM     22  C   UNL     1       3.162  13.542  -0.183  0.00  0.00    +0.046 A 
ATOM     23  C   UNL     1       4.465  14.023  -0.207  0.00  0.00    +0.121 A 
ATOM     24  C   UNL     1       5.537  13.140  -0.187  0.00  0.00    +0.046 A 
ATOM     25  C   UNL     1       5.312  11.781  -0.142  0.00  0.00    +0.013 A 
BRANCH  23  26
ATOM     26  O   UNL     1       4.692  15.362  -0.252  0.00  0.00    -0.487 OA
BRANCH  26  27
ATOM     27  C   UNL     1       3.545  16.214  -0.270  0.00  0.00    +0.264 C 
BRANCH  27  28
ATOM     28  C   UNL     1       3.989  17.653  -0.319  0.00  0.00    -0.010 A 
ATOM     29  C   UNL     1       4.195  18.353   0.855  0.00  0.00    +0.007 A 
ATOM     30  C   UNL     1       4.608  19.672   0.810  0.00  0.00    +0.000 A 
ATOM     31  C   UNL     1       4.803  20.294  -0.409  0.00  0.00    +0.000 A 
ATOM     32  C   UNL     1       4.590  19.596  -1.583  0.00  0.00    +0.000 A 
ATOM     33  C   UNL     1       4.183  18.275  -1.538  0.00  0.00    +0.007 A 
ENDBRANCH  27  28
ENDBRANCH  26  27
ENDBRANCH  23  26
ENDBRANCH  19  20
ENDBRANCH  16  18
ENDBRANCH   2  14
BRANCH   1  34
ATOM     34  C   UNL     1      -1.769   6.172   0.078  0.00  0.00    -0.020 C 
BRANCH  34  35
ATOM     35  N   UNL     1      -2.273   6.269   1.464  0.00  0.00    +0.383 N 
ATOM     36  H   UNL     1      -2.161   5.358   1.924  0.00  0.00    -0.081 HD
BRANCH  35  38
ATOM     37  C   UNL     1      -1.888   7.206   3.691  0.00  0.00    -0.017 C 
ATOM     38  C   UNL     1      -1.502   7.284   2.212  0.00  0.00    -0.082 C 
ENDBRANCH  35  38
BRANCH  35  39
ATOM     39  C   UNL     1      -3.707   6.629   1.456  0.00  0.00    -0.082 C 
ATOM     40  C   UNL     1      -4.524   5.380   1.119  0.00  0.00    -0.017 C 
ENDBRANCH  35  39
ENDBRANCH  34  35
ENDBRANCH   1  34
TORSDOF 10
