REMARK  Name = ZINC63200703
REMARK  4 active torsions:
REMARK  status: ('A' for Active; 'I' for Inactive)
REMARK    1  A    between atoms: C_1  and  C_2
REMARK    2  A    between atoms: C_2  and  C_4
REMARK    3  A    between atoms: C_2  and  N_10
REMARK    4  A    between atoms: C_13  and  C_16
REMARK                            x       y       z     vdW  Elec       q    Type
REMARK                         _______ _______ _______ _____ _____    ______ ____
ROOT
ATOM      1  N   UNL     1      -1.215  -0.781  -0.379  0.00  0.00    +0.387 N 
ATOM      2  C   UNL     1      -0.739  -2.168  -0.319  0.00  0.00    -0.078 C 
ATOM      3  C   UNL     1      -1.915  -3.124  -0.533  0.00  0.00    -0.017 C 
ATOM      4  C   UNL     1      -2.540  -2.856  -1.905  0.00  0.00    -0.029 C 
ATOM      5  C   UNL     1      -2.966  -1.387  -1.983  0.00  0.00    -0.017 C 
ATOM      6  C   UNL     1      -1.752  -0.495  -1.715  0.00  0.00    -0.078 C 
ATOM      7  H   UNL     1      -1.941  -0.646   0.309  0.00  0.00    -0.081 HD
ENDROOT
BRANCH   4   8
ATOM      8  C   UNL     1      -3.765  -3.754  -2.093  0.00  0.00    -0.069 C 
ATOM      9  C   UNL     1      -4.373  -3.548  -3.503  0.00  0.00    -0.017 C 
ATOM     10  C   UNL     1      -5.113  -4.894  -3.724  0.00  0.00    -0.021 C 
ATOM     11  C   UNL     1      -4.187  -5.918  -3.035  0.00  0.00    -0.082 C 
ATOM     12  N   UNL     1      -3.370  -5.178  -2.054  0.00  0.00    +0.381 N 
ATOM     13  H   UNL     1      -2.393  -5.266  -2.290  0.00  0.00    -0.086 HD
ATOM     14  H   UNL     1      -3.528  -5.549  -1.129  0.00  0.00    -0.086 HD
ENDBRANCH   4   8
BRANCH   1  16
ATOM     15  C   UNL     1      -0.601   1.576  -0.122  0.00  0.00    -0.004 C 
ATOM     16  C   UNL     1      -0.099   0.131  -0.095  0.00  0.00    +0.017 C 
BRANCH  16  17
ATOM     17  C   UNL     1       0.469  -0.178   1.266  0.00  0.00    +0.207 C 
ATOM     18  O   UNL     1      -0.236  -0.671   2.119  0.00  0.00    -0.277 OA
ATOM     19  N   UNL     1       1.762   0.094   1.534  0.00  0.00    -0.242 N 
ATOM     20  C   UNL     1       2.270  -0.183   2.751  0.00  0.00    +0.303 C 
ATOM     21  O   UNL     1       1.563  -0.677   3.607  0.00  0.00    -0.253 OA
ATOM     22  N   UNL     1       3.563   0.089   3.019  0.00  0.00    -0.313 N 
ATOM     23  H   UNL     1       2.326   0.488   0.851  0.00  0.00    +0.159 HD
ATOM     24  H   UNL     1       4.127   0.484   2.336  0.00  0.00    +0.146 HD
ATOM     25  H   UNL     1       3.928  -0.110   3.895  0.00  0.00    +0.146 HD
ENDBRANCH  16  17
ENDBRANCH   1  16
TORSDOF 3
