REMARK  Name = ZINC58223068
REMARK  6 active torsions:
REMARK  status: ('A' for Active; 'I' for Inactive)
REMARK    1  A    between atoms: C_1  and  C_2
REMARK    2  A    between atoms: C_4  and  C_16
REMARK    3  A    between atoms: C_7  and  N_8
REMARK    4  A    between atoms: N_8  and  C_9
REMARK    5  A    between atoms: C_9  and  C_10
REMARK    6  A    between atoms: C_23  and  C_25
REMARK                            x       y       z     vdW  Elec       q    Type
REMARK                         _______ _______ _______ _____ _____    ______ ____
ROOT
ATOM      1  C   UNL     1      -1.461   0.993   0.349  0.00  0.00    +0.045 C 
ATOM      2  C   UNL     1      -0.617  -0.240   0.160  0.00  0.00    -0.029 A 
ATOM      3  C   UNL     1      -0.659  -0.926  -1.033  0.00  0.00    +0.018 A 
ATOM      4  C   UNL     1       0.124  -2.071  -1.208  0.00  0.00    +0.037 A 
ATOM      5  C   UNL     1       0.949  -2.515  -0.170  0.00  0.00    +0.015 A 
ATOM      6  C   UNL     1       0.987  -1.825   1.020  0.00  0.00    +0.024 A 
ATOM      7  C   UNL     1       0.209  -0.682   1.189  0.00  0.00    +0.030 A 
ENDROOT
BRANCH   4   8
ATOM      8  C   UNL     1       0.080  -2.808  -2.484  0.00  0.00    +0.247 C 
ATOM      9  O   UNL     1      -0.044  -2.204  -3.532  0.00  0.00    -0.270 OA
ATOM     10  N   UNL     1       0.178  -4.152  -2.490  0.00  0.00    -0.295 N 
ATOM     11  C   UNL     1       0.196  -4.907  -1.229  0.00  0.00    +0.108 C 
ATOM     12  C   UNL     1      -0.895  -5.981  -1.282  0.00  0.00    +0.019 C 
ATOM     13  C   UNL     1      -0.699  -6.841  -2.532  0.00  0.00    +0.003 C 
ATOM     14  C   UNL     1      -0.822  -5.965  -3.781  0.00  0.00    +0.022 C 
ATOM     15  C   UNL     1       0.264  -4.892  -3.756  0.00  0.00    +0.073 C 
ATOM     16  C   UNL     1       0.057  -3.929  -4.927  0.00  0.00    +0.028 C 
ENDBRANCH   4   8
BRANCH   7  17
ATOM     17  N   UNL     1       0.255   0.016   2.391  0.00  0.00    -0.335 N 
ATOM     18  H   UNL     1      -0.289   0.810   2.511  0.00  0.00    +0.147 HD
BRANCH  17  19
ATOM     19  C   UNL     1       1.124  -0.447   3.475  0.00  0.00    +0.198 C 
BRANCH  19  20
ATOM     20  C   UNL     1       0.989   0.477   4.657  0.00  0.00    +0.237 C 
ATOM     21  O   UNL     1       0.240   1.429   4.600  0.00  0.00    -0.274 OA
ATOM     22  N   UNL     1       1.700   0.246   5.779  0.00  0.00    -0.239 N 
ATOM     23  C   UNL     1       1.579   1.073   6.836  0.00  0.00    +0.303 C 
ATOM     24  O   UNL     1       0.828   2.027   6.778  0.00  0.00    -0.253 OA
ATOM     25  N   UNL     1       2.290   0.842   7.957  0.00  0.00    -0.313 N 
ATOM     26  H   UNL     1       2.299  -0.516   5.825  0.00  0.00    +0.159 HD
ATOM     27  H   UNL     1       2.889   0.080   8.003  0.00  0.00    +0.146 HD
ATOM     28  H   UNL     1       2.203   1.437   8.718  0.00  0.00    +0.146 HD
ENDBRANCH  19  20
ENDBRANCH  17  19
ENDBRANCH   7  17
TORSDOF 4
