REMARK  Name = ZINC14586791
REMARK  6 active torsions:
REMARK  status: ('A' for Active; 'I' for Inactive)
REMARK    1  A    between atoms: C_1  and  C_2
REMARK    2  A    between atoms: C_2  and  C_3
REMARK    3  A    between atoms: C_3  and  N_4
REMARK    4  A    between atoms: C_13  and  C_15
REMARK    5  A    between atoms: N_17  and  C_18
REMARK    6  A    between atoms: C_26  and  C_29
REMARK                            x       y       z     vdW  Elec       q    Type
REMARK                         _______ _______ _______ _____ _____    ______ ____
ROOT
ATOM      1  C   UNL     1       1.581   6.073   2.535  0.00  0.00    +0.277 C 
ATOM      2  O   UNL     1       1.651   7.277   2.687  0.00  0.00    -0.267 OA
ATOM      3  N   UNL     1       2.332   5.253   3.297  0.00  0.00    -0.213 N 
ATOM      4  C   UNL     1       3.096   5.774   4.334  0.00  0.00    +0.172 A 
ATOM      5  N   UNL     1       3.142   7.011   4.790  0.00  0.00    -0.229 NA
ATOM      6  C   UNL     1       3.931   7.341   5.793  0.00  0.00    +0.047 A 
ATOM      7  C   UNL     1       4.701   6.377   6.353  0.00  0.00    +0.071 A 
ATOM      8  S   UNL     1       4.231   4.962   5.368  0.00  0.00    -0.060 S 
ATOM      9  C   UNL     1       3.974   8.758   6.306  0.00  0.00    +0.066 C 
ENDROOT
BRANCH   1  19
ATOM     10  N   UNL     1      -0.160   3.645   0.481  0.00  0.00    -0.228 N 
ATOM     11  C   UNL     1      -0.973   4.322  -0.356  0.00  0.00    +0.275 A 
ATOM     12  O   UNL     1      -1.672   3.731  -1.159  0.00  0.00    -0.266 OA
ATOM     13  C   UNL     1      -1.000   5.788  -0.272  0.00  0.00    +0.050 A 
ATOM     14  C   UNL     1      -1.806   6.577  -1.087  0.00  0.00    +0.014 A 
ATOM     15  C   UNL     1      -1.768   7.949  -0.950  0.00  0.00    +0.001 A 
ATOM     16  C   UNL     1      -0.938   8.546  -0.011  0.00  0.00    +0.001 A 
ATOM     17  C   UNL     1      -0.132   7.781   0.807  0.00  0.00    +0.011 A 
ATOM     18  C   UNL     1      -0.154   6.396   0.685  0.00  0.00    +0.020 A 
ATOM     19  C   UNL     1       0.675   5.509   1.516  0.00  0.00    +0.154 A 
ATOM     20  N   UNL     1       0.598   4.212   1.341  0.00  0.00    -0.163 NA
BRANCH  10  21
ATOM     21  C   UNL     1      -0.141   2.182   0.397  0.00  0.00    +0.147 C 
BRANCH  21  23
ATOM     22  C   UNL     1       0.822   0.222  -0.815  0.00  0.00    +0.005 C 
ATOM     23  C   UNL     1       0.802   1.749  -0.727  0.00  0.00    +0.020 C 
ENDBRANCH  21  23
ENDBRANCH  10  21
ENDBRANCH   1  19
BRANCH   3  24
ATOM     24  C   UNL     1       2.342   3.876   3.043  0.00  0.00    +0.044 A 
ATOM     25  C   UNL     1       1.309   3.075   3.511  0.00  0.00    +0.024 A 
ATOM     26  C   UNL     1       1.320   1.718   3.255  0.00  0.00    +0.002 A 
ATOM     27  C   UNL     1       2.363   1.155   2.543  0.00  0.00    +0.000 A 
ATOM     28  C   UNL     1       3.396   1.950   2.080  0.00  0.00    +0.002 A 
ATOM     29  C   UNL     1       3.389   3.308   2.328  0.00  0.00    +0.024 A 
ENDBRANCH   3  24
TORSDOF 4
