REMARK  Name = ZINC20287571
REMARK  8 active torsions:
REMARK  status: ('A' for Active; 'I' for Inactive)
REMARK    1  A    between atoms: C_1  and  C_2
REMARK    2  A    between atoms: C_2  and  C_3
REMARK    3  A    between atoms: C_4  and  C_18
REMARK    4  A    between atoms: C_7  and  O_8
REMARK    5  A    between atoms: C_18  and  C_19
REMARK    6  A    between atoms: C_19  and  O_21
REMARK    7  A    between atoms: O_21  and  C_22
REMARK    8  A    between atoms: N_23  and  C_24
REMARK                            x       y       z     vdW  Elec       q    Type
REMARK                         _______ _______ _______ _____ _____    ______ ____
ROOT
ATOM      1  C   UNL     1       0.141  -0.740   1.261  0.00  0.00    +0.081 A 
ATOM      2  C   UNL     1      -0.903  -1.212   2.093  0.00  0.00    +0.087 A 
ATOM      3  N   UNL     1      -0.371  -1.817   3.117  0.00  0.00    -0.165 NA
ATOM      4  N   UNL     1       1.023  -1.770   3.006  0.00  0.00    -0.175 N 
ATOM      5  C   UNL     1       1.339  -1.112   1.861  0.00  0.00    +0.227 A 
ATOM      6  C   UNL     1       1.930  -2.310   3.911  0.00  0.00    +0.198 A 
ATOM      7  N   UNL     1       3.241  -2.296   3.869  0.00  0.00    -0.221 NA
ATOM      8  C   UNL     1       4.004  -2.865   4.827  0.00  0.00    +0.081 A 
ATOM      9  C   UNL     1       5.415  -2.920   4.901  0.00  0.00    +0.029 A 
ATOM     10  C   UNL     1       6.037  -3.543   5.951  0.00  0.00    +0.002 A 
ATOM     11  C   UNL     1       5.312  -4.140   6.973  0.00  0.00    +0.001 A 
ATOM     12  C   UNL     1       3.931  -4.105   6.933  0.00  0.00    +0.017 A 
ATOM     13  C   UNL     1       3.299  -3.483   5.885  0.00  0.00    +0.041 A 
ATOM     14  S   UNL     1       1.606  -3.193   5.431  0.00  0.00    -0.048 S 
ENDROOT
BRANCH   1  16
ATOM     15  C   UNL     1      -0.070   1.503   0.013  0.00  0.00    +0.066 C 
ATOM     16  C   UNL     1      -0.012  -0.003   0.003  0.00  0.00    +0.053 C 
ATOM     17  N   UNL     1      -0.098  -0.652  -1.127  0.00  0.00    -0.252 NA
BRANCH  17  18
ATOM     18  C   UNL     1      -0.119   0.035  -2.312  0.00  0.00    +0.066 A 
ATOM     19  C   UNL     1       0.915   0.919  -2.627  0.00  0.00    +0.029 A 
ATOM     20  C   UNL     1       0.889   1.608  -3.821  0.00  0.00    +0.023 A 
ATOM     21  C   UNL     1      -0.160   1.426  -4.707  0.00  0.00    +0.059 A 
ATOM     22  C   UNL     1      -1.189   0.550  -4.400  0.00  0.00    +0.061 A 
ATOM     23  C   UNL     1      -1.171  -0.150  -3.211  0.00  0.00    +0.049 A 
ATOM     24 CL   UNL     1      -2.500   0.329  -5.516  0.00  0.00    -0.082 Cl
ATOM     25 CL   UNL     1      -0.185   2.297  -6.208  0.00  0.00    -0.082 Cl
ENDBRANCH  17  18
ENDBRANCH   1  16
BRANCH   5  26
ATOM     26  O   UNL     1       2.585  -0.862   1.393  0.00  0.00    -0.492 OA
ATOM     27  H   UNL     1       2.961  -0.027   1.702  0.00  0.00    +0.294 HD
ENDBRANCH   5  26
BRANCH   2  28
ATOM     28  C   UNL     1      -2.379  -1.043   1.837  0.00  0.00    +0.178 C 
BRANCH  28  29
ATOM     29  C   UNL     1      -2.887  -2.214   1.035  0.00  0.00    +0.313 C 
ATOM     30  O   UNL     1      -2.128  -3.095   0.705  0.00  0.00    -0.250 OA
BRANCH  29  31
ATOM     31  O   UNL     1      -4.182  -2.278   0.688  0.00  0.00    -0.468 OA
ATOM     32  C   UNL     1      -4.594  -3.416  -0.072  0.00  0.00    +0.280 C 
ENDBRANCH  29  31
ENDBRANCH  28  29
ENDBRANCH   2  28
TORSDOF 6
