REMARK  Name = ZINC46581469
REMARK  9 active torsions:
REMARK  status: ('A' for Active; 'I' for Inactive)
REMARK    1  A    between atoms: C_1  and  C_2
REMARK    2  A    between atoms: C_2  and  N_3
REMARK    3  A    between atoms: N_3  and  C_4
REMARK    4  A    between atoms: C_12  and  C_14
REMARK    5  A    between atoms: C_14  and  C_16
REMARK    6  A    between atoms: C_14  and  S_17
REMARK    7  A    between atoms: S_17  and  C_18
REMARK    8  A    between atoms: C_22  and  C_28
REMARK    9  A    between atoms: C_23  and  C_27
REMARK                            x       y       z     vdW  Elec       q    Type
REMARK                         _______ _______ _______ _____ _____    ______ ____
ROOT
ATOM      1  S   UNL     1      -1.347  -1.820   3.936  0.00  0.00    -0.073 S 
ENDROOT
BRANCH   1   2
ATOM      2  C   UNL     1      -0.302  -1.393   5.289  0.00  0.00    +0.192 A 
ATOM      3  N   UNL     1       0.796  -0.680   5.065  0.00  0.00    -0.207 NA
ATOM      4  C   UNL     1       1.617  -0.330   6.040  0.00  0.00    +0.129 A 
ATOM      5  C   UNL     1       1.323  -0.726   7.375  0.00  0.00    +0.050 A 
ATOM      6  C   UNL     1       2.059  -0.470   8.602  0.00  0.00    -0.028 A 
ATOM      7  C   UNL     1       1.586  -0.948   9.761  0.00  0.00    -0.008 A 
ATOM      8  S   UNL     1       0.091  -1.794   9.283  0.00  0.00    -0.073 S 
ATOM      9  C   UNL     1       0.142  -1.482   7.538  0.00  0.00    +0.115 A 
ATOM     10  N   UNL     1      -0.629  -1.786   6.513  0.00  0.00    -0.214 NA
ATOM     11  C   UNL     1       2.177  -0.805  11.140  0.00  0.00    +0.052 C 
ATOM     12  C   UNL     1       3.339   0.325   8.571  0.00  0.00    +0.045 C 
ATOM     13  N   UNL     1       2.751   0.413   5.766  0.00  0.00    -0.343 N 
ATOM     14  H   UNL     1       3.141   0.392   4.878  0.00  0.00    +0.144 HD
ATOM     15  H   UNL     1       3.155   0.955   6.461  0.00  0.00    +0.144 HD
ENDBRANCH   1   2
BRANCH   1  16
ATOM     16  C   UNL     1      -0.521  -1.089   2.496  0.00  0.00    +0.137 C 
ATOM     17  C   UNL     1      -0.523   0.436   2.627  0.00  0.00    +0.029 C 
BRANCH  16  19
ATOM     18  N   UNL     1      -0.584  -1.599   0.077  0.00  0.00    -0.296 N 
ATOM     19  C   UNL     1      -1.254  -1.486   1.241  0.00  0.00    +0.229 C 
ATOM     20  O   UNL     1      -2.446  -1.705   1.278  0.00  0.00    -0.274 OA
BRANCH  18  21
ATOM     21  C   UNL     1      -1.307  -1.923  -1.156  0.00  0.00    +0.098 C 
ATOM     22  C   UNL     1      -2.018  -3.276  -0.991  0.00  0.00    +0.046 C 
ATOM     23  C   UNL     1      -3.017  -3.445  -2.170  0.00  0.00    +0.168 C 
ATOM     24  S   UNL     1      -3.700  -1.738  -2.281  0.00  0.00    -0.029 S 
ATOM     25  O   UNL     1      -4.874  -1.657  -1.484  0.00  0.00    -0.174 OA
ATOM     26  O   UNL     1      -3.755  -1.349  -3.647  0.00  0.00    -0.174 OA
ATOM     27  C   UNL     1      -2.347  -0.814  -1.447  0.00  0.00    +0.188 C 
ENDBRANCH  18  21
BRANCH  18  29
ATOM     28  C   UNL     1       1.174   0.035  -0.395  0.00  0.00    +0.024 C 
ATOM     29  C   UNL     1       0.867  -1.399   0.044  0.00  0.00    +0.105 C 
ENDBRANCH  18  29
ENDBRANCH  16  19
ENDBRANCH   1  16
TORSDOF 5
