REMARK  Name = ZINC41585562
REMARK  7 active torsions:
REMARK  status: ('A' for Active; 'I' for Inactive)
REMARK    1  A    between atoms: C_1  and  C_2
REMARK    2  A    between atoms: C_5  and  C_7
REMARK    3  A    between atoms: C_12  and  C_33
REMARK    4  A    between atoms: C_14  and  O_32
REMARK    5  A    between atoms: C_15  and  C_18
REMARK    6  A    between atoms: C_18  and  N_19
REMARK    7  A    between atoms: N_22  and  C_25
REMARK                            x       y       z     vdW  Elec       q    Type
REMARK                         _______ _______ _______ _____ _____    ______ ____
ROOT
ATOM      1  C   UNL     1       1.617  -3.126   0.034  0.00  0.00    +0.096 C 
ATOM      2  C   UNL     1       2.966  -2.931   0.019  0.00  0.00    +0.179 C 
ATOM      3  C   UNL     1       3.954  -3.953   0.005  0.00  0.00    +0.232 C 
ATOM      4  O   UNL     1       3.772  -5.159   0.004  0.00  0.00    -0.283 OA
ATOM      5  C   UNL     1       5.244  -3.242  -0.008  0.00  0.00    +0.071 A 
ATOM      6  C   UNL     1       6.574  -3.665  -0.024  0.00  0.00    -0.033 A 
ATOM      7  C   UNL     1       7.581  -2.742  -0.032  0.00  0.00    +0.050 A 
ATOM      8  C   UNL     1       7.285  -1.381  -0.025  0.00  0.00    +0.122 A 
ATOM      9  C   UNL     1       5.969  -0.947  -0.009  0.00  0.00    +0.020 A 
ATOM     10  C   UNL     1       4.934  -1.872  -0.000  0.00  0.00    +0.145 A 
ATOM     11  O   UNL     1       3.591  -1.730   0.010  0.00  0.00    -0.451 OA
ATOM     12  C   UNL     1       6.898  -5.137  -0.031  0.00  0.00    +0.045 C 
ENDROOT
BRANCH   1  17
ATOM     13  C   UNL     1      -0.002   1.560   0.041  0.00  0.00    +0.086 C 
ATOM     14  C   UNL     1       0.008   0.053   0.045  0.00  0.00    +0.103 A 
ATOM     15  C   UNL     1      -1.087  -0.740   0.058  0.00  0.00    +0.045 A 
ATOM     16  C   UNL     1      -0.639  -2.068   0.056  0.00  0.00    +0.049 A 
ATOM     17  C   UNL     1       0.742  -2.017   0.041  0.00  0.00    +0.132 A 
ATOM     18  O   UNL     1       1.105  -0.717   0.030  0.00  0.00    -0.460 OA
ENDBRANCH   1  17
BRANCH   8  19
ATOM     19  O   UNL     1       8.293  -0.473  -0.033  0.00  0.00    -0.506 OA
ATOM     20  H   UNL     1       8.576  -0.207  -0.919  0.00  0.00    +0.292 HD
ENDBRANCH   8  19
BRANCH   9  21
ATOM     21  C   UNL     1       5.662   0.528   0.000  0.00  0.00    -0.035 C 
BRANCH  21  22
ATOM     22  N   UNL     1       5.546   1.013  -1.382  0.00  0.00    +0.385 N 
ATOM     23  C   UNL     1       4.396   0.370  -2.030  0.00  0.00    -0.059 C 
ATOM     24  C   UNL     1       4.342   0.786  -3.503  0.00  0.00    +0.086 C 
ATOM     25  N   UNL     1       4.335   2.255  -3.573  0.00  0.00    -0.333 N 
ATOM     26  C   UNL     1       5.360   2.990  -2.816  0.00  0.00    +0.086 C 
ATOM     27  C   UNL     1       5.366   2.470  -1.375  0.00  0.00    -0.059 C 
ATOM     28  H   UNL     1       6.387   0.782  -1.889  0.00  0.00    -0.081 HD
BRANCH  25  29
ATOM     29  C   UNL     1       3.381   2.934  -4.337  0.00  0.00    +0.030 A 
ATOM     30  C   UNL     1       3.320   4.321  -4.301  0.00  0.00    +0.026 A 
ATOM     31  C   UNL     1       2.377   4.990  -5.056  0.00  0.00    +0.040 A 
ATOM     32  C   UNL     1       1.492   4.278  -5.849  0.00  0.00    +0.124 A 
ATOM     33  C   UNL     1       1.551   2.895  -5.886  0.00  0.00    +0.040 A 
ATOM     34  C   UNL     1       2.496   2.223  -5.136  0.00  0.00    +0.026 A 
ATOM     35  F   UNL     1       0.570   4.934  -6.587  0.00  0.00    -0.205 F 
ENDBRANCH  25  29
ENDBRANCH  21  22
ENDBRANCH   9  21
TORSDOF 5
