REMARK  Name = ZINC04698072
REMARK  9 active torsions:
REMARK  status: ('A' for Active; 'I' for Inactive)
REMARK    1  A    between atoms: CB_1  and  CA_2
REMARK    2  A    between atoms: CA_2  and  C_4
REMARK    3  A    between atoms: CA_2  and  N_6
REMARK    4  A    between atoms: C_7  and  C_9
REMARK    5  A    between atoms: C_12  and  C_14
REMARK    6  A    between atoms: C_15  and  C_16
REMARK    7  A    between atoms: C_16  and  C_17
REMARK    8  A    between atoms: C_16  and  C_18
REMARK    9  A    between atoms: C_16  and  O_19
REMARK                            x       y       z     vdW  Elec       q    Type
REMARK                         _______ _______ _______ _____ _____    ______ ____
ROOT
ATOM      1  C   UNK A   0       4.367   5.171   0.481  0.00  0.00    +0.075 A 
ATOM      2  C   UNK A   0       4.914   6.361   0.939  0.00  0.00    +0.022 A 
ATOM      3  C   UNK A   0       6.262   6.551   0.825  0.00  0.00    +0.025 A 
ATOM      4  C   UNK A   0       7.031   5.546   0.256  0.00  0.00    +0.063 A 
ATOM      5  S   UNK A   0       5.807   4.301  -0.117  0.00  0.00    -0.075 S 
ENDROOT
BRANCH   1   7
ATOM      6  N   ALA A   1       2.634   3.529  -0.004  0.00  0.00    -0.298 N 
ATOM      7  C   UNK A   0       2.969   4.736   0.492  0.00  0.00    +0.251 C 
ATOM      8  O   UNK A   0       2.108   5.466   0.950  0.00  0.00    -0.270 OA
ATOM      9  H   ALA A   1       3.320   2.947  -0.369  0.00  0.00    +0.150 HD
BRANCH   6  11
ATOM     10  CB  ALA A   1       0.522   3.639  -1.233  0.00  0.00    +0.040 C 
ATOM     11  CA  ALA A   1       1.235   3.094   0.007  0.00  0.00    +0.183 C 
BRANCH  11  12
ATOM     12  C   ALA A   1       1.177   1.588  -0.001  0.00  0.00    +0.376 C 
ATOM     13  O   ALA A   1       2.199   0.944  -0.014  0.00  0.00    -0.244 OA
ATOM     14  OXT ALA A   1      -0.011   0.963   0.007  0.00  0.00    -0.244 OA
ENDBRANCH  11  12
ENDBRANCH   6  11
ENDBRANCH   1   7
BRANCH   4  15
ATOM     15  C   UNK A   0       8.445   5.513   0.032  0.00  0.00    -0.056 C 
ATOM     16  C   UNK A   0       9.604   5.486  -0.152  0.00  0.00    -0.062 C 
BRANCH  16  17
ATOM     17  C   UNK A   0      11.058   5.452  -0.382  0.00  0.00    +0.121 C 
ATOM     18  C   UNK A   0      11.456   6.608  -1.301  0.00  0.00    +0.055 C 
ATOM     19  C   UNK A   0      11.789   5.587   0.955  0.00  0.00    +0.055 C 
BRANCH  17  20
ATOM     20  O   UNK A   0      11.414   4.211  -0.996  0.00  0.00    -0.377 OA
ATOM     21  H   UNK A   0      11.190   3.433  -0.468  0.00  0.00    +0.211 HD
ENDBRANCH  17  20
ENDBRANCH  16  17
ENDBRANCH   4  15
TORSDOF 6
