REMARK  Name = ZINC00845900
REMARK  4 active torsions:
REMARK  status: ('A' for Active; 'I' for Inactive)
REMARK    1  A    between atoms: C_4  and  C_7
REMARK    2  A    between atoms: C_7  and  N_9
REMARK    3  A    between atoms: N_18  and  C_19
REMARK    4  A    between atoms: C_19  and  C_20
REMARK                            x       y       z     vdW  Elec       q    Type
REMARK                         _______ _______ _______ _____ _____    ______ ____
ROOT
ATOM      1  N   UNL     1       4.122  -2.016  -0.442  0.00  0.00    -0.142 NA
ATOM      2  C   UNL     1       5.179  -2.815  -0.352  0.00  0.00    +0.202 A 
ATOM      3  N   UNL     1       6.475  -2.405  -0.308  0.00  0.00    -0.326 N 
ATOM      4  C   UNL     1       7.286  -3.531  -0.215  0.00  0.00    +0.066 A 
ATOM      5  C   UNL     1       8.661  -3.704  -0.139  0.00  0.00    +0.028 A 
ATOM      6  C   UNL     1       9.190  -4.976  -0.052  0.00  0.00    +0.002 A 
ATOM      7  C   UNL     1       8.355  -6.081  -0.041  0.00  0.00    +0.002 A 
ATOM      8  C   UNL     1       6.986  -5.920  -0.115  0.00  0.00    +0.028 A 
ATOM      9  C   UNL     1       6.444  -4.645  -0.203  0.00  0.00    +0.068 A 
ATOM     10  N   UNL     1       5.138  -4.172  -0.283  0.00  0.00    -0.307 N 
ATOM     11  H   UNL     1       6.782  -1.485  -0.337  0.00  0.00    +0.169 HD
ENDROOT
BRANCH   1  12
ATOM     12  C   UNL     1       4.290  -0.700  -0.606  0.00  0.00    +0.270 C 
ATOM     13  O   UNL     1       5.410  -0.220  -0.577  0.00  0.00    -0.268 OA
BRANCH  12  17
ATOM     14  C   UNL     1       0.919   1.812  -1.230  0.00  0.00    +0.000 A 
ATOM     15  C   UNL     1       2.189   2.360  -1.197  0.00  0.00    +0.001 A 
ATOM     16  C   UNL     1       3.288   1.549  -0.995  0.00  0.00    +0.013 A 
ATOM     17  C   UNL     1       3.115   0.176  -0.823  0.00  0.00    +0.039 A 
ATOM     18  C   UNL     1       1.832  -0.370  -0.857  0.00  0.00    +0.013 A 
ATOM     19  C   UNL     1       0.742   0.451  -1.060  0.00  0.00    +0.001 A 
ENDBRANCH  12  17
ENDBRANCH   1  12
BRANCH  10  20
ATOM     20  C   UNL     1       3.926  -4.996  -0.295  0.00  0.00    +0.161 C 
BRANCH  20  21
ATOM     21  C   UNL     1       3.548  -5.354   1.119  0.00  0.00    -0.009 A 
ATOM     22  C   UNL     1       3.936  -6.569   1.652  0.00  0.00    +0.007 A 
ATOM     23  C   UNL     1       3.589  -6.897   2.949  0.00  0.00    +0.000 A 
ATOM     24  C   UNL     1       2.854  -6.010   3.714  0.00  0.00    +0.001 A 
ATOM     25  C   UNL     1       2.466  -4.795   3.183  0.00  0.00    +0.020 A 
ATOM     26  C   UNL     1       2.818  -4.464   1.886  0.00  0.00    +0.046 A 
ATOM     27 CL   UNL     1       2.336  -2.935   1.219  0.00  0.00    -0.083 Cl
ENDBRANCH  20  21
ENDBRANCH  10  20
TORSDOF 4
