REMARK  Name = ZINC39934739
REMARK  11 active torsions:
REMARK  status: ('A' for Active; 'I' for Inactive)
REMARK    1  A    between atoms: C_1  and  C_2
REMARK    2  A    between atoms: C_4  and  C_16
REMARK    3  A    between atoms: C_6  and  C_14
REMARK    4  A    between atoms: C_7  and  N_13
REMARK    5  A    between atoms: C_18  and  O_29
REMARK    6  A    between atoms: C_19  and  O_23
REMARK    7  A    between atoms: O_23  and  C_24
REMARK    8  A    between atoms: C_24  and  C_25
REMARK    9  A    between atoms: C_25  and  O_27
REMARK   10  A    between atoms: O_27  and  C_28
REMARK   11  A    between atoms: O_29  and  C_30
REMARK                            x       y       z     vdW  Elec       q    Type
REMARK                         _______ _______ _______ _____ _____    ______ ____
ROOT
ATOM      1  C   UNL     1      -0.018   1.503   0.010  0.00  0.00    +0.067 C 
ATOM      2  C   UNL     1       0.002  -0.004   0.002  0.00  0.00    +0.066 C 
ATOM      3  C   UNL     1      -1.064  -0.768   0.003  0.00  0.00    +0.030 C 
ATOM      4  C   UNL     1      -2.537  -0.492  -0.122  0.00  0.00    +0.099 C 
ATOM      5  C   UNL     1      -3.075  -1.565  -1.050  0.00  0.00    +0.097 C 
ATOM      6  C   UNL     1      -2.317  -2.612  -1.438  0.00  0.00    +0.195 C 
ATOM      7  O   UNL     1      -1.033  -2.841  -1.107  0.00  0.00    -0.448 OA
ATOM      8  C   UNL     1      -0.528  -2.199   0.066  0.00  0.00    +0.343 C 
ATOM      9  N   UNL     1       0.921  -1.985   0.002  0.00  0.00    -0.138 NA
ATOM     10  N   UNL     1       1.127  -0.765  -0.013  0.00  0.00    -0.155 NA
ENDROOT
BRANCH   4  11
ATOM     11  C   UNL     1      -3.201  -0.585   1.227  0.00  0.00    -0.017 A 
ATOM     12  C   UNL     1      -3.148  -1.767   1.942  0.00  0.00    +0.055 A 
ATOM     13  C   UNL     1      -3.758  -1.854   3.183  0.00  0.00    +0.162 A 
ATOM     14  C   UNL     1      -4.423  -0.750   3.708  0.00  0.00    +0.164 A 
ATOM     15  C   UNL     1      -4.472   0.432   2.987  0.00  0.00    +0.065 A 
ATOM     16  C   UNL     1      -3.857   0.514   1.751  0.00  0.00    +0.026 A 
ATOM     17 BR   UNL     1      -3.920   2.131   0.771  0.00  0.00    -0.050 Br
BRANCH  13  18
ATOM     18  O   UNL     1      -3.707  -3.017   3.887  0.00  0.00    -0.491 OA
ATOM     19  C   UNL     1      -3.007  -4.109   3.286  0.00  0.00    +0.277 C 
ENDBRANCH  13  18
BRANCH  14  20
ATOM     20  O   UNL     1      -5.023  -0.831   4.926  0.00  0.00    -0.477 OA
BRANCH  20  21
ATOM     21  C   UNL     1      -5.687   0.341   5.401  0.00  0.00    +0.349 C 
BRANCH  21  22
ATOM     22  C   UNL     1      -6.287   0.064   6.755  0.00  0.00    +0.345 C 
ATOM     23  O   UNL     1      -6.160  -1.026   7.261  0.00  0.00    -0.247 OA
BRANCH  22  24
ATOM     24  O   UNL     1      -6.964   1.028   7.399  0.00  0.00    -0.466 OA
ATOM     25  C   UNL     1      -7.506   0.696   8.679  0.00  0.00    +0.280 C 
ENDBRANCH  22  24
ENDBRANCH  21  22
ENDBRANCH  20  21
ENDBRANCH  14  20
ENDBRANCH   4  11
BRANCH   6  26
ATOM     26  N   UNL     1      -2.917  -3.538  -2.254  0.00  0.00    -0.329 N 
ATOM     27  H   UNL     1      -3.842  -3.421  -2.523  0.00  0.00    +0.145 HD
ATOM     28  H   UNL     1      -2.417  -4.310  -2.562  0.00  0.00    +0.145 HD
ENDBRANCH   6  26
BRANCH   5  29
ATOM     29  C   UNL     1      -4.422  -1.466  -1.525  0.00  0.00    +0.101 C 
ATOM     30  N   UNL     1      -5.491  -1.387  -1.903  0.00  0.00    -0.191 NA
ENDBRANCH   5  29
TORSDOF 8
