REMARK  Name = ZINC20806521
REMARK  5 active torsions:
REMARK  status: ('A' for Active; 'I' for Inactive)
REMARK    1  A    between atoms: C_6  and  C_7
REMARK    2  A    between atoms: N_12  and  C_13
REMARK    3  A    between atoms: C_13  and  C_14
REMARK    4  A    between atoms: N_16  and  C_17
REMARK    5  A    between atoms: C_18  and  C_27
REMARK                            x       y       z     vdW  Elec       q    Type
REMARK                         _______ _______ _______ _____ _____    ______ ____
ROOT
ATOM      1  C   UNL     1      -1.565   2.817   0.682  0.00  0.00    -0.037 C 
ATOM      2  C   UNL     1      -0.778   1.605   1.246  0.00  0.00    -0.013 C 
ATOM      3  C   UNL     1      -0.013   1.086   0.008  0.00  0.00    -0.020 C 
ATOM      4  C   UNL     1      -0.799   1.616  -1.205  0.00  0.00    -0.077 C 
ATOM      5  N   UNL     1      -1.960   2.365  -0.676  0.00  0.00    +0.390 N 
ATOM      6  H   UNL     1      -2.865   1.740  -0.653  0.00  0.00    -0.080 HD
ENDROOT
BRANCH   1  12
ATOM      7  C   UNL     1      -3.882   2.263   1.447  0.00  0.00    +0.006 A 
ATOM      8  C   UNL     1      -5.004   2.515   2.216  0.00  0.00    +0.049 A 
ATOM      9  C   UNL     1      -5.023   3.610   3.064  0.00  0.00    +0.162 A 
ATOM     10  C   UNL     1      -3.920   4.449   3.140  0.00  0.00    +0.162 A 
ATOM     11  C   UNL     1      -2.797   4.190   2.374  0.00  0.00    +0.051 A 
ATOM     12  C   UNL     1      -2.784   3.099   1.523  0.00  0.00    -0.057 A 
ATOM     13  O   UNL     1      -3.949   5.526   3.978  0.00  0.00    -0.488 OA
ATOM     14  C   UNL     1      -3.952   5.229   5.376  0.00  0.00    +0.232 C 
ATOM     15  C   UNL     1      -5.365   4.952   5.865  0.00  0.00    +0.082 C 
ATOM     16  C   UNL     1      -5.960   3.701   5.237  0.00  0.00    +0.232 C 
ATOM     17  O   UNL     1      -6.124   3.871   3.827  0.00  0.00    -0.488 OA
ENDBRANCH   1  12
BRANCH   5  18
ATOM     18  C   UNL     1      -2.285   3.509  -1.538  0.00  0.00    +0.020 C 
BRANCH  18  19
ATOM     19  C   UNL     1      -2.849   3.010  -2.844  0.00  0.00    +0.201 C 
ATOM     20  O   UNL     1      -2.968   1.819  -3.037  0.00  0.00    -0.278 OA
ATOM     21  N   UNL     1      -3.221   3.888  -3.796  0.00  0.00    -0.281 N 
ATOM     22  H   UNL     1      -3.114   4.968  -3.621  0.00  0.00    +0.155 HD
BRANCH  21  23
ATOM     23  C   UNL     1      -3.741   3.429  -4.999  0.00  0.00    +0.090 A 
ATOM     24  C   UNL     1      -4.174   4.167  -6.087  0.00  0.00    +0.084 A 
ATOM     25  C   UNL     1      -4.679   3.439  -7.243  0.00  0.00    -0.018 A 
ATOM     26  C   UNL     1      -4.676   2.095  -7.115  0.00  0.00    -0.004 A 
ATOM     27  S   UNL     1      -3.997   1.793  -5.506  0.00  0.00    -0.077 S 
ATOM     28  C   UNL     1      -5.140   1.078  -8.110  0.00  0.00    +0.043 C 
ATOM     29  C   UNL     1      -4.525   1.395  -9.480  0.00  0.00    +0.005 C 
ATOM     30  C   UNL     1      -5.464   2.339 -10.225  0.00  0.00    +0.001 C 
ATOM     31  C   UNL     1      -6.170   3.265  -9.237  0.00  0.00    +0.005 C 
ATOM     32  C   UNL     1      -5.157   4.141  -8.508  0.00  0.00    +0.037 C 
BRANCH  24  33
ATOM     33  C   UNL     1      -4.129   5.598  -6.076  0.00  0.00    +0.102 C 
ATOM     34  N   UNL     1      -4.093   6.734  -6.068  0.00  0.00    -0.191 NA
ENDBRANCH  24  33
ENDBRANCH  21  23
ENDBRANCH  18  19
ENDBRANCH   5  18
TORSDOF 5
