REMARK  Name = ZINC33058420
REMARK  12 active torsions:
REMARK  status: ('A' for Active; 'I' for Inactive)
REMARK    1  A    between atoms: C_1  and  C_2
REMARK    2  A    between atoms: C_5  and  C_9
REMARK    3  A    between atoms: C_6  and  C_8
REMARK    4  A    between atoms: C_9  and  C_11
REMARK    5  A    between atoms: C_12  and  N_35
REMARK    6  A    between atoms: C_13  and  S_24
REMARK    7  A    between atoms: C_14  and  N_16
REMARK    8  A    between atoms: N_16  and  C_17
REMARK    9  A    between atoms: C_22  and  C_23
REMARK   10  A    between atoms: S_24  and  C_27
REMARK   11  A    between atoms: C_30  and  O_33
REMARK   12  A    between atoms: O_33  and  C_34
REMARK                            x       y       z     vdW  Elec       q    Type
REMARK                         _______ _______ _______ _____ _____    ______ ____
ROOT
ATOM      1  C   UNL     1       1.372   2.266   0.336  0.00  0.00    +0.084 A 
ATOM      2  C   UNL     1       0.084   1.792   0.053  0.00  0.00    +0.070 A 
ATOM      3  C   UNL     1      -0.055   0.482  -0.329  0.00  0.00    +0.143 A 
ATOM      4  C   UNL     1       1.073  -0.311  -0.418  0.00  0.00    +0.098 A 
ATOM      5  S   UNL     1       2.375   0.817   0.049  0.00  0.00    -0.066 S 
ENDROOT
BRANCH   3   6
ATOM      6  S   UNL     1      -1.646  -0.179  -0.700  0.00  0.00    +0.029 S 
ATOM      7  O   UNL     1      -2.356   0.838  -1.394  0.00  0.00    -0.164 OA
ATOM      8  O   UNL     1      -1.430  -1.470  -1.252  0.00  0.00    -0.164 OA
BRANCH   6   9
ATOM      9  C   UNL     1      -2.481  -0.419   0.833  0.00  0.00    +0.094 A 
ATOM     10  C   UNL     1      -2.367  -1.625   1.499  0.00  0.00    +0.031 A 
ATOM     11  C   UNL     1      -3.016  -1.814   2.704  0.00  0.00    +0.047 A 
ATOM     12  C   UNL     1      -3.792  -0.795   3.240  0.00  0.00    +0.120 A 
ATOM     13  C   UNL     1      -3.908   0.412   2.567  0.00  0.00    +0.047 A 
ATOM     14  C   UNL     1      -3.253   0.598   1.365  0.00  0.00    +0.031 A 
BRANCH  12  15
ATOM     15  O   UNL     1      -4.435  -0.980   4.422  0.00  0.00    -0.495 OA
ATOM     16  C   UNL     1      -4.270  -2.249   5.060  0.00  0.00    +0.277 C 
ENDBRANCH  12  15
ENDBRANCH   6   9
ENDBRANCH   3   6
BRANCH   2  17
ATOM     17  N   UNL     1      -1.022   2.629   0.151  0.00  0.00    -0.355 N 
ATOM     18  H   UNL     1      -2.026   2.242  -0.075  0.00  0.00    +0.142 HD
ATOM     19  H   UNL     1      -0.892   3.679   0.454  0.00  0.00    +0.142 HD
ENDBRANCH   2  17
BRANCH   1  20
ATOM     20  C   UNL     1       1.772   3.551   0.740  0.00  0.00    +0.202 C 
ATOM     21  O   UNL     1       0.934   4.409   0.964  0.00  0.00    -0.286 OA
BRANCH  20  26
ATOM     22  C   UNL     1       7.366   4.770   1.341  0.00  0.00    +0.044 C 
ATOM     23  C   UNL     1       5.901   4.451   1.184  0.00  0.00    -0.050 A 
ATOM     24  C   UNL     1       5.199   4.952   0.102  0.00  0.00    +0.004 A 
ATOM     25  C   UNL     1       3.860   4.659  -0.051  0.00  0.00    +0.012 A 
ATOM     26  C   UNL     1       3.211   3.865   0.895  0.00  0.00    +0.026 A 
ATOM     27  C   UNL     1       3.924   3.362   1.983  0.00  0.00    -0.039 A 
ATOM     28  C   UNL     1       5.265   3.658   2.122  0.00  0.00    +0.007 A 
ATOM     29  C   UNL     1       3.232   2.499   3.006  0.00  0.00    +0.044 C 
ENDBRANCH  20  26
ENDBRANCH   1  20
BRANCH   4  30
ATOM     30  N   UNL     1       1.169  -1.643  -0.778  0.00  0.00    -0.307 N 
ATOM     31  H   UNL     1       0.257  -2.238  -0.933  0.00  0.00    +0.153 HD
BRANCH  30  32
ATOM     32  C   UNL     1       2.425  -2.232  -0.947  0.00  0.00    +0.035 A 
ATOM     33  C   UNL     1       3.491  -1.476  -1.416  0.00  0.00    +0.023 A 
ATOM     34  C   UNL     1       4.731  -2.062  -1.581  0.00  0.00    +0.002 A 
ATOM     35  C   UNL     1       4.911  -3.400  -1.279  0.00  0.00    +0.000 A 
ATOM     36  C   UNL     1       3.852  -4.155  -0.811  0.00  0.00    +0.005 A 
ATOM     37  C   UNL     1       2.611  -3.574  -0.639  0.00  0.00    -0.029 A 
ATOM     38  C   UNL     1       1.458  -4.397  -0.124  0.00  0.00    +0.045 C 
ENDBRANCH  30  32
ENDBRANCH   4  30
TORSDOF 8
