REMARK  Name = ZINC20780940
REMARK  8 active torsions:
REMARK  status: ('A' for Active; 'I' for Inactive)
REMARK    1  A    between atoms: C_4  and  C_7
REMARK    2  A    between atoms: C_7  and  C_8
REMARK    3  A    between atoms: C_8  and  C_9
REMARK    4  A    between atoms: C_9  and  C_11
REMARK    5  A    between atoms: C_9  and  O_33
REMARK    6  A    between atoms: N_14  and  C_17
REMARK    7  A    between atoms: C_17  and  C_18
REMARK    8  A    between atoms: C_23  and  C_24
REMARK                            x       y       z     vdW  Elec       q    Type
REMARK                         _______ _______ _______ _____ _____    ______ ____
ROOT
ATOM      1  C   UNL     1       0.437  -1.667   2.814  0.00  0.00    +0.014 C 
ATOM      2  C   UNL     1       1.575  -1.352   3.789  0.00  0.00    -0.013 C 
ATOM      3  C   UNL     1       1.332  -2.095   5.106  0.00  0.00    -0.078 C 
ATOM      4  N   UNL     1       1.266  -3.539   4.850  0.00  0.00    +0.382 N 
ATOM      5  C   UNL     1       0.150  -3.870   3.954  0.00  0.00    -0.078 C 
ATOM      6  C   UNL     1       0.358  -3.182   2.603  0.00  0.00    -0.013 C 
ATOM      7  H   UNL     1       2.198  -3.834   4.347  0.00  0.00    -0.081 HD
ENDROOT
BRANCH   1   8
ATOM      8  C   UNL     1       0.705  -0.978   1.475  0.00  0.00    +0.118 C 
BRANCH   8   9
ATOM      9  O   UNL     1       1.941  -1.450   0.936  0.00  0.00    -0.392 OA
ATOM     10  H   UNL     1       2.072  -2.519   0.715  0.00  0.00    +0.210 HD
ENDBRANCH   8   9
BRANCH   8  11
ATOM     11  C   UNL     1       0.787   0.535   1.688  0.00  0.00    +0.036 C 
BRANCH  11  12
ATOM     12  C   UNL     1       0.931   1.234   0.334  0.00  0.00    +0.037 C 
BRANCH  12  16
ATOM     13  C   UNL     1       1.158   5.458   0.928  0.00  0.00    +0.000 A 
ATOM     14  C   UNL     1       2.313   4.698   0.919  0.00  0.00    +0.000 A 
ATOM     15  C   UNL     1       2.239   3.331   0.727  0.00  0.00    +0.003 A 
ATOM     16  C   UNL     1       1.011   2.724   0.544  0.00  0.00    -0.047 A 
ATOM     17  C   UNL     1      -0.143   3.485   0.547  0.00  0.00    +0.003 A 
ATOM     18  C   UNL     1      -0.070   4.851   0.744  0.00  0.00    +0.000 A 
ENDBRANCH  12  16
ENDBRANCH  11  12
ENDBRANCH   8  11
ENDBRANCH   1   8
BRANCH   4  19
ATOM     19  C   UNL     1       1.171  -4.292   6.108  0.00  0.00    -0.039 C 
BRANCH  19  20
ATOM     20  C   UNL     1       2.274  -3.857   7.038  0.00  0.00    -0.016 A 
ATOM     21  C   UNL     1       2.132  -3.074   8.129  0.00  0.00    +0.107 A 
ATOM     22  N   UNL     1       3.349  -2.917   8.693  0.00  0.00    -0.284 N 
ATOM     23  H   UNL     1       3.459  -2.313   9.606  0.00  0.00    +0.188 HD
ATOM     24  N   UNL     1       4.282  -3.620   7.921  0.00  0.00    -0.171 NA
ATOM     25  C   UNL     1       3.640  -4.189   6.920  0.00  0.00    +0.129 A 
BRANCH  25  26
ATOM     26  C   UNL     1       4.243  -5.028   5.863  0.00  0.00    +0.156 A 
ATOM     27  C   UNL     1       5.427  -4.779   5.253  0.00  0.00    +0.060 A 
ATOM     28  C   UNL     1       5.620  -5.862   4.285  0.00  0.00    +0.021 A 
ATOM     29  C   UNL     1       6.620  -6.177   3.364  0.00  0.00    +0.011 A 
ATOM     30  C   UNL     1       6.496  -7.293   2.585  0.00  0.00    +0.001 A 
ATOM     31  C   UNL     1       5.384  -8.114   2.704  0.00  0.00    +0.004 A 
ATOM     32  C   UNL     1       4.386  -7.819   3.609  0.00  0.00    +0.047 A 
ATOM     33  C   UNL     1       4.490  -6.689   4.410  0.00  0.00    +0.136 A 
ATOM     34  O   UNL     1       3.701  -6.157   5.365  0.00  0.00    -0.453 OA
ENDBRANCH  25  26
ENDBRANCH  19  20
ENDBRANCH   4  19
TORSDOF 8
