REMARK  Name = ZINC04083421
REMARK  9 active torsions:
REMARK  status: ('A' for Active; 'I' for Inactive)
REMARK    1  A    between atoms: C_1  and  C_2
REMARK    2  A    between atoms: C_2  and  O_4
REMARK    3  A    between atoms: O_4  and  C_5
REMARK    4  A    between atoms: C_11  and  C_37
REMARK    5  A    between atoms: C_19  and  O_36
REMARK    6  A    between atoms: C_23  and  C_35
REMARK    7  A    between atoms: N_28  and  O_34
REMARK    8  A    between atoms: C_29  and  C_32
REMARK    9  A    between atoms: C_29  and  C_33
REMARK                            x       y       z     vdW  Elec       q    Type
REMARK                         _______ _______ _______ _____ _____    ______ ____
ROOT
ATOM      1  C   UNL     1      -4.323   1.409  -0.199  0.00  0.00    +0.183 C 
ATOM      2  C   UNL     1      -4.494   1.292  -1.734  0.00  0.00    +0.045 C 
ATOM      3  C   UNL     1      -3.076   1.457  -2.347  0.00  0.00    +0.008 C 
ATOM      4  C   UNL     1      -2.155   1.043  -1.195  0.00  0.00    +0.002 C 
ATOM      5  C   UNL     1      -2.839   1.704   0.033  0.00  0.00    +0.008 C 
ATOM      6  C   UNL     1      -2.200   1.121   1.278  0.00  0.00    +0.011 C 
ATOM      7  C   UNL     1      -0.728   1.562   1.268  0.00  0.00    +0.005 C 
ATOM      8  C   UNL     1      -0.013   1.086   0.008  0.00  0.00    -0.001 C 
ATOM      9  C   UNL     1      -0.737   1.579  -1.254  0.00  0.00    -0.001 C 
ATOM     10  C   UNL     1      -0.016   1.043  -2.491  0.00  0.00    +0.035 C 
ATOM     11  C   UNL     1       1.427   1.550  -2.500  0.00  0.00    +0.119 C 
ATOM     12  C   UNL     1       2.147   1.059  -1.242  0.00  0.00    +0.028 C 
ATOM     13  C   UNL     1       1.428   1.599  -0.003  0.00  0.00    -0.024 C 
ATOM     14  C   UNL     1       2.151   1.112   1.255  0.00  0.00    +0.011 C 
ATOM     15  C   UNL     1       2.129  -0.418   1.292  0.00  0.00    +0.054 C 
ATOM     16  C   UNL     1       2.830  -0.969   0.050  0.00  0.00    +0.146 C 
ATOM     17  C   UNL     1       2.127  -0.471  -1.212  0.00  0.00    +0.060 C 
ATOM     18  N   UNL     1       2.805  -2.444   0.082  0.00  0.00    -0.152 NA
ATOM     19  C   UNL     1       4.224  -2.875   0.119  0.00  0.00    +0.068 C 
ATOM     20  C   UNL     1       4.949  -1.615   0.654  0.00  0.00    +0.186 C 
ATOM     21  O   UNL     1       4.200  -0.540   0.040  0.00  0.00    -0.355 OA
ATOM     22  C   UNL     1       4.407  -4.054   1.078  0.00  0.00    +0.032 C 
ATOM     23  C   UNL     1       4.720  -3.232  -1.283  0.00  0.00    +0.032 C 
ATOM     24  C   UNL     1       1.426   3.129  -0.038  0.00  0.00    +0.012 C 
ATOM     25  C   UNL     1      -2.615   3.217  -0.003  0.00  0.00    +0.015 C 
ENDROOT
BRANCH  18  26
ATOM     26  O   UNL     1       2.124  -2.981  -1.097  0.00  0.00    -0.309 OA
ATOM     27  H   UNL     1       1.202  -3.098  -0.904  0.00  0.00    +0.237 HD
ENDBRANCH  18  26
BRANCH  11  28
ATOM     28  O   UNL     1       2.100   1.053  -3.659  0.00  0.00    -0.391 OA
ATOM     29  H   UNL     1       1.698   1.326  -4.495  0.00  0.00    +0.210 HD
ENDBRANCH  11  28
BRANCH   1  30
ATOM     30  O   UNL     1      -5.148   2.485   0.319  0.00  0.00    -0.461 OA
BRANCH  30  32
ATOM     31  C   UNL     1      -7.301   3.228   1.272  0.00  0.00    +0.136 C 
ATOM     32  C   UNL     1      -6.387   2.163   0.723  0.00  0.00    +0.304 C 
ATOM     33  O   UNL     1      -6.769   1.019   0.647  0.00  0.00    -0.251 OA
ENDBRANCH  30  32
ENDBRANCH   1  30
TORSDOF 4
