REMARK  Name = ZINC12052887
REMARK  6 active torsions:
REMARK  status: ('A' for Active; 'I' for Inactive)
REMARK    1  A    between atoms: C_1  and  C_2
REMARK    2  A    between atoms: C_10  and  C_13
REMARK    3  A    between atoms: C_18  and  C_19
REMARK    4  A    between atoms: C_18  and  N_64
REMARK    5  A    between atoms: N_24  and  C_29
REMARK    6  A    between atoms: C_26  and  C_28
REMARK                            x       y       z     vdW  Elec       q    Type
REMARK                         _______ _______ _______ _____ _____    ______ ____
ROOT
ATOM      1  C   UNL     1      -5.964   7.888   3.130  0.00  0.00    +0.044 C 
ATOM      2  C   UNL     1      -4.830   7.117   2.506  0.00  0.00    -0.050 A 
ATOM      3  C   UNL     1      -3.977   6.376   3.304  0.00  0.00    +0.007 A 
ATOM      4  C   UNL     1      -2.941   5.659   2.737  0.00  0.00    +0.046 A 
ATOM      5  C   UNL     1      -2.759   5.687   1.361  0.00  0.00    +0.123 A 
ATOM      6  C   UNL     1      -3.601   6.445   0.570  0.00  0.00    -0.022 A 
ATOM      7  C   UNL     1      -4.642   7.152   1.135  0.00  0.00    +0.008 A 
ATOM      8  C   UNL     1      -3.352   6.518  -0.924  0.00  0.00    -0.038 C 
ATOM      9  C   UNL     1      -2.490   4.296  -1.423  0.00  0.00    -0.028 C 
ATOM     10  C   UNL     1      -2.179   3.854  -0.010  0.00  0.00    +0.188 C 
ATOM     11  O   UNL     1      -1.756   4.966   0.789  0.00  0.00    -0.486 OA
ATOM     12  N   UNL     1      -3.665   5.189  -1.502  0.00  0.00    +0.391 N 
ATOM     13  H   UNL     1      -4.434   4.770  -0.967  0.00  0.00    -0.080 HD
ENDROOT
BRANCH  10  14
ATOM     14  C   UNL     1      -1.081   2.822  -0.043  0.00  0.00    -0.002 A 
ATOM     15  C   UNL     1      -1.387   1.474  -0.077  0.00  0.00    +0.015 A 
ATOM     16  C   UNL     1      -0.376   0.571  -0.102  0.00  0.00    +0.045 A 
ATOM     17  S   UNL     1       1.063   1.628  -0.090  0.00  0.00    -0.105 S 
ATOM     18  C   UNL     1       0.220   3.201  -0.046  0.00  0.00    +0.052 A 
ENDBRANCH  10  14
BRANCH  12  19
ATOM     19  C   UNL     1      -4.086   5.338  -2.905  0.00  0.00    +0.019 C 
BRANCH  19  20
ATOM     20  C   UNL     1      -5.423   6.032  -2.930  0.00  0.00    +0.199 C 
ATOM     21  O   UNL     1      -5.945   6.381  -1.892  0.00  0.00    -0.278 OA
ATOM     22  N   UNL     1      -6.040   6.265  -4.105  0.00  0.00    -0.297 N 
ATOM     23  C   UNL     1      -5.371   5.967  -5.381  0.00  0.00    +0.127 C 
ATOM     24  C   UNL     1      -6.321   5.112  -6.234  0.00  0.00    +0.124 C 
ATOM     25  N   UNL     1      -7.613   5.800  -6.358  0.00  0.00    -0.327 N 
ATOM     26  C   UNL     1      -8.265   5.947  -5.050  0.00  0.00    +0.127 C 
ATOM     27  C   UNL     1      -7.397   6.831  -4.147  0.00  0.00    +0.090 C 
ATOM     28  C   UNL     1      -7.986   6.859  -2.735  0.00  0.00    +0.029 C 
BRANCH  25  29
ATOM     29  C   UNL     1      -8.448   5.138  -7.261  0.00  0.00    +0.030 A 
ATOM     30  C   UNL     1      -9.709   4.714  -6.862  0.00  0.00    +0.023 A 
ATOM     31  C   UNL     1     -10.534   4.065  -7.759  0.00  0.00    +0.002 A 
ATOM     32  C   UNL     1     -10.102   3.827  -9.051  0.00  0.00    +0.000 A 
ATOM     33  C   UNL     1      -8.845   4.243  -9.450  0.00  0.00    +0.002 A 
ATOM     34  C   UNL     1      -8.017   4.897  -8.559  0.00  0.00    +0.023 A 
ENDBRANCH  25  29
ENDBRANCH  19  20
ENDBRANCH  12  19
TORSDOF 4
