REMARK  Name = ZINC01245440
REMARK  17 active torsions:
REMARK  status: ('A' for Active; 'I' for Inactive)
REMARK    1  A    between atoms: C_1  and  C_2
REMARK    2  A    between atoms: C_2  and  O_3
REMARK    3  A    between atoms: O_3  and  C_4
REMARK    4  A    between atoms: C_6  and  C_14
REMARK    5  A    between atoms: C_9  and  O_10
REMARK    6  A    between atoms: O_10  and  C_11
REMARK    7  A    between atoms: C_11  and  C_12
REMARK    8  A    between atoms: C_11  and  C_13
REMARK    9  A    between atoms: C_23  and  C_31
REMARK   10  A    between atoms: C_24  and  N_30
REMARK   11  A    between atoms: C_25  and  C_26
REMARK   12  A    between atoms: C_25  and  C_28
REMARK   13  A    between atoms: C_33  and  O_35
REMARK   14  A    between atoms: O_35  and  C_36
REMARK   15  A    between atoms: C_36  and  C_37
REMARK   16  A    between atoms: C_36  and  C_38
REMARK   17  A    between atoms: C_36  and  C_39
REMARK                            x       y       z     vdW  Elec       q    Type
REMARK                         _______ _______ _______ _____ _____    ______ ____
ROOT
ATOM      1  C   UNL     1       3.611  -0.879  -0.033  0.00  0.00    +0.068 C 
ATOM      2  C   UNL     1       4.356  -0.665   1.285  0.00  0.00    +0.048 C 
ATOM      3  C   UNL     1       3.676  -1.359   2.442  0.00  0.00    +0.120 C 
ATOM      4  N   UNL     1       2.989  -0.397   3.311  0.00  0.00    -0.263 N 
ATOM      5  C   UNL     1       3.777   0.747   3.805  0.00  0.00    +0.138 C 
ATOM      6  C   UNL     1       4.332   1.456   2.596  0.00  0.00    -0.003 C 
ATOM      7  C   UNL     1       4.569   0.807   1.473  0.00  0.00    -0.026 C 
ATOM      8  C   UNL     1       5.071   1.564   0.294  0.00  0.00    +0.074 C 
ATOM      9  C   UNL     1       5.015   0.991  -0.934  0.00  0.00    +0.054 C 
ATOM     10  C   UNL     1       4.493  -0.392  -1.184  0.00  0.00    +0.188 C 
ATOM     11  C   UNL     1       1.692  -0.553   3.643  0.00  0.00    +0.404 C 
ATOM     12  O   UNL     1       1.067  -1.506   3.222  0.00  0.00    -0.226 OA
ENDROOT
BRANCH   1  15
ATOM     13  C   UNL     1       1.148   1.972  -0.306  0.00  0.00    +0.162 A 
ATOM     14  C   UNL     1       2.332   1.252  -0.319  0.00  0.00    +0.053 A 
ATOM     15  C   UNL     1       2.323  -0.097  -0.018  0.00  0.00    -0.037 A 
ATOM     16  C   UNL     1       1.135  -0.731   0.297  0.00  0.00    +0.008 A 
ATOM     17  C   UNL     1      -0.049  -0.018   0.312  0.00  0.00    +0.050 A 
ATOM     18  C   UNL     1      -0.048   1.335   0.011  0.00  0.00    +0.162 A 
BRANCH  13  19
ATOM     19  O   UNL     1       1.155   3.300  -0.601  0.00  0.00    -0.489 OA
BRANCH  19  21
ATOM     20  C   UNL     1       2.227   5.375  -1.220  0.00  0.00    +0.048 C 
ATOM     21  C   UNL     1       2.418   3.888  -0.917  0.00  0.00    +0.226 C 
ENDBRANCH  19  21
ENDBRANCH  13  19
BRANCH  18  22
ATOM     22  O   UNL     1      -1.211   2.038   0.032  0.00  0.00    -0.486 OA
BRANCH  22  23
ATOM     23  C   UNL     1      -2.407   1.307   0.309  0.00  0.00    +0.167 C 
ATOM     24  C   UNL     1      -3.465   2.256   0.877  0.00  0.00    +0.051 C 
ATOM     25  C   UNL     1      -2.930   0.676  -0.983  0.00  0.00    +0.051 C 
ENDBRANCH  22  23
ENDBRANCH  18  22
ENDBRANCH   1  15
BRANCH   9  26
ATOM     26  N   UNL     1       5.460   1.715  -2.005  0.00  0.00    -0.358 N 
ATOM     27  H   UNL     1       5.428   1.280  -3.014  0.00  0.00    +0.142 HD
ATOM     28  H   UNL     1       5.849   2.733  -1.856  0.00  0.00    +0.142 HD
ENDBRANCH   9  26
BRANCH  10  29
ATOM     29  C   UNL     1       5.630  -1.313  -1.341  0.00  0.00    +0.091 C 
ATOM     30  N   UNL     1       6.508  -2.024  -1.462  0.00  0.00    -0.194 NA
ENDBRANCH  10  29
BRANCH  10  31
ATOM     31  C   UNL     1       3.704  -0.390  -2.426  0.00  0.00    +0.091 C 
ATOM     32  N   UNL     1       3.095  -0.388  -3.385  0.00  0.00    -0.194 NA
ENDBRANCH  10  31
BRANCH   8  33
ATOM     33  C   UNL     1       5.606   2.883   0.454  0.00  0.00    +0.101 C 
ATOM     34  N   UNL     1       6.031   3.929   0.581  0.00  0.00    -0.191 NA
ENDBRANCH   8  33
BRANCH  11  35
ATOM     35  O   UNL     1       1.090   0.347   4.443  0.00  0.00    -0.445 OA
BRANCH  35  36
ATOM     36  C   UNL     1      -0.308   0.116   4.759  0.00  0.00    +0.107 C 
ATOM     37  C   UNL     1      -0.454  -1.230   5.472  0.00  0.00    +0.055 C 
ATOM     38  C   UNL     1      -0.816   1.234   5.671  0.00  0.00    +0.055 C 
ATOM     39  C   UNL     1      -1.128   0.100   3.467  0.00  0.00    +0.055 C 
ENDBRANCH  35  36
ENDBRANCH  11  35
TORSDOF 11
