REMARK  Name = ZINC63340954
REMARK  5 active torsions:
REMARK  status: ('A' for Active; 'I' for Inactive)
REMARK    1  A    between atoms: C_3  and  C_6
REMARK    2  A    between atoms: C_8  and  C_11
REMARK    3  A    between atoms: C_11  and  N_12
REMARK    4  A    between atoms: C_13  and  C_15
REMARK    5  A    between atoms: C_20  and  C_21
REMARK                            x       y       z     vdW  Elec       q    Type
REMARK                         _______ _______ _______ _____ _____    ______ ____
ROOT
ATOM      1  N   UNL     1       6.958  -1.628  -1.459  0.00  0.00    -0.304 N 
ATOM      2  C   UNL     1       8.104  -2.284  -1.728  0.00  0.00    +0.248 C 
ATOM      3  O   UNL     1       8.824  -2.649  -0.818  0.00  0.00    -0.270 OA
ATOM      4  H   UNL     1       6.384  -1.337  -2.185  0.00  0.00    +0.149 HD
ENDROOT
BRANCH   2   5
ATOM      5  C   UNL     1       8.485  -2.560  -3.124  0.00  0.00    +0.082 A 
ATOM      6  C   UNL     1       7.837  -2.120  -4.260  0.00  0.00    +0.118 A 
ATOM      7  N   UNL     1       8.504  -2.592  -5.323  0.00  0.00    -0.283 N 
ATOM      8  H   UNL     1       8.264  -2.432  -6.250  0.00  0.00    +0.188 HD
ATOM      9  N   UNL     1       9.599  -3.348  -4.895  0.00  0.00    -0.173 NA
ATOM     10  C   UNL     1       9.631  -3.351  -3.582  0.00  0.00    +0.105 A 
BRANCH  10  11
ATOM     11  C   UNL     1      10.634  -4.029  -2.725  0.00  0.00    +0.003 A 
ATOM     12  C   UNL     1      10.223  -4.751  -1.606  0.00  0.00    +0.011 A 
ATOM     13  C   UNL     1      11.161  -5.380  -0.812  0.00  0.00    +0.020 A 
ATOM     14  C   UNL     1      12.507  -5.294  -1.126  0.00  0.00    +0.041 A 
ATOM     15  C   UNL     1      12.919  -4.578  -2.236  0.00  0.00    +0.020 A 
ATOM     16  C   UNL     1      11.989  -3.950  -3.039  0.00  0.00    +0.011 A 
ATOM     17 CL   UNL     1      13.681  -6.087  -0.122  0.00  0.00    -0.084 Cl
ENDBRANCH  10  11
ENDBRANCH   2   5
BRANCH   1  18
ATOM     18  C   UNL     1       6.579  -1.353  -0.071  0.00  0.00    +0.184 C 
BRANCH  18  21
ATOM     19  C   UNL     1       3.126  -0.252   0.018  0.00  0.00    +0.294 A 
ATOM     20  N   UNL     1       4.061  -1.181   0.010  0.00  0.00    -0.188 NA
ATOM     21  C   UNL     1       5.266  -0.614  -0.045  0.00  0.00    +0.189 A 
ATOM     22  N   UNL     1       5.129   0.682  -0.073  0.00  0.00    -0.059 NA
ATOM     23  O   UNL     1       3.735   0.948  -0.038  0.00  0.00    -0.330 OA
BRANCH  19  26
ATOM     24  C   UNL     1      -0.524  -0.188   0.137  0.00  0.00    +0.042 A 
ATOM     25  C   UNL     1       0.711   0.479   0.076  0.00  0.00    +0.055 A 
ATOM     26  C   UNL     1       1.678  -0.484   0.073  0.00  0.00    +0.192 A 
ATOM     27  O   UNL     1       1.069  -1.686   0.130  0.00  0.00    -0.458 OA
ATOM     28  C   UNL     1      -0.260  -1.511   0.168  0.00  0.00    +0.196 A 
ENDBRANCH  19  26
ENDBRANCH  18  21
ENDBRANCH   1  18
TORSDOF 5
