REMARK  Name = ZINC00914793
REMARK  9 active torsions:
REMARK  status: ('A' for Active; 'I' for Inactive)
REMARK    1  A    between atoms: C_1  and  C_2
REMARK    2  A    between atoms: C_5  and  C_37
REMARK    3  A    between atoms: C_9  and  C_14
REMARK    4  A    between atoms: C_14  and  N_15
REMARK    5  A    between atoms: N_15  and  C_16
REMARK    6  A    between atoms: N_15  and  S_23
REMARK    7  A    between atoms: C_16  and  C_17
REMARK    8  A    between atoms: S_23  and  C_26
REMARK    9  A    between atoms: C_28  and  C_33
REMARK                            x       y       z     vdW  Elec       q    Type
REMARK                         _______ _______ _______ _____ _____    ______ ____
ROOT
ATOM      1  N   UNL     1      -3.549   1.273   1.397  0.00  0.00    -0.170 NA
ENDROOT
BRANCH   1   2
ATOM      2  S   UNL     1      -2.707   0.783   0.058  0.00  0.00    +0.063 S 
ATOM      3  O   UNL     1      -1.890  -0.305   0.468  0.00  0.00    -0.153 OA
ATOM      4  O   UNL     1      -2.171   1.956  -0.537  0.00  0.00    -0.153 OA
BRANCH   2   5
ATOM      5  C   UNL     1      -3.879   0.130  -1.084  0.00  0.00    +0.124 A 
ATOM      6  C   UNL     1      -4.126   0.788  -2.274  0.00  0.00    +0.042 A 
ATOM      7  C   UNL     1      -5.041   0.273  -3.172  0.00  0.00    +0.057 A 
ATOM      8  C   UNL     1      -5.715  -0.898  -2.878  0.00  0.00    +0.014 A 
ATOM      9  C   UNL     1      -5.473  -1.555  -1.687  0.00  0.00    +0.022 A 
ATOM     10  C   UNL     1      -4.557  -1.039  -0.787  0.00  0.00    +0.067 A 
ATOM     11 CL   UNL     1      -4.253  -1.863   0.711  0.00  0.00    -0.082 Cl
BRANCH   7  12
ATOM     12  C   UNL     1      -5.305   0.987  -4.473  0.00  0.00    +0.417 C 
ATOM     13  F   UNL     1      -4.427   0.511  -5.453  0.00  0.00    -0.166 F 
ATOM     14  F   UNL     1      -6.624   0.753  -4.875  0.00  0.00    -0.166 F 
ATOM     15  F   UNL     1      -5.107   2.361  -4.298  0.00  0.00    -0.166 F 
ENDBRANCH   7  12
ENDBRANCH   2   5
ENDBRANCH   1   2
BRANCH   1  16
ATOM     16  C   UNL     1      -4.220   2.575   1.404  0.00  0.00    +0.150 C 
BRANCH  16  25
ATOM     17  C   UNL     1      -7.687   2.492   5.289  0.00  0.00    +0.044 C 
ATOM     18  C   UNL     1      -8.443   2.246   4.009  0.00  0.00    -0.041 A 
ATOM     19  C   UNL     1      -9.796   2.054   4.037  0.00  0.00    +0.004 A 
ATOM     20  C   UNL     1     -10.501   1.826   2.864  0.00  0.00    +0.005 A 
ATOM     21  C   UNL     1      -9.852   1.789   1.648  0.00  0.00    -0.026 A 
ATOM     22  C   UNL     1      -8.476   1.981   1.595  0.00  0.00    +0.052 A 
ATOM     23  C   UNL     1      -7.763   2.212   2.787  0.00  0.00    +0.002 A 
ATOM     24  C   UNL     1      -6.314   2.409   2.721  0.00  0.00    +0.020 A 
ATOM     25  C   UNL     1      -5.710   2.372   1.508  0.00  0.00    +0.033 A 
ATOM     26  C   UNL     1      -6.470   2.136   0.342  0.00  0.00    +0.254 A 
ATOM     27  O   UNL     1      -5.906   2.102  -0.738  0.00  0.00    -0.268 OA
ATOM     28  N   UNL     1      -7.801   1.950   0.393  0.00  0.00    -0.322 N 
ATOM     29  H   UNL     1      -8.308   1.785  -0.453  0.00  0.00    +0.169 HD
ATOM     30  C   UNL     1     -10.630   1.540   0.382  0.00  0.00    +0.046 C 
ENDBRANCH  16  25
ENDBRANCH   1  16
BRANCH   1  31
ATOM     31  C   UNL     1      -3.622   0.405   2.575  0.00  0.00    +0.141 C 
BRANCH  31  32
ATOM     32  C   UNL     1      -2.711   0.957   3.673  0.00  0.00    +0.134 C 
ATOM     33  C   UNL     1      -2.781   0.050   4.917  0.00  0.00    +0.035 C 
ATOM     34  C   UNL     1      -1.317  -0.405   5.138  0.00  0.00    +0.031 C 
ATOM     35  C   UNL     1      -0.520   0.682   4.373  0.00  0.00    +0.160 C 
ATOM     36  O   UNL     1      -1.346   0.958   3.221  0.00  0.00    -0.375 OA
ENDBRANCH  31  32
ENDBRANCH   1  31
TORSDOF 7
