REMARK  Name = ZINC13865317
REMARK  7 active torsions:
REMARK  status: ('A' for Active; 'I' for Inactive)
REMARK    1  A    between atoms: C_1  and  C_2
REMARK    2  A    between atoms: C_10  and  C_11
REMARK    3  A    between atoms: C_11  and  O_13
REMARK    4  A    between atoms: O_13  and  C_14
REMARK    5  A    between atoms: C_14  and  C_15
REMARK    6  A    between atoms: C_15  and  C_17
REMARK    7  A    between atoms: C_17  and  C_27
REMARK                            x       y       z     vdW  Elec       q    Type
REMARK                         _______ _______ _______ _____ _____    ______ ____
ROOT
ATOM      1  C   UNL     1       0.085  -1.944   5.786  0.00  0.00    +0.214 C 
ATOM      2  O   UNL     1       0.097  -3.086   5.371  0.00  0.00    -0.288 OA
ENDROOT
BRANCH   1   3
ATOM      3  C   UNL     1       0.095  -1.698   7.169  0.00  0.00    +0.133 C 
ATOM      4  C   UNL     1       0.119  -2.775   8.074  0.00  0.00    +0.114 C 
ATOM      5  N   UNL     1       0.140  -4.089   7.733  0.00  0.00    -0.300 N 
ATOM      6  C   UNL     1       0.159  -4.843   8.901  0.00  0.00    +0.054 A 
ATOM      7  C   UNL     1       0.184  -6.208   9.147  0.00  0.00    +0.025 A 
ATOM      8  C   UNL     1       0.199  -6.672  10.447  0.00  0.00    +0.002 A 
ATOM      9  C   UNL     1       0.189  -5.781  11.507  0.00  0.00    +0.002 A 
ATOM     10  C   UNL     1       0.165  -4.421  11.273  0.00  0.00    +0.025 A 
ATOM     11  C   UNL     1       0.150  -3.944   9.970  0.00  0.00    +0.054 A 
ATOM     12  N   UNL     1       0.130  -2.664   9.428  0.00  0.00    -0.300 N 
ATOM     13  H   UNL     1       0.140  -4.441   6.829  0.00  0.00    +0.153 HD
ATOM     14  H   UNL     1       0.123  -1.834   9.930  0.00  0.00    +0.153 HD
BRANCH   3  15
ATOM     15  C   UNL     1       0.081  -0.352   7.658  0.00  0.00    +0.106 C 
ATOM     16  N   UNL     1       0.070   0.716   8.045  0.00  0.00    -0.191 NA
ENDBRANCH   3  15
ENDBRANCH   1   3
BRANCH   1  17
ATOM     17  C   UNL     1       0.060  -0.790   4.816  0.00  0.00    +0.312 C 
BRANCH  17  18
ATOM     18  O   UNL     1       0.054  -1.293   3.478  0.00  0.00    -0.451 OA
BRANCH  18  19
ATOM     19  C   UNL     1       0.031  -0.383   2.483  0.00  0.00    +0.376 C 
ATOM     20  O   UNL     1       0.017   0.804   2.744  0.00  0.00    -0.241 OA
BRANCH  19  30
ATOM     21  C   UNL     1      -0.018   1.503   0.010  0.00  0.00    +0.048 C 
ATOM     22  C   UNL     1       0.002  -0.004   0.002  0.00  0.00    +0.010 A 
ATOM     23  C   UNL     1       0.009  -0.877  -1.171  0.00  0.00    +0.025 A 
ATOM     24  C   UNL     1      -0.001  -0.654  -2.550  0.00  0.00    +0.027 A 
ATOM     25  C   UNL     1       0.010  -1.718  -3.409  0.00  0.00    +0.019 A 
ATOM     26  C   UNL     1       0.030  -3.017  -2.918  0.00  0.00    +0.019 A 
ATOM     27  C   UNL     1       0.039  -3.258  -1.561  0.00  0.00    +0.048 A 
ATOM     28  C   UNL     1       0.029  -2.191  -0.669  0.00  0.00    +0.136 A 
ATOM     29  O   UNL     1       0.035  -2.114   0.676  0.00  0.00    -0.448 OA
ATOM     30  C   UNL     1       0.024  -0.827   1.083  0.00  0.00    +0.216 A 
ATOM     31 BR   UNL     1      -0.003  -1.419  -5.276  0.00  0.00    -0.050 Br
ENDBRANCH  19  30
ENDBRANCH  18  19
ENDBRANCH  17  18
ENDBRANCH   1  17
TORSDOF 6
