REMARK  Name = ZINC07006171
REMARK  9 active torsions:
REMARK  status: ('A' for Active; 'I' for Inactive)
REMARK    1  A    between atoms: C_1  and  C_2
REMARK    2  A    between atoms: C_2  and  S_3
REMARK    3  A    between atoms: S_3  and  N_6
REMARK    4  A    between atoms: C_12  and  C_18
REMARK    5  A    between atoms: C_13  and  C_17
REMARK    6  A    between atoms: N_20  and  C_21
REMARK    7  A    between atoms: C_21  and  C_22
REMARK    8  A    between atoms: C_22  and  C_24
REMARK    9  A    between atoms: C_22  and  C_25
REMARK                            x       y       z     vdW  Elec       q    Type
REMARK                         _______ _______ _______ _____ _____    ______ ____
ROOT
ATOM      1  N   UNL     1      -2.250   3.197   5.833  0.00  0.00    -0.181 NA
ATOM      2  C   UNL     1      -2.455   1.787   5.476  0.00  0.00    +0.113 C 
ATOM      3  C   UNL     1      -1.312   1.339   4.559  0.00  0.00    +0.070 C 
ATOM      4  C   UNL     1      -1.219   2.289   3.365  0.00  0.00    +0.146 C 
ATOM      5  C   UNL     1      -0.934   3.712   3.844  0.00  0.00    +0.070 C 
ATOM      6  C   UNL     1      -2.073   4.180   4.755  0.00  0.00    +0.113 C 
ATOM      7  C   UNL     1      -0.129   1.833   2.427  0.00  0.00    +0.067 C 
ATOM      8  C   UNL     1      -0.718   1.572   1.248  0.00  0.00    +0.045 C 
ATOM      9  C   UNL     1      -2.161   1.842   1.358  0.00  0.00    +0.336 C 
ATOM     10  O   UNL     1      -2.966   1.707   0.459  0.00  0.00    -0.245 OA
ATOM     11  O   UNL     1      -2.456   2.257   2.604  0.00  0.00    -0.450 OA
ATOM     12  C   UNL     1      -0.013   1.086   0.008  0.00  0.00    +0.052 C 
ENDROOT
BRANCH   7  13
ATOM     13  C   UNL     1       1.307   1.698   2.743  0.00  0.00    +0.244 C 
ATOM     14  O   UNL     1       2.084   1.317   1.890  0.00  0.00    -0.270 OA
ATOM     15  N   UNL     1       1.756   1.998   3.978  0.00  0.00    -0.311 N 
ATOM     16  H   UNL     1       1.136   2.302   4.659  0.00  0.00    +0.149 HD
BRANCH  15  17
ATOM     17  C   UNL     1       3.181   1.864   4.292  0.00  0.00    +0.112 C 
BRANCH  17  18
ATOM     18  C   UNL     1       3.421   2.264   5.749  0.00  0.00    +0.033 C 
ATOM     19  C   UNL     1       3.105   3.750   5.929  0.00  0.00    +0.014 C 
BRANCH  18  20
ATOM     20  C   UNL     1       4.863   2.011   6.108  0.00  0.00    -0.043 A 
ATOM     21  C   UNL     1       5.872   2.649   5.411  0.00  0.00    +0.004 A 
ATOM     22  C   UNL     1       7.194   2.420   5.743  0.00  0.00    +0.000 A 
ATOM     23  C   UNL     1       7.507   1.545   6.766  0.00  0.00    +0.000 A 
ATOM     24  C   UNL     1       6.499   0.903   7.461  0.00  0.00    +0.000 A 
ATOM     25  C   UNL     1       5.177   1.135   7.131  0.00  0.00    +0.004 A 
ENDBRANCH  18  20
ENDBRANCH  17  18
ENDBRANCH  15  17
ENDBRANCH   7  13
BRANCH   1  26
ATOM     26  S   UNL     1      -2.219   3.670   7.420  0.00  0.00    +0.032 S 
ATOM     27  O   UNL     1      -2.622   5.033   7.400  0.00  0.00    -0.158 OA
ATOM     28  O   UNL     1      -2.994   2.696   8.104  0.00  0.00    -0.158 OA
BRANCH  26  30
ATOM     29  C   UNL     1      -0.328   3.958   9.375  0.00  0.00    +0.029 C 
ATOM     30  C   UNL     1      -0.477   3.541   7.911  0.00  0.00    +0.182 C 
ENDBRANCH  26  30
ENDBRANCH   1  26
TORSDOF 6
