REMARK  Name = ZINC16656679
REMARK  5 active torsions:
REMARK  status: ('A' for Active; 'I' for Inactive)
REMARK    1  A    between atoms: C_4  and  C_7
REMARK    2  A    between atoms: C_10  and  S_13
REMARK    3  A    between atoms: S_13  and  C_14
REMARK    4  A    between atoms: C_14  and  C_15
REMARK    5  A    between atoms: N_21  and  C_22
REMARK                            x       y       z     vdW  Elec       q    Type
REMARK                         _______ _______ _______ _____ _____    ______ ____
ROOT
ATOM      1  C   UNL     1      -3.975   2.034   0.040  0.00  0.00    +0.146 A 
ATOM      2  N   UNL     1      -4.499   2.473   1.172  0.00  0.00    -0.199 NA
ATOM      3  C   UNL     1      -5.687   3.073   1.168  0.00  0.00    +0.217 A 
ATOM      4  N   UNL     1      -6.351   3.221   0.027  0.00  0.00    -0.181 NA
ATOM      5  C   UNL     1      -5.824   2.773  -1.107  0.00  0.00    +0.224 A 
ATOM      6  N   UNL     1      -4.633   2.179  -1.097  0.00  0.00    -0.198 NA
ATOM      7  N   UNL     1      -6.511   2.925  -2.296  0.00  0.00    -0.284 N 
ATOM      8  N   UNL     1      -6.230   3.537   2.349  0.00  0.00    -0.327 N 
ATOM      9  H   UNL     1      -6.092   2.672  -3.133  0.00  0.00    +0.155 HD
ATOM     10  H   UNL     1      -7.097   3.970   2.347  0.00  0.00    +0.145 HD
ATOM     11  H   UNL     1      -5.744   3.428   3.182  0.00  0.00    +0.145 HD
ENDROOT
BRANCH   7  12
ATOM     12  C   UNL     1      -7.810   3.445  -2.292  0.00  0.00    +0.034 A 
ATOM     13  C   UNL     1      -8.662   3.179  -1.228  0.00  0.00    +0.026 A 
ATOM     14  C   UNL     1      -9.942   3.698  -1.224  0.00  0.00    +0.040 A 
ATOM     15  C   UNL     1     -10.380   4.473  -2.284  0.00  0.00    +0.124 A 
ATOM     16  C   UNL     1      -9.534   4.734  -3.349  0.00  0.00    +0.040 A 
ATOM     17  C   UNL     1      -8.251   4.223  -3.354  0.00  0.00    +0.026 A 
ATOM     18  F   UNL     1     -11.634   4.975  -2.281  0.00  0.00    -0.205 F 
ENDBRANCH   7  12
BRANCH   1  19
ATOM     19  C   UNL     1      -2.627   1.360   0.048  0.00  0.00    +0.153 C 
BRANCH  19  20
ATOM     20  S   UNL     1      -1.331   2.600  -0.194  0.00  0.00    -0.078 S 
BRANCH  20  24
ATOM     21  C   UNL     1       2.149   0.825  -0.180  0.00  0.00    +0.162 A 
ATOM     22  N   UNL     1       1.392   1.969  -0.281  0.00  0.00    -0.316 N 
ATOM     23  H   UNL     1       1.713   2.874  -0.421  0.00  0.00    +0.169 HD
ATOM     24  C   UNL     1       0.095   1.566  -0.144  0.00  0.00    +0.190 A 
ATOM     25  N   UNL     1       0.107   0.263   0.026  0.00  0.00    -0.122 NA
ATOM     26  N   UNL     1       1.316  -0.173   0.005  0.00  0.00    -0.129 NA
BRANCH  21  30
ATOM     27  C   UNL     1       6.382   0.567  -0.420  0.00  0.00    +0.000 A 
ATOM     28  C   UNL     1       5.633  -0.578  -0.220  0.00  0.00    +0.001 A 
ATOM     29  C   UNL     1       4.257  -0.502  -0.140  0.00  0.00    +0.011 A 
ATOM     30  C   UNL     1       3.622   0.735  -0.263  0.00  0.00    +0.019 A 
ATOM     31  C   UNL     1       4.384   1.886  -0.470  0.00  0.00    +0.011 A 
ATOM     32  C   UNL     1       5.759   1.797  -0.542  0.00  0.00    +0.001 A 
ENDBRANCH  21  30
ENDBRANCH  20  24
ENDBRANCH  19  20
ENDBRANCH   1  19
TORSDOF 5
