REMARK  Name = ZINC58574097
REMARK  6 active torsions:
REMARK  status: ('A' for Active; 'I' for Inactive)
REMARK    1  A    between atoms: C_1  and  C_2
REMARK    2  A    between atoms: N_4  and  C_5
REMARK    3  A    between atoms: C_5  and  C_7
REMARK    4  A    between atoms: C_5  and  C_18
REMARK    5  A    between atoms: C_7  and  C_8
REMARK    6  A    between atoms: C_24  and  C_26
REMARK                            x       y       z     vdW  Elec       q    Type
REMARK                         _______ _______ _______ _____ _____    ______ ____
ROOT
ATOM      1  C   UNL     1      -0.407  -2.658   1.222  0.00  0.00    +0.239 C 
ATOM      2  O   UNL     1       0.350  -1.922   1.819  0.00  0.00    -0.273 OA
ATOM      3  N   UNL     1      -0.597  -3.922   1.651  0.00  0.00    -0.262 N 
ATOM      4  C   UNL     1       0.076  -4.382   2.777  0.00  0.00    +0.188 A 
ATOM      5  N   UNL     1       0.926  -3.744   3.557  0.00  0.00    -0.126 NA
ATOM      6  N   UNL     1       1.463  -4.301   4.556  0.00  0.00    -0.144 NA
ATOM      7  C   UNL     1       1.166  -5.556   4.828  0.00  0.00    +0.110 A 
ATOM      8  S   UNL     1       0.012  -5.901   3.507  0.00  0.00    -0.035 S 
ATOM      9  H   UNL     1      -1.202  -4.510   1.173  0.00  0.00    +0.157 HD
ENDROOT
BRANCH   7  10
ATOM     10  C   UNL     1       1.655  -6.446   5.940  0.00  0.00    +0.022 C 
ATOM     11  C   UNL     1       3.176  -6.588   5.848  0.00  0.00    +0.017 C 
ATOM     12  C   UNL     1       3.674  -7.492   6.978  0.00  0.00    -0.010 C 
ATOM     13  C   UNL     1       3.299  -6.875   8.327  0.00  0.00    +0.007 C 
ATOM     14  C   UNL     1       1.779  -6.733   8.419  0.00  0.00    -0.010 C 
ATOM     15  C   UNL     1       1.281  -5.829   7.290  0.00  0.00    +0.017 C 
ATOM     16  C   UNL     1       1.129  -8.112   8.292  0.00  0.00    +0.007 C 
ATOM     17  C   UNL     1       1.504  -8.730   6.943  0.00  0.00    -0.010 C 
ATOM     18  C   UNL     1       3.024  -8.871   6.851  0.00  0.00    +0.007 C 
ATOM     19  C   UNL     1       1.006  -7.826   5.813  0.00  0.00    +0.017 C 
ENDBRANCH   7  10
BRANCH   1  20
ATOM     20  C   UNL     1      -1.136  -2.159   0.001  0.00  0.00    +0.164 C 
BRANCH  20  24
ATOM     21  C   UNL     1      -0.018   1.503   0.010  0.00  0.00    +0.109 C 
ATOM     22  C   UNL     1       0.002  -0.004   0.002  0.00  0.00    +0.211 C 
ATOM     23  O   UNL     1       1.060  -0.596  -0.011  0.00  0.00    -0.276 OA
ATOM     24  N   UNL     1      -1.156  -0.694   0.009  0.00  0.00    -0.304 N 
ATOM     25  H   UNL     1      -2.002  -0.220   0.020  0.00  0.00    +0.149 HD
ENDBRANCH  20  24
BRANCH  20  26
ATOM     26  C   UNL     1      -0.420  -2.652  -1.258  0.00  0.00    +0.069 C 
BRANCH  26  27
ATOM     27  C   UNL     1      -1.215  -2.257  -2.475  0.00  0.00    -0.020 A 
ATOM     28  C   UNL     1      -2.119  -3.013  -3.118  0.00  0.00    +0.087 A 
ATOM     29  N   UNL     1      -2.637  -2.321  -4.178  0.00  0.00    -0.360 N 
ATOM     30  H   UNL     1      -3.308  -2.660  -4.792  0.00  0.00    +0.165 HD
ATOM     31  C   UNL     1      -2.064  -1.071  -4.246  0.00  0.00    +0.047 A 
ATOM     32  C   UNL     1      -1.153  -0.974  -3.178  0.00  0.00    +0.003 A 
ATOM     33  C   UNL     1      -0.421   0.200  -2.992  0.00  0.00    +0.010 A 
ATOM     34  C   UNL     1      -0.596   1.252  -3.847  0.00  0.00    +0.001 A 
ATOM     35  C   UNL     1      -1.496   1.163  -4.899  0.00  0.00    +0.002 A 
ATOM     36  C   UNL     1      -2.222   0.010  -5.107  0.00  0.00    +0.026 A 
ENDBRANCH  26  27
ENDBRANCH  20  26
ENDBRANCH   1  20
TORSDOF 5
