REMARK  Name = ZINC38994721
REMARK  7 active torsions:
REMARK  status: ('A' for Active; 'I' for Inactive)
REMARK    1  A    between atoms: C_1  and  C_2
REMARK    2  A    between atoms: C_4  and  C_15
REMARK    3  A    between atoms: C_5  and  C_14
REMARK    4  A    between atoms: N_7  and  C_8
REMARK    5  A    between atoms: N_16  and  N_17
REMARK    6  A    between atoms: C_18  and  C_20
REMARK    7  A    between atoms: C_23  and  C_25
REMARK                            x       y       z     vdW  Elec       q    Type
REMARK                         _______ _______ _______ _____ _____    ______ ____
ROOT
ATOM      1  N   UNL     1       0.895  -0.575  -4.843  0.00  0.00    -0.202 N 
ATOM      2  C   UNL     1       1.676  -1.095  -5.811  0.00  0.00    +0.280 C 
ATOM      3  O   UNL     1       2.655  -1.756  -5.514  0.00  0.00    -0.267 OA
ATOM      4  H   UNL     1       0.116  -0.049  -5.079  0.00  0.00    +0.178 HD
ENDROOT
BRANCH   2   5
ATOM      5  C   UNL     1       1.347  -0.865  -7.220  0.00  0.00    +0.132 C 
ATOM      6  N   UNL     1       0.343  -0.179  -7.702  0.00  0.00    -0.148 NA
ATOM      7  N   UNL     1       0.295  -0.139  -8.976  0.00  0.00    -0.153 NA
ATOM      8  C   UNL     1       1.264  -0.796  -9.572  0.00  0.00    +0.078 C 
ATOM      9  C   UNL     1       2.102  -1.366  -8.440  0.00  0.00    +0.120 C 
BRANCH   8  10
ATOM     10  C   UNL     1       1.489  -0.942 -11.014  0.00  0.00    +0.017 A 
ATOM     11  C   UNL     1       2.577  -1.689 -11.485  0.00  0.00    +0.012 A 
ATOM     12  C   UNL     1       2.782  -1.822 -12.840  0.00  0.00    +0.021 A 
ATOM     13  C   UNL     1       1.914  -1.220 -13.739  0.00  0.00    +0.042 A 
ATOM     14  C   UNL     1       0.836  -0.480 -13.283  0.00  0.00    +0.040 A 
ATOM     15  C   UNL     1       0.613  -0.341 -11.929  0.00  0.00    +0.051 A 
ATOM     16 CL   UNL     1      -0.744   0.580 -11.360  0.00  0.00    -0.083 Cl
ATOM     17 CL   UNL     1       2.183  -1.394 -15.445  0.00  0.00    -0.083 Cl
ENDBRANCH   8  10
ENDBRANCH   2   5
BRANCH   1  19
ATOM     18  C   UNL     1       0.454  -0.292  -2.560  0.00  0.00    +0.137 C 
ATOM     19  N   UNL     1       1.209  -0.795  -3.495  0.00  0.00    -0.188 NA
BRANCH  18  22
ATOM     20  C   UNL     1      -0.019   1.526   0.010  0.00  0.00    +0.035 C 
ATOM     21  C   UNL     1       0.002  -0.004   0.002  0.00  0.00    +0.124 C 
ATOM     22  C   UNL     1       0.772  -0.515  -1.196  0.00  0.00    +0.012 C 
ATOM     23  C   UNL     1       1.813  -1.220  -0.724  0.00  0.00    +0.025 C 
ATOM     24  N   UNL     1       1.829  -1.240   0.646  0.00  0.00    -0.267 N 
ATOM     25  N   UNL     1       0.745  -0.514   1.166  0.00  0.00    -0.246 N 
ATOM     26  C   UNL     1       2.836  -1.904  -1.593  0.00  0.00    +0.062 C 
ATOM     27  H   UNL     1       2.497  -1.693   1.183  0.00  0.00    +0.170 HD
BRANCH  25  28
ATOM     28  C   UNL     1       0.434  -0.316   2.513  0.00  0.00    +0.048 A 
ATOM     29  C   UNL     1      -0.685   0.428   2.867  0.00  0.00    +0.025 A 
ATOM     30  C   UNL     1      -0.990   0.622   4.200  0.00  0.00    +0.002 A 
ATOM     31  C   UNL     1      -0.183   0.077   5.182  0.00  0.00    +0.000 A 
ATOM     32  C   UNL     1       0.932  -0.664   4.833  0.00  0.00    +0.002 A 
ATOM     33  C   UNL     1       1.239  -0.867   3.502  0.00  0.00    +0.025 A 
ENDBRANCH  25  28
ENDBRANCH  18  22
ENDBRANCH   1  19
TORSDOF 5
