REMARK  Name = ZINC65409367
REMARK  3 active torsions:
REMARK  status: ('A' for Active; 'I' for Inactive)
REMARK    1  A    between atoms: C_6  and  C_7
REMARK    2  A    between atoms: N_15  and  C_16
REMARK    3  A    between atoms: C_16  and  C_17
REMARK                            x       y       z     vdW  Elec       q    Type
REMARK                         _______ _______ _______ _____ _____    ______ ____
ROOT
ATOM      1  C   UNL     1      -0.017   1.403   0.010  0.00  0.00    +0.017 A 
ATOM      2  C   UNL     1       1.139   2.116   0.003  0.00  0.00    +0.027 A 
ATOM      3  C   UNL     1       2.374   1.448  -0.013  0.00  0.00    +0.052 A 
ATOM      4  C   UNL     1       2.404   0.030  -0.021  0.00  0.00    +0.039 A 
ATOM      5  C   UNL     1       1.213  -0.691  -0.013  0.00  0.00    +0.028 A 
ATOM      6  C   UNL     1       0.002  -0.004   0.002  0.00  0.00    +0.064 A 
ATOM      7  C   UNL     1       3.711  -0.628  -0.036  0.00  0.00    +0.132 A 
ATOM      8  N   UNL     1       4.789   0.145  -0.042  0.00  0.00    -0.201 NA
ATOM      9  C   UNL     1       4.688   1.470  -0.034  0.00  0.00    +0.192 A 
ATOM     10  N   UNL     1       3.536   2.113  -0.020  0.00  0.00    -0.327 N 
ATOM     11  N   UNL     1       5.851   2.214  -0.040  0.00  0.00    -0.329 N 
ATOM     12  N   UNL     1       3.818  -2.001  -0.044  0.00  0.00    -0.324 N 
ATOM     13  H   UNL     1       6.712   1.768  -0.050  0.00  0.00    +0.145 HD
ATOM     14  H   UNL     1       5.807   3.183  -0.035  0.00  0.00    +0.145 HD
ATOM     15  H   UNL     1       3.018  -2.549  -0.040  0.00  0.00    +0.148 HD
ATOM     16  H   UNL     1       3.531   3.083  -0.015  0.00  0.00    +0.169 HD
ENDROOT
BRANCH   6  17
ATOM     17  C   UNL     1      -1.265  -0.753   0.010  0.00  0.00    +0.387 C 
ATOM     18  O   UNL     1      -2.331  -0.153   0.024  0.00  0.00    -0.241 OA
ATOM     19  O   UNL     1      -1.252  -1.977   0.003  0.00  0.00    -0.241 OA
ENDBRANCH   6  17
BRANCH  12  20
ATOM     20  C   UNL     1       5.139  -2.632  -0.060  0.00  0.00    +0.138 C 
BRANCH  20  21
ATOM     21  C   UNL     1       4.980  -4.131  -0.066  0.00  0.00    -0.025 C 
ATOM     22  C   UNL     1       4.997  -4.865  -1.219  0.00  0.00    +0.005 C 
ATOM     23  C   UNL     1       4.780  -6.308  -1.171  0.00  0.00    -0.002 C 
ATOM     24  C   UNL     1       4.867  -7.019  -0.040  0.00  0.00    +0.004 C 
ATOM     25  C   UNL     1       5.257  -6.322   1.228  0.00  0.00    +0.158 C 
ATOM     26  C   UNL     1       4.808  -4.876   1.115  0.00  0.00    -0.013 C 
ATOM     27  C   UNL     1       4.240  -4.596   2.299  0.00  0.00    +0.025 C 
ATOM     28  C   UNL     1       4.072  -5.792   3.032  0.00  0.00    +0.106 C 
ATOM     29  N   UNL     1       4.605  -6.814   2.433  0.00  0.00    -0.279 NA
ENDBRANCH  20  21
ENDBRANCH  12  20
TORSDOF 3
