REMARK  Name = ZINC59859127
REMARK  8 active torsions:
REMARK  status: ('A' for Active; 'I' for Inactive)
REMARK    1  A    between atoms: C_4  and  C_7
REMARK    2  A    between atoms: C_7  and  C_8
REMARK    3  A    between atoms: C_8  and  N_9
REMARK    4  A    between atoms: C_20  and  N_33
REMARK    5  A    between atoms: C_21  and  N_22
REMARK    6  A    between atoms: N_22  and  C_23
REMARK    7  A    between atoms: C_26  and  O_32
REMARK    8  A    between atoms: C_27  and  C_29
REMARK                            x       y       z     vdW  Elec       q    Type
REMARK                         _______ _______ _______ _____ _____    ______ ____
ROOT
ATOM      1  N   UNL     1       5.614  -1.398   2.272  0.00  0.00    -0.234 N 
ATOM      2  C   UNL     1       5.910  -2.178   3.329  0.00  0.00    +0.254 C 
ATOM      3  O   UNL     1       5.095  -2.326   4.220  0.00  0.00    -0.270 OA
ATOM      4  C   UNL     1       7.212  -2.854   3.411  0.00  0.00    +0.046 A 
ATOM      5  C   UNL     1       7.556  -3.667   4.483  0.00  0.00    +0.014 A 
ATOM      6  C   UNL     1       8.798  -4.285   4.519  0.00  0.00    +0.001 A 
ATOM      7  C   UNL     1       9.715  -4.112   3.505  0.00  0.00    +0.010 A 
ATOM      8  C   UNL     1       9.400  -3.298   2.408  0.00  0.00    +0.007 A 
ATOM      9  C   UNL     1       8.142  -2.666   2.363  0.00  0.00    +0.008 A 
ATOM     10  C   UNL     1       7.796  -1.838   1.269  0.00  0.00    +0.048 A 
ATOM     11  C   UNL     1       8.713  -1.655   0.237  0.00  0.00    +0.048 A 
ATOM     12  C   UNL     1       9.948  -2.275   0.280  0.00  0.00    +0.149 A 
ATOM     13  C   UNL     1      10.309  -3.090   1.343  0.00  0.00    +0.070 A 
ATOM     14  C   UNL     1       6.475  -1.203   1.256  0.00  0.00    +0.254 C 
ATOM     15  O   UNL     1       6.156  -0.491   0.322  0.00  0.00    -0.270 OA
ENDROOT
BRANCH  12  16
ATOM     16  N   UNL     1      10.904  -2.063  -0.830  0.00  0.00    +0.058 N 
ATOM     17  O   UNL     1      10.567  -1.438  -1.808  0.00  0.00    -0.126 OA
ATOM     18  O   UNL     1      12.023  -2.517  -0.758  0.00  0.00    -0.126 OA
ENDBRANCH  12  16
BRANCH  13  19
ATOM     19  N   UNL     1      11.551  -3.697   1.361  0.00  0.00    -0.312 N 
ATOM     20  H   UNL     1      12.316  -3.224   1.724  0.00  0.00    +0.152 HD
BRANCH  19  21
ATOM     21  C   UNL     1      11.704  -4.993   0.856  0.00  0.00    +0.032 A 
ATOM     22  C   UNL     1      10.638  -5.619   0.216  0.00  0.00    +0.027 A 
ATOM     23  C   UNL     1      10.779  -6.896  -0.286  0.00  0.00    +0.048 A 
ATOM     24  C   UNL     1      11.986  -7.568  -0.155  0.00  0.00    +0.131 A 
ATOM     25  C   UNL     1      13.065  -6.944   0.489  0.00  0.00    +0.106 A 
ATOM     26  C   UNL     1      12.916  -5.647   0.990  0.00  0.00    +0.042 A 
BRANCH  25  27
ATOM     27  C   UNL     1      14.349  -7.649   0.631  0.00  0.00    +0.390 C 
ATOM     28  O   UNL     1      15.288  -7.102   1.193  0.00  0.00    -0.240 OA
ATOM     29  O   UNL     1      14.478  -8.782   0.188  0.00  0.00    -0.240 OA
ENDBRANCH  25  27
BRANCH  24  30
ATOM     30  O   UNL     1      12.123  -8.824  -0.648  0.00  0.00    -0.506 OA
ATOM     31  H   UNL     1      12.431  -8.856  -1.565  0.00  0.00    +0.292 HD
ENDBRANCH  24  30
ENDBRANCH  19  21
ENDBRANCH  13  19
BRANCH   1  32
ATOM     32  C   UNL     1       4.306  -0.741   2.225  0.00  0.00    +0.121 C 
BRANCH  32  33
ATOM     33  C   UNL     1       3.300  -1.656   1.524  0.00  0.00    +0.054 C 
BRANCH  33  37
ATOM     34  C   UNL     1      -0.516   0.258   1.384  0.00  0.00    +0.000 A 
ATOM     35  C   UNL     1       0.388   0.442   0.354  0.00  0.00    +0.000 A 
ATOM     36  C   UNL     1       1.623  -0.178   0.399  0.00  0.00    +0.004 A 
ATOM     37  C   UNL     1       1.954  -0.980   1.475  0.00  0.00    -0.046 A 
ATOM     38  C   UNL     1       1.051  -1.163   2.505  0.00  0.00    +0.004 A 
ATOM     39  C   UNL     1      -0.184  -0.545   2.459  0.00  0.00    +0.000 A 
ENDBRANCH  33  37
ENDBRANCH  32  33
ENDBRANCH   1  32
TORSDOF 8
