REMARK  Name = ZINC13640943
REMARK  7 active torsions:
REMARK  status: ('A' for Active; 'I' for Inactive)
REMARK    1  A    between atoms: C_1  and  O_2
REMARK    2  A    between atoms: O_2  and  C_3
REMARK    3  A    between atoms: C_5  and  C_13
REMARK    4  A    between atoms: C_7  and  O_11
REMARK    5  A    between atoms: C_8  and  O_9
REMARK    6  A    between atoms: O_9  and  C_10
REMARK    7  A    between atoms: O_11  and  C_12
REMARK                            x       y       z     vdW  Elec       q    Type
REMARK                         _______ _______ _______ _____ _____    ______ ____
ROOT
ATOM      1  C   UNL     1      -0.821   1.524  -1.095  0.00  0.00    +0.105 C 
ATOM      2  C   UNL     1      -0.876   3.061  -0.997  0.00  0.00    +0.029 C 
ATOM      3  C   UNL     1      -1.561   3.576  -2.305  0.00  0.00    +0.033 C 
ATOM      4  C   UNL     1      -0.437   3.592  -3.322  0.00  0.00    -0.030 C 
ATOM      5  C   UNL     1       0.726   3.618  -2.722  0.00  0.00    -0.023 C 
ATOM      6  C   UNL     1       0.547   3.615  -1.221  0.00  0.00    +0.050 C 
ATOM      7  C   UNL     1       1.584   2.750  -0.567  0.00  0.00    +0.002 A 
ATOM      8  C   UNL     1       1.285   1.523  -0.002  0.00  0.00    +0.051 A 
ATOM      9  C   UNL     1       2.298   0.762   0.582  0.00  0.00    +0.064 A 
ATOM     10  C   UNL     1       3.597   1.227   0.603  0.00  0.00    +0.043 A 
ATOM     11  C   UNL     1       3.895   2.455   0.041  0.00  0.00    +0.061 A 
ATOM     12  C   UNL     1       2.894   3.211  -0.540  0.00  0.00    +0.065 A 
ATOM     13 CL   UNL     1       3.279   4.751  -1.242  0.00  0.00    -0.082 Cl
ATOM     14 CL   UNL     1       5.527   3.047   0.065  0.00  0.00    -0.082 Cl
ATOM     15 CL   UNL     1       1.921  -0.779   1.287  0.00  0.00    -0.082 Cl
ATOM     16  N   UNL     1      -0.012   1.005   0.008  0.00  0.00    -0.335 N 
ATOM     17  H   UNL     1       0.002  -0.004   0.002  0.00  0.00    +0.147 HD
ENDROOT
BRANCH   1  20
ATOM     18  C   UNL     1      -4.170   0.064  -2.062  0.00  0.00    +0.165 A 
ATOM     19  C   UNL     1      -2.885   0.578  -2.146  0.00  0.00    +0.055 A 
ATOM     20  C   UNL     1      -2.218   0.967  -0.999  0.00  0.00    -0.020 A 
ATOM     21  C   UNL     1      -2.826   0.840   0.236  0.00  0.00    +0.055 A 
ATOM     22  C   UNL     1      -4.113   0.332   0.328  0.00  0.00    +0.165 A 
ATOM     23  C   UNL     1      -4.787  -0.060  -0.822  0.00  0.00    +0.204 A 
BRANCH  18  25
ATOM     24  C   UNL     1      -4.131  -0.162  -4.429  0.00  0.00    +0.277 C 
ATOM     25  O   UNL     1      -4.826  -0.318  -3.190  0.00  0.00    -0.491 OA
ENDBRANCH  18  25
BRANCH  23  26
ATOM     26  O   UNL     1      -6.048  -0.565  -0.736  0.00  0.00    -0.488 OA
ATOM     27  C   UNL     1      -6.171  -1.980  -0.574  0.00  0.00    +0.277 C 
ENDBRANCH  23  26
BRANCH  22  28
ATOM     28  O   UNL     1      -4.713   0.212   1.543  0.00  0.00    -0.491 OA
ATOM     29  C   UNL     1      -3.960   0.635   2.682  0.00  0.00    +0.277 C 
ENDBRANCH  22  28
ENDBRANCH   1  20
TORSDOF 4
