REMARK  Name = ZINC39597726
REMARK  5 active torsions:
REMARK  status: ('A' for Active; 'I' for Inactive)
REMARK    1  A    between atoms: C_7  and  C_10
REMARK    2  A    between atoms: C_10  and  C_11
REMARK    3  A    between atoms: C_11  and  N_12
REMARK    4  A    between atoms: C_13  and  C_15
REMARK    5  A    between atoms: C_26  and  C_28
REMARK                            x       y       z     vdW  Elec       q    Type
REMARK                         _______ _______ _______ _____ _____    ______ ____
ROOT
ATOM      1  C   UNL     1      -5.656   7.118  -2.500  0.00  0.00    +0.100 C 
ATOM      2  C   UNL     1      -4.767   8.042  -1.637  0.00  0.00    +0.121 C 
ATOM      3  N   UNL     1      -3.831   8.667  -2.601  0.00  0.00    -0.295 N 
ATOM      4  C   UNL     1      -4.661   8.940  -3.798  0.00  0.00    +0.115 C 
ATOM      5  C   UNL     1      -5.587   7.713  -3.916  0.00  0.00    -0.004 C 
ATOM      6  C   UNL     1      -6.976   8.142  -4.378  0.00  0.00    -0.010 C 
ATOM      7  C   UNL     1      -6.891   8.676  -5.810  0.00  0.00    -0.082 C 
ATOM      8  N   UNL     1      -6.361   7.631  -6.694  0.00  0.00    +0.379 N 
ATOM      9  C   UNL     1      -4.988   7.291  -6.300  0.00  0.00    -0.082 C 
ATOM     10  C   UNL     1      -4.993   6.697  -4.888  0.00  0.00    -0.010 C 
ATOM     11  C   UNL     1      -2.520   8.928  -2.428  0.00  0.00    +0.265 C 
ATOM     12  O   UNL     1      -1.953   8.552  -1.420  0.00  0.00    -0.268 OA
ATOM     13  H   UNL     1      -6.942   6.809  -6.627  0.00  0.00    -0.086 HD
ATOM     14  H   UNL     1      -6.363   7.964  -7.646  0.00  0.00    -0.086 HD
ENDROOT
BRANCH  11  15
ATOM     15  C   UNL     1      -1.769   9.672  -3.466  0.00  0.00    +0.126 A 
ATOM     16  C   UNL     1      -0.392   9.838  -3.337  0.00  0.00    +0.033 A 
ATOM     17  C   UNL     1       0.296  10.537  -4.316  0.00  0.00    +0.004 A 
ATOM     18  C   UNL     1      -0.417  11.045  -5.390  0.00  0.00    +0.020 A 
ATOM     19  C   UNL     1      -1.786  10.842  -5.454  0.00  0.00    +0.111 A 
ATOM     20  N   UNL     1      -2.414  10.171  -4.513  0.00  0.00    -0.250 NA
ENDBRANCH  11  15
BRANCH   1  22
ATOM     21  N   UNL     1      -5.951   4.665  -2.619  0.00  0.00    -0.315 N 
ATOM     22  C   UNL     1      -5.112   5.712  -2.494  0.00  0.00    +0.218 C 
ATOM     23  O   UNL     1      -3.920   5.524  -2.378  0.00  0.00    -0.275 OA
ATOM     24  H   UNL     1      -6.904   4.815  -2.712  0.00  0.00    +0.149 HD
BRANCH  21  25
ATOM     25  C   UNL     1      -5.422   3.298  -2.614  0.00  0.00    +0.109 C 
BRANCH  25  26
ATOM     26  C   UNL     1      -6.575   2.305  -2.769  0.00  0.00    +0.056 C 
BRANCH  26  33
ATOM     27  C   UNL     1      -5.491  -0.701   0.661  0.00  0.00    +0.001 A 
ATOM     28  C   UNL     1      -5.011  -1.914   0.186  0.00  0.00    +0.002 A 
ATOM     29  C   UNL     1      -4.891  -2.140  -1.168  0.00  0.00    +0.026 A 
ATOM     30  C   UNL     1      -5.256  -1.146  -2.070  0.00  0.00    +0.047 A 
ATOM     31  N   UNL     1      -5.254  -1.065  -3.444  0.00  0.00    -0.360 N 
ATOM     32  C   UNL     1      -5.720   0.160  -3.839  0.00  0.00    +0.087 A 
ATOM     33  C   UNL     1      -6.032   0.899  -2.763  0.00  0.00    -0.021 A 
ATOM     34  C   UNL     1      -5.743   0.081  -1.583  0.00  0.00    +0.003 A 
ATOM     35  C   UNL     1      -5.860   0.288  -0.207  0.00  0.00    +0.010 A 
ATOM     36  H   UNL     1      -4.966  -1.771  -4.043  0.00  0.00    +0.165 HD
ENDBRANCH  26  33
ENDBRANCH  25  26
ENDBRANCH  21  25
ENDBRANCH   1  22
TORSDOF 5
