REMARK  Name = ZINC12922803
REMARK  4 active torsions:
REMARK  status: ('A' for Active; 'I' for Inactive)
REMARK    1  A    between atoms: C_4  and  S_8
REMARK    2  A    between atoms: S_8  and  N_11
REMARK    3  A    between atoms: N_11  and  N_12
REMARK    4  A    between atoms: C_13  and  C_15
REMARK                            x       y       z     vdW  Elec       q    Type
REMARK                         _______ _______ _______ _____ _____    ______ ____
ROOT
ATOM      1  N   UNL     1       0.460   4.339  -1.413  0.00  0.00    -0.108 NA
ATOM      2  H   UNL     1       0.963   4.894  -2.029  0.00  0.00    +0.172 HD
ENDROOT
BRANCH   1   3
ATOM      3  N   UNL     1      -0.849   3.950  -1.727  0.00  0.00    -0.227 N 
ATOM      4  C   UNL     1      -1.775   4.883  -2.026  0.00  0.00    +0.265 C 
ATOM      5  O   UNL     1      -1.475   6.062  -2.022  0.00  0.00    -0.268 OA
ATOM      6  H   UNL     1      -1.088   3.010  -1.731  0.00  0.00    +0.171 HD
BRANCH   4   7
ATOM      7  C   UNL     1      -3.144   4.476  -2.355  0.00  0.00    +0.076 A 
ATOM      8  C   UNL     1      -4.229   5.261  -2.685  0.00  0.00    +0.024 A 
ATOM      9  C   UNL     1      -5.442   4.628  -2.960  0.00  0.00    -0.036 A 
ATOM     10  C   UNL     1      -5.456   3.271  -2.877  0.00  0.00    -0.006 A 
ATOM     11  S   UNL     1      -3.841   2.837  -2.441  0.00  0.00    -0.088 S 
ATOM     12  C   UNL     1      -6.813   2.704  -3.189  0.00  0.00    +0.043 C 
ATOM     13  C   UNL     1      -7.777   3.904  -3.059  0.00  0.00    +0.010 C 
ATOM     14  C   UNL     1      -6.845   5.094  -3.357  0.00  0.00    +0.036 C 
ENDBRANCH   4   7
ENDBRANCH   1   3
BRANCH   1  15
ATOM     15  S   UNL     1       1.149   3.850   0.012  0.00  0.00    +0.076 S 
ATOM     16  O   UNL     1       0.258   4.239   1.048  0.00  0.00    -0.152 OA
ATOM     17  O   UNL     1       2.505   4.275  -0.026  0.00  0.00    -0.152 OA
BRANCH  15  21
ATOM     18  C   UNL     1       1.208  -0.679  -0.013  0.00  0.00    +0.041 A 
ATOM     19  C   UNL     1       0.002  -0.004   0.002  0.00  0.00    +0.043 A 
ATOM     20  C   UNL     1      -0.017   1.380   0.010  0.00  0.00    +0.150 A 
ATOM     21  C   UNL     1       1.173   2.089   0.002  0.00  0.00    +0.145 A 
ATOM     22  C   UNL     1       2.379   1.414  -0.013  0.00  0.00    +0.069 A 
ATOM     23  C   UNL     1       2.397   0.030  -0.021  0.00  0.00    +0.125 A 
ATOM     24  F   UNL     1       3.576  -0.630  -0.035  0.00  0.00    -0.205 F 
ATOM     25  F   UNL     1      -1.196   2.040   0.019  0.00  0.00    -0.203 F 
ENDBRANCH  15  21
ENDBRANCH   1  15
TORSDOF 4
