REMARK  Name = ZINC16766724
REMARK  7 active torsions:
REMARK  status: ('A' for Active; 'I' for Inactive)
REMARK    1  A    between atoms: C_1  and  C_2
REMARK    2  A    between atoms: C_2  and  C_4
REMARK    3  A    between atoms: C_2  and  S_19
REMARK    4  A    between atoms: C_16  and  C_17
REMARK    5  A    between atoms: C_16  and  C_18
REMARK    6  A    between atoms: S_19  and  C_20
REMARK    7  A    between atoms: N_22  and  C_26
REMARK                            x       y       z     vdW  Elec       q    Type
REMARK                         _______ _______ _______ _____ _____    ______ ____
ROOT
ATOM      1  C   UNL     1       0.276  -1.807   4.098  0.00  0.00    +0.029 C 
ATOM      2  C   UNL     1       1.251  -0.736   3.604  0.00  0.00    +0.136 C 
ENDROOT
BRANCH   2   3
ATOM      3  C   UNL     1       0.627   0.024   2.462  0.00  0.00    +0.234 C 
ATOM      4  O   UNL     1       0.630  -0.450   1.346  0.00  0.00    -0.274 OA
ATOM      5  N   UNL     1       0.066   1.229   2.682  0.00  0.00    -0.255 N 
ATOM      6  C   UNL     1       0.054   1.800   3.964  0.00  0.00    +0.059 A 
ATOM      7  C   UNL     1       0.034   1.009   5.098  0.00  0.00    +0.025 A 
ATOM      8  C   UNL     1       0.018   1.602   6.348  0.00  0.00    +0.002 A 
ATOM      9  C   UNL     1       0.023   2.980   6.464  0.00  0.00    +0.002 A 
ATOM     10  C   UNL     1       0.046   3.777   5.334  0.00  0.00    +0.025 A 
ATOM     11  C   UNL     1       0.063   3.192   4.078  0.00  0.00    +0.055 A 
ATOM     12  N   UNL     1       0.091   3.979   2.922  0.00  0.00    -0.282 N 
ATOM     13  C   UNL     1      -0.171   3.441   1.716  0.00  0.00    +0.241 C 
ATOM     14  O   UNL     1      -0.097   4.133   0.722  0.00  0.00    -0.273 OA
ATOM     15  C   UNL     1      -0.553   1.989   1.585  0.00  0.00    +0.113 C 
ATOM     16  C   UNL     1      -0.057   1.447   0.243  0.00  0.00    +0.042 C 
ATOM     17  C   UNL     1      -2.075   1.849   1.661  0.00  0.00    +0.042 C 
ATOM     18  H   UNL     1       0.302   4.923   2.990  0.00  0.00    +0.155 HD
ENDBRANCH   2   3
BRANCH   2  19
ATOM     19  S   UNL     1       2.780  -1.525   3.041  0.00  0.00    -0.085 S 
BRANCH  19  20
ATOM     20  C   UNL     1       3.359  -2.193   4.565  0.00  0.00    +0.158 A 
ATOM     21  N   UNL     1       4.443  -2.888   4.801  0.00  0.00    -0.151 NA
ATOM     22  N   UNL     1       4.728  -3.327   6.074  0.00  0.00    -0.217 N 
ATOM     23  C   UNL     1       3.863  -3.025   7.074  0.00  0.00    +0.150 A 
ATOM     24  S   UNL     1       3.941  -3.425   8.737  0.00  0.00    -0.023 S 
ATOM     25  S   UNL     1       2.624  -2.091   6.189  0.00  0.00    -0.034 S 
BRANCH  22  26
ATOM     26  C   UNL     1       5.885  -4.069   6.331  0.00  0.00    +0.067 A 
ATOM     27  C   UNL     1       6.564  -3.906   7.532  0.00  0.00    +0.029 A 
ATOM     28  C   UNL     1       7.704  -4.644   7.785  0.00  0.00    +0.022 A 
ATOM     29  C   UNL     1       8.176  -5.537   6.839  0.00  0.00    +0.041 A 
ATOM     30  C   UNL     1       7.504  -5.698   5.639  0.00  0.00    +0.022 A 
ATOM     31  C   UNL     1       6.361  -4.966   5.383  0.00  0.00    +0.029 A 
ATOM     32 CL   UNL     1       9.613  -6.457   7.157  0.00  0.00    -0.084 Cl
ENDBRANCH  22  26
ENDBRANCH  19  20
ENDBRANCH   2  19
TORSDOF 4
