REMARK  Name = ZINC56593984
REMARK  10 active torsions:
REMARK  status: ('A' for Active; 'I' for Inactive)
REMARK    1  A    between atoms: C_1  and  C_2
REMARK    2  A    between atoms: C_5  and  N_15
REMARK    3  A    between atoms: C_6  and  O_8
REMARK    4  A    between atoms: O_8  and  C_9
REMARK    5  A    between atoms: C_9  and  C_10
REMARK    6  A    between atoms: N_12  and  C_13
REMARK    7  A    between atoms: N_12  and  C_14
REMARK    8  A    between atoms: N_18  and  C_19
REMARK    9  A    between atoms: C_19  and  C_20
REMARK   10  A    between atoms: C_20  and  C_23
REMARK                            x       y       z     vdW  Elec       q    Type
REMARK                         _______ _______ _______ _____ _____    ______ ____
ROOT
ATOM      1  N   UNL     1       0.050  -4.182  -0.021  0.00  0.00    -0.266 N 
ATOM      2  C   UNL     1       0.548  -4.837  -1.088  0.00  0.00    +0.304 C 
ATOM      3  O   UNL     1       1.063  -4.215  -1.997  0.00  0.00    -0.253 OA
ATOM      4  N   UNL     1       0.477  -6.182  -1.147  0.00  0.00    -0.298 N 
ATOM      5  H   UNL     1      -0.286  -4.680   0.741  0.00  0.00    +0.156 HD
ATOM      6  H   UNL     1       0.066  -6.678  -0.421  0.00  0.00    +0.150 HD
ENDROOT
BRANCH   1  11
ATOM      7  C   UNL     1      -0.088   1.495   0.010  0.00  0.00    +0.044 C 
ATOM      8  C   UNL     1      -0.051  -0.011   0.004  0.00  0.00    -0.047 A 
ATOM      9  C   UNL     1      -0.041  -0.696  -1.196  0.00  0.00    +0.005 A 
ATOM     10  C   UNL     1      -0.007  -2.078  -1.208  0.00  0.00    +0.027 A 
ATOM     11  C   UNL     1       0.016  -2.780  -0.012  0.00  0.00    +0.077 A 
ATOM     12  C   UNL     1       0.006  -2.090   1.198  0.00  0.00    +0.143 A 
ATOM     13  C   UNL     1      -0.022  -0.705   1.200  0.00  0.00    +0.051 A 
BRANCH  12  14
ATOM     14  O   UNL     1       0.028  -2.773   2.373  0.00  0.00    -0.481 OA
BRANCH  14  15
ATOM     15  C   UNL     1       0.016  -1.999   3.574  0.00  0.00    +0.324 C 
BRANCH  15  16
ATOM     16  C   UNL     1       0.044  -2.921   4.766  0.00  0.00    +0.253 C 
ATOM     17  O   UNL     1       0.072  -4.122   4.603  0.00  0.00    -0.272 OA
ATOM     18  N   UNL     1       0.038  -2.410   6.013  0.00  0.00    -0.305 N 
ATOM     19  C   UNL     1       0.066  -3.306   7.172  0.00  0.00    +0.131 C 
ATOM     20  C   UNL     1       0.004  -0.959   6.210  0.00  0.00    +0.131 C 
ENDBRANCH  15  16
ENDBRANCH  14  15
ENDBRANCH  12  14
ENDBRANCH   1  11
BRANCH   4  21
ATOM     21  C   UNL     1       1.019  -6.894  -2.306  0.00  0.00    +0.117 C 
BRANCH  21  22
ATOM     22  C   UNL     1       0.701  -8.386  -2.183  0.00  0.00    +0.011 C 
ATOM     23  C   UNL     1      -0.066  -9.041  -3.333  0.00  0.00    +0.014 C 
ATOM     24  C   UNL     1      -0.765  -8.782  -1.996  0.00  0.00    +0.014 C 
BRANCH  22  25
ATOM     25  C   UNL     1       1.742  -9.216  -1.477  0.00  0.00    -0.040 A 
ATOM     26  C   UNL     1       3.053  -9.201  -1.917  0.00  0.00    +0.004 A 
ATOM     27  C   UNL     1       4.007  -9.962  -1.269  0.00  0.00    +0.000 A 
ATOM     28  C   UNL     1       3.652 -10.739  -0.182  0.00  0.00    +0.000 A 
ATOM     29  C   UNL     1       2.341 -10.754   0.258  0.00  0.00    +0.000 A 
ATOM     30  C   UNL     1       1.387  -9.989  -0.387  0.00  0.00    +0.004 A 
ENDBRANCH  22  25
ENDBRANCH  21  22
ENDBRANCH   4  21
TORSDOF 7
