REMARK  Name = ZINC59459381
REMARK  5 active torsions:
REMARK  status: ('A' for Active; 'I' for Inactive)
REMARK    1  A    between atoms: C_1  and  C_2
REMARK    2  A    between atoms: C_7  and  N_8
REMARK    3  A    between atoms: C_14  and  C_15
REMARK    4  A    between atoms: C_18  and  O_23
REMARK    5  A    between atoms: C_20  and  O_21
REMARK                            x       y       z     vdW  Elec       q    Type
REMARK                         _______ _______ _______ _____ _____    ______ ____
ROOT
ATOM      1  N   UNL     1       0.570  -0.003   2.502  0.00  0.00    -0.225 NA
ATOM      2  C   UNL     1       0.358  -0.678   3.610  0.00  0.00    +0.166 C 
ATOM      3  N   UNL     1       0.178  -0.195   4.888  0.00  0.00    -0.260 N 
ATOM      4  C   UNL     1      -0.026  -1.023   5.898  0.00  0.00    +0.256 C 
ATOM      5  O   UNL     1      -0.187  -0.613   7.033  0.00  0.00    -0.269 OA
ATOM      6  C   UNL     1      -0.051  -2.463   5.590  0.00  0.00    +0.078 C 
ATOM      7  C   UNL     1      -0.239  -3.520   6.423  0.00  0.00    +0.032 C 
ATOM      8  S   UNL     1       0.225  -2.446   3.824  0.00  0.00    -0.049 S 
ATOM      9  H   UNL     1       0.202   0.761   5.047  0.00  0.00    +0.157 HD
ENDROOT
BRANCH   7  10
ATOM     10  C   UNL     1      -0.065  -4.888   5.923  0.00  0.00    +0.020 A 
ATOM     11  C   UNL     1       0.647  -5.119   4.738  0.00  0.00    +0.030 A 
ATOM     12  C   UNL     1       0.808  -6.404   4.273  0.00  0.00    +0.061 A 
ATOM     13  C   UNL     1       0.265  -7.477   4.975  0.00  0.00    +0.148 A 
ATOM     14  C   UNL     1      -0.442  -7.260   6.150  0.00  0.00    +0.102 A 
ATOM     15  C   UNL     1      -0.607  -5.973   6.632  0.00  0.00    +0.141 A 
ATOM     16 BR   UNL     1      -1.175  -8.724   7.095  0.00  0.00    -0.043 Br
ATOM     17 BR   UNL     1       1.769  -6.714   2.675  0.00  0.00    -0.046 Br
BRANCH  15  18
ATOM     18  O   UNL     1      -1.294  -5.760   7.784  0.00  0.00    -0.505 OA
ATOM     19  H   UNL     1      -2.243  -5.625   7.656  0.00  0.00    +0.292 HD
ENDBRANCH  15  18
BRANCH  13  20
ATOM     20  O   UNL     1       0.428  -8.742   4.509  0.00  0.00    -0.504 OA
ATOM     21  H   UNL     1       1.223  -9.183   4.838  0.00  0.00    +0.292 HD
ENDBRANCH  13  20
ENDBRANCH   7  10
BRANCH   1  28
ATOM     22  C   UNL     1       2.760   0.540   0.775  0.00  0.00    +0.046 C 
ATOM     23  C   UNL     1       1.663  -0.426   0.412  0.00  0.00    -0.025 A 
ATOM     24  C   UNL     1       1.699  -1.092  -0.796  0.00  0.00    +0.005 A 
ATOM     25  C   UNL     1       0.692  -1.979  -1.131  0.00  0.00    +0.000 A 
ATOM     26  C   UNL     1      -0.358  -2.206  -0.258  0.00  0.00    +0.002 A 
ATOM     27  C   UNL     1      -0.407  -1.548   0.953  0.00  0.00    +0.028 A 
ATOM     28  C   UNL     1       0.609  -0.655   1.300  0.00  0.00    +0.069 A 
ENDBRANCH   1  28
TORSDOF 4
