REMARK  Name = ZINC39530689
REMARK  10 active torsions:
REMARK  status: ('A' for Active; 'I' for Inactive)
REMARK    1  A    between atoms: C_1  and  C_2
REMARK    2  A    between atoms: C_2  and  C_3
REMARK    3  A    between atoms: C_2  and  S_4
REMARK    4  A    between atoms: S_4  and  C_7
REMARK    5  A    between atoms: C_9  and  C_30
REMARK    6  A    between atoms: C_12  and  N_13
REMARK    7  A    between atoms: C_17  and  S_20
REMARK    8  A    between atoms: S_20  and  O_23
REMARK    9  A    between atoms: O_23  and  C_24
REMARK   10  A    between atoms: C_35  and  O_36
REMARK                            x       y       z     vdW  Elec       q    Type
REMARK                         _______ _______ _______ _____ _____    ______ ____
ROOT
ATOM      1  C   UNL     1      -1.237  -2.362   0.141  0.00  0.00    +0.110 A 
ATOM      2  C   UNL     1      -1.722  -3.115   1.189  0.00  0.00    +0.037 A 
ATOM      3  C   UNL     1      -1.719  -4.506   1.106  0.00  0.00    -0.012 A 
ATOM      4  C   UNL     1      -1.227  -5.133  -0.038  0.00  0.00    +0.010 A 
ATOM      5  C   UNL     1      -0.744  -4.376  -1.084  0.00  0.00    +0.025 A 
ATOM      6  C   UNL     1      -0.752  -2.989  -1.001  0.00  0.00    +0.055 A 
ENDROOT
BRANCH   6   7
ATOM      7  N   UNL     1      -0.267  -2.224  -2.063  0.00  0.00    -0.330 N 
ATOM      8  C   UNL     1       1.121  -1.736  -2.072  0.00  0.00    +0.086 C 
ATOM      9  C   UNL     1       1.756  -2.103  -3.418  0.00  0.00    -0.061 C 
ATOM     10  N   UNL     1       0.923  -1.581  -4.509  0.00  0.00    +0.398 N 
ATOM     11  C   UNL     1      -0.388  -2.243  -4.497  0.00  0.00    +0.133 C 
ATOM     12  C   UNL     1      -1.128  -1.888  -3.208  0.00  0.00    +0.115 C 
ATOM     13  H   UNL     1       0.797  -0.588  -4.390  0.00  0.00    -0.083 HD
ATOM     14  H   UNL     1       1.379  -1.757  -5.392  0.00  0.00    -0.083 HD
BRANCH  11  15
ATOM     15  S   UNL     1      -1.359  -1.688  -5.926  0.00  0.00    +0.109 S 
ATOM     16  O   UNL     1      -2.555  -2.448  -6.030  0.00  0.00    -0.138 OA
ATOM     17  O   UNL     1      -1.396  -0.268  -5.971  0.00  0.00    -0.138 OA
BRANCH  15  18
ATOM     18  O   UNL     1      -0.534  -2.093  -7.140  0.00  0.00    -0.347 OA
BRANCH  18  19
ATOM     19  C   UNL     1      -0.574  -3.423  -7.416  0.00  0.00    +0.156 A 
ATOM     20  C   UNL     1       0.357  -4.279  -6.846  0.00  0.00    +0.048 A 
ATOM     21  C   UNL     1       0.315  -5.631  -7.128  0.00  0.00    +0.004 A 
ATOM     22  C   UNL     1      -0.654  -6.131  -7.977  0.00  0.00    +0.000 A 
ATOM     23  C   UNL     1      -1.583  -5.280  -8.547  0.00  0.00    +0.004 A 
ATOM     24  C   UNL     1      -1.549  -3.928  -8.264  0.00  0.00    +0.048 A 
ENDBRANCH  18  19
ENDBRANCH  15  18
ENDBRANCH  11  15
ENDBRANCH   6   7
BRANCH   3  25
ATOM     25  C   UNL     1      -2.239  -5.319   2.232  0.00  0.00    +0.024 A 
ATOM     26  C   UNL     1      -1.804  -5.072   3.533  0.00  0.00    +0.012 A 
ATOM     27  C   UNL     1      -2.291  -5.831   4.578  0.00  0.00    +0.001 A 
ATOM     28  C   UNL     1      -3.211  -6.837   4.339  0.00  0.00    +0.004 A 
ATOM     29  C   UNL     1      -3.649  -7.090   3.053  0.00  0.00    +0.046 A 
ATOM     30  C   UNL     1      -3.173  -6.332   1.995  0.00  0.00    +0.125 A 
BRANCH  30  31
ATOM     31  O   UNL     1      -3.607  -6.577   0.732  0.00  0.00    -0.506 OA
ATOM     32  H   UNL     1      -3.076  -7.226   0.252  0.00  0.00    +0.292 HD
ENDBRANCH  30  31
ENDBRANCH   3  25
BRANCH   1  33
ATOM     33  S   UNL     1      -1.240  -0.603   0.245  0.00  0.00    +0.001 S 
ATOM     34  O   UNL     1      -2.483  -0.278   0.853  0.00  0.00    -0.169 OA
ATOM     35  O   UNL     1      -0.940  -0.161  -1.071  0.00  0.00    -0.169 OA
BRANCH  33  37
ATOM     36  C   UNL     1       0.263   1.319   1.481  0.00  0.00    +0.032 C 
ATOM     37  C   UNL     1       0.127  -0.200   1.367  0.00  0.00    +0.130 C 
ATOM     38  C   UNL     1      -0.156  -0.792   2.749  0.00  0.00    +0.032 C 
ENDBRANCH  33  37
ENDBRANCH   1  33
TORSDOF 8
