REMARK  Name = ZINC06409209
REMARK  6 active torsions:
REMARK  status: ('A' for Active; 'I' for Inactive)
REMARK    1  A    between atoms: C_1  and  C_2
REMARK    2  A    between atoms: C_9  and  C_14
REMARK    3  A    between atoms: C_14  and  C_16
REMARK    4  A    between atoms: C_14  and  N_71
REMARK    5  A    between atoms: N_20  and  C_21
REMARK    6  A    between atoms: C_21  and  C_22
REMARK                            x       y       z     vdW  Elec       q    Type
REMARK                         _______ _______ _______ _____ _____    ______ ____
ROOT
ATOM      1  C   UNL     1      -1.294  -0.772   0.011  0.00  0.00    +0.039 C 
ENDROOT
BRANCH   1  10
ATOM      2  C   UNL     1       5.185   0.371   3.522  0.00  0.00    +0.044 C 
ATOM      3  C   UNL     1       4.268   0.601   2.348  0.00  0.00    -0.050 A 
ATOM      4  C   UNL     1       4.682   1.410   1.299  0.00  0.00    +0.005 A 
ATOM      5  C   UNL     1       3.860   1.634   0.216  0.00  0.00    +0.026 A 
ATOM      6  C   UNL     1       2.601   1.043   0.172  0.00  0.00    +0.049 A 
ATOM      7  C   UNL     1       2.184   0.223   1.237  0.00  0.00    -0.001 A 
ATOM      8  C   UNL     1       3.036   0.010   2.326  0.00  0.00    +0.013 A 
ATOM      9  C   UNL     1       0.858  -0.394   1.181  0.00  0.00    +0.017 A 
ATOM     10  C   UNL     1       0.076  -0.152   0.100  0.00  0.00    +0.011 A 
ATOM     11  C   UNL     1       0.541   0.679  -0.942  0.00  0.00    +0.251 A 
ATOM     12  O   UNL     1      -0.178   0.884  -1.904  0.00  0.00    -0.268 OA
ATOM     13  N   UNL     1       1.758   1.250  -0.899  0.00  0.00    -0.322 N 
ATOM     14  H   UNL     1       2.046   1.816  -1.632  0.00  0.00    +0.169 HD
ENDBRANCH   1  10
BRANCH   1  25
ATOM     15  C   UNL     1      -0.271  -2.580  -1.233  0.00  0.00    -0.077 C 
ATOM     16  C   UNL     1      -0.302  -3.335  -2.564  0.00  0.00    -0.018 C 
ATOM     17  C   UNL     1      -1.645  -4.057  -2.704  0.00  0.00    +0.003 C 
ATOM     18  C   UNL     1      -2.778  -3.032  -2.610  0.00  0.00    -0.044 C 
ATOM     19  C   UNL     1      -2.676  -2.286  -1.278  0.00  0.00    -0.071 C 
ATOM     20  C   UNL     1      -2.661  -2.036  -3.765  0.00  0.00    +0.005 C 
ATOM     21  C   UNL     1      -3.794  -1.012  -3.673  0.00  0.00    +0.000 C 
ATOM     22  C   UNL     1      -5.141  -1.734  -3.756  0.00  0.00    +0.000 C 
ATOM     23  C   UNL     1      -5.258  -2.729  -2.600  0.00  0.00    +0.000 C 
ATOM     24  C   UNL     1      -4.125  -3.753  -2.691  0.00  0.00    +0.005 C 
ATOM     25  N   UNL     1      -1.372  -1.593  -1.216  0.00  0.00    +0.390 N 
ATOM     26  H   UNL     1      -1.281  -0.979  -2.034  0.00  0.00    -0.080 HD
ENDBRANCH   1  25
BRANCH   1  27
ATOM     27  C   UNL     1      -1.542  -1.620   1.232  0.00  0.00    +0.143 A 
ATOM     28  N   UNL     1      -1.034  -2.803   1.480  0.00  0.00    -0.115 NA
ATOM     29  N   UNL     1      -1.483  -3.197   2.621  0.00  0.00    -0.023 NA
ATOM     30  N   UNL     1      -2.272  -2.301   3.104  0.00  0.00    -0.044 NA
ATOM     31  N   UNL     1      -2.334  -1.313   2.276  0.00  0.00    -0.228 N 
BRANCH  31  32
ATOM     32  C   UNL     1      -3.119  -0.087   2.442  0.00  0.00    +0.178 C 
BRANCH  32  33
ATOM     33  C   UNL     1      -4.510  -0.286   1.837  0.00  0.00    +0.140 C 
ATOM     34  C   UNL     1      -5.304   1.036   1.903  0.00  0.00    +0.035 C 
ATOM     35  C   UNL     1      -6.732   0.544   2.265  0.00  0.00    +0.031 C 
ATOM     36  C   UNL     1      -6.405  -0.669   3.171  0.00  0.00    +0.160 C 
ATOM     37  O   UNL     1      -5.233  -1.265   2.592  0.00  0.00    -0.375 OA
ENDBRANCH  32  33
ENDBRANCH  31  32
ENDBRANCH   1  27
TORSDOF 5
