REMARK  Name = ZINC39276997
REMARK  11 active torsions:
REMARK  status: ('A' for Active; 'I' for Inactive)
REMARK    1  A    between atoms: C_1  and  C_2
REMARK    2  A    between atoms: C_2  and  O_3
REMARK    3  A    between atoms: O_3  and  C_4
REMARK    4  A    between atoms: C_6  and  C_12
REMARK    5  A    between atoms: C_9  and  O_10
REMARK    6  A    between atoms: C_12  and  C_14
REMARK    7  A    between atoms: C_12  and  C_22
REMARK    8  A    between atoms: C_16  and  C_21
REMARK    9  A    between atoms: C_19  and  O_20
REMARK   10  A    between atoms: C_23  and  C_29
REMARK   11  A    between atoms: C_26  and  O_28
REMARK                            x       y       z     vdW  Elec       q    Type
REMARK                         _______ _______ _______ _____ _____    ______ ____
ROOT
ATOM      1  C   UNL     1      -0.251  -5.002   0.466  0.00  0.00    +0.088 C 
ENDROOT
BRANCH   1   4
ATOM      2  C   UNL     1       1.657  -2.301  -1.361  0.00  0.00    +0.163 A 
ATOM      3  C   UNL     1       0.904  -2.959  -0.402  0.00  0.00    +0.054 A 
ATOM      4  C   UNL     1       0.568  -4.288  -0.579  0.00  0.00    -0.031 A 
ATOM      5  C   UNL     1       0.983  -4.965  -1.711  0.00  0.00    +0.022 A 
ATOM      6  C   UNL     1       1.735  -4.314  -2.671  0.00  0.00    +0.059 A 
ATOM      7  C   UNL     1       2.070  -2.979  -2.503  0.00  0.00    +0.172 A 
ATOM      8  I   UNL     1       2.362  -5.343  -4.385  0.00  0.00    -0.040 I 
BRANCH   7   9
ATOM      9  O   UNL     1       2.804  -2.336  -3.450  0.00  0.00    -0.503 OA
ATOM     10  H   UNL     1       3.760  -2.392  -3.312  0.00  0.00    +0.292 HD
ENDBRANCH   7   9
BRANCH   2  11
ATOM     11  O   UNL     1       1.988  -0.993  -1.188  0.00  0.00    -0.489 OA
BRANCH  11  13
ATOM     12  C   UNL     1       1.996   1.097   0.026  0.00  0.00    +0.048 C 
ATOM     13  C   UNL     1       1.530  -0.361   0.009  0.00  0.00    +0.226 C 
ENDBRANCH  11  13
ENDBRANCH   2  11
ENDBRANCH   1   4
BRANCH   1  14
ATOM     14  C   UNL     1      -1.405  -5.708  -0.198  0.00  0.00    +0.047 A 
ATOM     15  C   UNL     1      -2.113  -5.255  -1.258  0.00  0.00    +0.041 A 
ATOM     16  N   UNL     1      -3.057  -6.175  -1.548  0.00  0.00    -0.278 N 
ATOM     17  N   UNL     1      -2.927  -7.231  -0.638  0.00  0.00    -0.136 NA
ATOM     18  C   UNL     1      -1.932  -6.955   0.170  0.00  0.00    +0.236 A 
ATOM     19  C   UNL     1      -1.889  -3.954  -1.984  0.00  0.00    +0.065 C 
ATOM     20  H   UNL     1      -3.710  -6.115  -2.263  0.00  0.00    +0.189 HD
BRANCH  18  22
ATOM     21  H   UNL     1      -1.869  -7.516   2.051  0.00  0.00    +0.294 HD
ATOM     22  O   UNL     1      -1.490  -7.739   1.190  0.00  0.00    -0.491 OA
ENDBRANCH  18  22
ENDBRANCH   1  14
BRANCH   1  23
ATOM     23  C   UNL     1       0.612  -6.011   1.179  0.00  0.00    +0.017 C 
ATOM     24  C   UNL     1       0.847  -6.113   2.489  0.00  0.00    +0.065 C 
ATOM     25  N   UNL     1       1.676  -7.148   2.749  0.00  0.00    -0.156 NA
ATOM     26  N   UNL     1       2.042  -7.774   1.751  0.00  0.00    -0.151 NA
ATOM     27  C   UNL     1       1.413  -7.151   0.574  0.00  0.00    +0.284 C 
ATOM     28  C   UNL     1       0.265  -5.199   3.536  0.00  0.00    +0.067 C 
BRANCH  27  29
ATOM     29  O   UNL     1       2.407  -6.651  -0.322  0.00  0.00    -0.366 OA
ATOM     30  H   UNL     1       2.946  -7.339  -0.735  0.00  0.00    +0.212 HD
ENDBRANCH  27  29
ENDBRANCH   1  23
TORSDOF 8
