REMARK  Name = ZINC13065083
REMARK  13 active torsions:
REMARK  status: ('A' for Active; 'I' for Inactive)
REMARK    1  A    between atoms: C_1  and  C_2
REMARK    2  A    between atoms: C_2  and  C_3
REMARK    3  A    between atoms: C_3  and  C_5
REMARK    4  A    between atoms: C_3  and  N_73
REMARK    5  A    between atoms: N_9  and  C_10
REMARK    6  A    between atoms: C_10  and  C_11
REMARK    7  A    between atoms: C_14  and  O_17
REMARK    8  A    between atoms: O_17  and  C_18
REMARK    9  A    between atoms: C_19  and  C_20
REMARK   10  A    between atoms: C_19  and  N_73
REMARK   11  A    between atoms: C_25  and  C_33
REMARK   12  A    between atoms: C_26  and  C_32
REMARK   13  A    between atoms: C_34  and  N_73
REMARK                            x       y       z     vdW  Elec       q    Type
REMARK                         _______ _______ _______ _____ _____    ______ ____
ROOT
ATOM      1  N   UNL     1      -0.729   3.004   1.479  0.00  0.00    +0.391 N 
ATOM      2  H   UNL     1      -0.725   3.110   2.501  0.00  0.00    -0.080 HD
ENDROOT
BRANCH   1   3
ATOM      3  C   UNL     1       0.626   3.288   0.961  0.00  0.00    -0.067 C 
ATOM      4  C   UNL     1       1.585   2.149   1.364  0.00  0.00    -0.015 C 
ATOM      5  C   UNL     1       2.914   2.873   1.699  0.00  0.00    -0.002 C 
ATOM      6  C   UNL     1       2.432   4.167   2.401  0.00  0.00    -0.002 C 
ATOM      7  C   UNL     1       1.164   4.570   1.620  0.00  0.00    -0.015 C 
ENDBRANCH   1   3
BRANCH   1   8
ATOM      8  C   UNL     1      -1.119   1.619   1.142  0.00  0.00    +0.003 C 
BRANCH   8   9
ATOM      9  C   UNL     1      -1.259   1.458  -0.350  0.00  0.00    +0.138 A 
ATOM     10  N   UNL     1      -1.924   2.243  -1.163  0.00  0.00    -0.115 NA
ATOM     11  N   UNL     1      -1.804   1.773  -2.356  0.00  0.00    -0.023 NA
ATOM     12  N   UNL     1      -1.086   0.705  -2.325  0.00  0.00    -0.044 NA
ATOM     13  N   UNL     1      -0.732   0.477  -1.106  0.00  0.00    -0.226 N 
BRANCH  13  14
ATOM     14  C   UNL     1       0.091  -0.639  -0.632  0.00  0.00    +0.182 C 
BRANCH  14  15
ATOM     15  C   UNL     1      -0.798  -1.802  -0.276  0.00  0.00    -0.026 A 
ATOM     16  C   UNL     1      -1.288  -1.927   1.011  0.00  0.00    +0.009 A 
ATOM     17  C   UNL     1      -2.108  -2.989   1.340  0.00  0.00    +0.046 A 
ATOM     18  C   UNL     1      -2.431  -3.937   0.380  0.00  0.00    +0.120 A 
ATOM     19  C   UNL     1      -1.933  -3.813  -0.909  0.00  0.00    +0.046 A 
ATOM     20  C   UNL     1      -1.118  -2.746  -1.234  0.00  0.00    +0.009 A 
BRANCH  18  21
ATOM     21  O   UNL     1      -3.233  -4.986   0.702  0.00  0.00    -0.495 OA
ATOM     22  C   UNL     1      -3.709  -5.050   2.047  0.00  0.00    +0.277 C 
ENDBRANCH  18  21
ENDBRANCH  14  15
ENDBRANCH  13  14
ENDBRANCH   8   9
BRANCH   8  24
ATOM     23  C   UNL     1      -2.284   1.354   3.336  0.00  0.00    +0.002 C 
ATOM     24  C   UNL     1      -2.455   1.303   1.817  0.00  0.00    -0.011 C 
ENDBRANCH   8  24
ENDBRANCH   1   8
BRANCH   1  25
ATOM     25  C   UNL     1      -1.700   3.957   0.902  0.00  0.00    -0.036 C 
BRANCH  25  26
ATOM     26  C   UNL     1      -1.537   5.289   1.588  0.00  0.00    +0.001 A 
ATOM     27  C   UNL     1      -0.922   6.311   0.943  0.00  0.00    +0.017 A 
ATOM     28  C   UNL     1      -0.779   7.592   1.637  0.00  0.00    -0.001 A 
ATOM     29  C   UNL     1      -0.155   8.682   1.023  0.00  0.00    +0.010 A 
ATOM     30  C   UNL     1      -0.038   9.864   1.698  0.00  0.00    +0.004 A 
ATOM     31  C   UNL     1      -0.533   9.993   2.988  0.00  0.00    -0.046 A 
ATOM     32  C   UNL     1      -1.151   8.932   3.613  0.00  0.00    -0.024 A 
ATOM     33  C   UNL     1      -1.283   7.718   2.946  0.00  0.00    +0.052 A 
ATOM     34  N   UNL     1      -1.898   6.641   3.546  0.00  0.00    -0.322 N 
ATOM     35  H   UNL     1      -2.244   6.730   4.448  0.00  0.00    +0.169 HD
ATOM     36  C   UNL     1      -2.029   5.470   2.899  0.00  0.00    +0.251 A 
ATOM     37  O   UNL     1      -2.583   4.540   3.459  0.00  0.00    -0.268 OA
ATOM     38  C   UNL     1      -1.684   9.085   5.015  0.00  0.00    +0.046 C 
ATOM     39  C   UNL     1      -0.392  11.306   3.713  0.00  0.00    +0.044 C 
ENDBRANCH  25  26
ENDBRANCH   1  25
TORSDOF 9
