REMARK  Name = ZINC63351553
REMARK  4 active torsions:
REMARK  status: ('A' for Active; 'I' for Inactive)
REMARK    1  A    between atoms: C_1  and  O_2
REMARK    2  A    between atoms: O_2  and  C_3
REMARK    3  A    between atoms: C_6  and  N_9
REMARK    4  A    between atoms: C_12  and  C_19
REMARK                            x       y       z     vdW  Elec       q    Type
REMARK                         _______ _______ _______ _____ _____    ______ ____
ROOT
ATOM      1  N   UNL     1       3.565  -2.288  -6.409  0.00  0.00    -0.256 N 
ATOM      2  C   UNL     1       3.529  -3.629  -6.548  0.00  0.00    +0.268 A 
ATOM      3  O   UNL     1       3.929  -4.151  -7.574  0.00  0.00    -0.267 OA
ATOM      4  C   UNL     1       3.027  -4.421  -5.500  0.00  0.00    +0.101 A 
ATOM      5  C   UNL     1       2.586  -3.812  -4.362  0.00  0.00    +0.261 A 
ATOM      6  N   UNL     1       2.640  -2.445  -4.263  0.00  0.00    -0.302 N 
ATOM      7  H   UNL     1       2.328  -2.008  -3.456  0.00  0.00    +0.171 HD
ATOM      8  C   UNL     1       3.129  -1.707  -5.276  0.00  0.00    +0.168 A 
ATOM      9  S   UNL     1       3.192  -0.003  -5.125  0.00  0.00    -0.012 S 
ATOM     10  O   UNL     1       2.099  -4.549  -3.341  0.00  0.00    -0.267 OA
ENDROOT
BRANCH   4  11
ATOM     11  C   UNL     1       2.977  -5.921  -5.633  0.00  0.00    +0.121 C 
ATOM     12  C   UNL     1       3.732  -6.567  -4.469  0.00  0.00    +0.128 C 
ATOM     13  C   UNL     1       2.938  -6.237  -3.210  0.00  0.00    -0.035 C 
ATOM     14  C   UNL     1       3.790  -5.671  -2.367  0.00  0.00    -0.001 A 
ATOM     15  C   UNL     1       3.639  -5.218  -0.975  0.00  0.00    +0.010 A 
ATOM     16  C   UNL     1       4.737  -4.656  -0.404  0.00  0.00    +0.001 A 
ATOM     17  C   UNL     1       5.956  -4.501  -1.071  0.00  0.00    +0.002 A 
ATOM     18  C   UNL     1       6.186  -4.894  -2.349  0.00  0.00    +0.026 A 
ATOM     19  C   UNL     1       5.108  -5.504  -3.053  0.00  0.00    +0.043 A 
ATOM     20  N   UNL     1       5.064  -5.996  -4.276  0.00  0.00    -0.376 N 
ATOM     21  C   UNL     1       1.450  -6.476  -3.127  0.00  0.00    +0.048 C 
ATOM     22  C   UNL     1       0.848  -5.884  -4.415  0.00  0.00    +0.086 C 
ATOM     23  N   UNL     1       1.578  -6.376  -5.587  0.00  0.00    -0.307 NA
ATOM     24  H   UNL     1       1.094  -6.142  -6.441  0.00  0.00    +0.123 HD
ATOM     25  H   UNL     1       5.776  -5.981  -4.934  0.00  0.00    +0.160 HD
ENDBRANCH   4  11
BRANCH   1  29
ATOM     26  C   UNL     1       5.052   0.073  -9.509  0.00  0.00    +0.120 A 
ATOM     27  C   UNL     1       5.909  -0.401  -8.525  0.00  0.00    +0.047 A 
ATOM     28  C   UNL     1       5.417  -1.182  -7.499  0.00  0.00    +0.030 A 
ATOM     29  C   UNL     1       4.065  -1.494  -7.451  0.00  0.00    +0.052 A 
ATOM     30  C   UNL     1       3.208  -1.020  -8.435  0.00  0.00    +0.030 A 
ATOM     31  C   UNL     1       3.700  -0.234  -9.458  0.00  0.00    +0.047 A 
BRANCH  26  33
ATOM     32  C   UNL     1       6.939   1.119 -10.509  0.00  0.00    +0.277 C 
ATOM     33  O   UNL     1       5.537   0.843 -10.519  0.00  0.00    -0.495 OA
ENDBRANCH  26  33
ENDBRANCH   1  29
TORSDOF 3
