REMARK  Name = ZINC44737225
REMARK  12 active torsions:
REMARK  status: ('A' for Active; 'I' for Inactive)
REMARK    1  A    between atoms: C_1  and  C_2
REMARK    2  A    between atoms: C_9  and  C_11
REMARK    3  A    between atoms: C_11  and  C_13
REMARK    4  A    between atoms: C_11  and  N_14
REMARK    5  A    between atoms: C_15  and  C_17
REMARK    6  A    between atoms: C_28  and  C_30
REMARK    7  A    between atoms: C_32  and  O_40
REMARK    8  A    between atoms: C_33  and  O_38
REMARK    9  A    between atoms: C_34  and  O_36
REMARK   10  A    between atoms: O_36  and  C_37
REMARK   11  A    between atoms: O_38  and  C_39
REMARK   12  A    between atoms: O_40  and  C_41
REMARK                            x       y       z     vdW  Elec       q    Type
REMARK                         _______ _______ _______ _____ _____    ______ ____
ROOT
ATOM      1  C   UNL     1      -1.824  -9.073   0.425  0.00  0.00    +0.100 C 
ATOM      2  C   UNL     1      -0.532  -9.456  -0.331  0.00  0.00    +0.121 C 
ATOM      3  N   UNL     1      -0.009 -10.636   0.396  0.00  0.00    -0.296 N 
ATOM      4  C   UNL     1      -1.218 -11.424   0.738  0.00  0.00    +0.115 C 
ATOM      5  C   UNL     1      -2.273 -10.368   1.122  0.00  0.00    -0.004 C 
ATOM      6  C   UNL     1      -3.650 -10.789   0.619  0.00  0.00    -0.010 C 
ATOM      7  C   UNL     1      -4.100 -12.046   1.369  0.00  0.00    -0.082 C 
ATOM      8  N   UNL     1      -4.147 -11.768   2.809  0.00  0.00    +0.379 N 
ATOM      9  C   UNL     1      -2.801 -11.455   3.303  0.00  0.00    -0.082 C 
ATOM     10  C   UNL     1      -2.296 -10.172   2.635  0.00  0.00    -0.010 C 
ATOM     11  C   UNL     1       1.276 -10.928   0.682  0.00  0.00    +0.247 C 
ATOM     12  O   UNL     1       2.150 -10.118   0.444  0.00  0.00    -0.270 OA
ATOM     13  H   UNL     1      -4.758 -10.983   2.979  0.00  0.00    -0.086 HD
ATOM     14  H   UNL     1      -4.502 -12.578   3.295  0.00  0.00    -0.086 HD
ENDROOT
BRANCH  11  15
ATOM     15  C   UNL     1       1.620 -12.231   1.284  0.00  0.00    +0.044 A 
ATOM     16  C   UNL     1       0.745 -13.313   1.159  0.00  0.00    +0.062 A 
ATOM     17  C   UNL     1       1.070 -14.532   1.724  0.00  0.00    +0.166 A 
ATOM     18  C   UNL     1       2.268 -14.683   2.416  0.00  0.00    +0.204 A 
ATOM     19  C   UNL     1       3.143 -13.606   2.541  0.00  0.00    +0.166 A 
ATOM     20  C   UNL     1       2.825 -12.387   1.973  0.00  0.00    +0.062 A 
BRANCH  19  21
ATOM     21  O   UNL     1       4.313 -13.757   3.218  0.00  0.00    -0.491 OA
ATOM     22  C   UNL     1       5.162 -12.611   3.308  0.00  0.00    +0.277 C 
ENDBRANCH  19  21
BRANCH  18  23
ATOM     23  O   UNL     1       2.586 -15.882   2.970  0.00  0.00    -0.488 OA
ATOM     24  C   UNL     1       3.317 -16.801   2.155  0.00  0.00    +0.277 C 
ENDBRANCH  18  23
BRANCH  17  25
ATOM     25  O   UNL     1       0.218 -15.585   1.603  0.00  0.00    -0.491 OA
ATOM     26  C   UNL     1      -0.995 -15.360   0.881  0.00  0.00    +0.277 C 
ENDBRANCH  17  25
ENDBRANCH  11  15
BRANCH   1  28
ATOM     27  N   UNL     1      -2.527  -7.190   1.866  0.00  0.00    -0.305 N 
ATOM     28  C   UNL     1      -1.537  -8.000   1.444  0.00  0.00    +0.219 C 
ATOM     29  O   UNL     1      -0.414  -7.867   1.884  0.00  0.00    -0.275 OA
ATOM     30  H   UNL     1      -3.424  -7.296   1.514  0.00  0.00    +0.149 HD
BRANCH  27  31
ATOM     31  C   UNL     1      -2.248  -6.147   2.857  0.00  0.00    +0.136 C 
ATOM     32  C   UNL     1      -1.725  -4.896   2.148  0.00  0.00    +0.036 C 
BRANCH  31  41
ATOM     33  C   UNL     1      -7.677  -4.089   7.512  0.00  0.00    +0.044 C 
ATOM     34  C   UNL     1      -6.946  -4.610   6.302  0.00  0.00    -0.048 A 
ATOM     35  C   UNL     1      -7.664  -5.056   5.202  0.00  0.00    +0.005 A 
ATOM     36  C   UNL     1      -7.020  -5.533   4.095  0.00  0.00    +0.030 A 
ATOM     37  C   UNL     1      -5.624  -5.573   4.066  0.00  0.00    +0.089 A 
ATOM     38  C   UNL     1      -4.896  -5.121   5.179  0.00  0.00    +0.067 A 
ATOM     39  C   UNL     1      -5.567  -4.636   6.293  0.00  0.00    +0.031 A 
ATOM     40  N   UNL     1      -3.564  -5.284   4.855  0.00  0.00    -0.340 N 
ATOM     41  C   UNL     1      -3.514  -5.810   3.602  0.00  0.00    +0.128 A 
ATOM     42  N   UNL     1      -4.718  -5.979   3.140  0.00  0.00    -0.231 NA
ATOM     43  H   UNL     1      -2.804  -5.064   5.417  0.00  0.00    +0.167 HD
ENDBRANCH  31  41
ENDBRANCH  27  31
ENDBRANCH   1  28
TORSDOF 7
