REMARK  Name = ZINC38688705
REMARK  11 active torsions:
REMARK  status: ('A' for Active; 'I' for Inactive)
REMARK    1  A    between atoms: C_1  and  C_2
REMARK    2  A    between atoms: C_2  and  O_3
REMARK    3  A    between atoms: O_3  and  C_4
REMARK    4  A    between atoms: C_7  and  C_12
REMARK    5  A    between atoms: C_9  and  O_10
REMARK    6  A    between atoms: O_10  and  C_11
REMARK    7  A    between atoms: C_17  and  O_26
REMARK    8  A    between atoms: C_21  and  N_25
REMARK    9  A    between atoms: C_22  and  C_23
REMARK   10  A    between atoms: O_26  and  C_27
REMARK   11  A    between atoms: C_27  and  C_29
REMARK                            x       y       z     vdW  Elec       q    Type
REMARK                         _______ _______ _______ _____ _____    ______ ____
ROOT
ATOM      1  C   UNL     1       1.189  -6.019   1.769  0.00  0.00    +0.098 C 
ATOM      2  C   UNL     1       1.931  -6.599   0.595  0.00  0.00    +0.008 A 
ATOM      3  C   UNL     1       3.293  -6.384   0.476  0.00  0.00    +0.012 A 
ATOM      4  C   UNL     1       3.990  -6.908  -0.594  0.00  0.00    +0.047 A 
ATOM      5  C   UNL     1       3.324  -7.655  -1.556  0.00  0.00    +0.135 A 
ATOM      6  C   UNL     1       1.961  -7.873  -1.440  0.00  0.00    +0.093 A 
ATOM      7  C   UNL     1       1.262  -7.344  -0.363  0.00  0.00    +0.138 A 
ATOM      8  O   UNL     1      -0.072  -7.566  -0.265  0.00  0.00    -0.441 OA
ATOM      9  C   UNL     1      -0.691  -7.415   0.918  0.00  0.00    +0.199 C 
ATOM     10  C   UNL     1      -0.145  -6.693   1.921  0.00  0.00    +0.098 C 
ENDROOT
BRANCH   1  14
ATOM     11  C   UNL     1       0.593  -1.832   1.136  0.00  0.00    +0.162 A 
ATOM     12  C   UNL     1       0.066  -2.752   0.244  0.00  0.00    +0.050 A 
ATOM     13  C   UNL     1       0.261  -4.105   0.452  0.00  0.00    +0.008 A 
ATOM     14  C   UNL     1       0.981  -4.543   1.548  0.00  0.00    -0.031 A 
ATOM     15  C   UNL     1       1.509  -3.630   2.441  0.00  0.00    +0.054 A 
ATOM     16  C   UNL     1       1.322  -2.272   2.236  0.00  0.00    +0.162 A 
BRANCH  16  17
ATOM     17  O   UNL     1       1.846  -1.373   3.111  0.00  0.00    -0.491 OA
ATOM     18  C   UNL     1       2.583  -1.897   4.217  0.00  0.00    +0.277 C 
ENDBRANCH  16  17
BRANCH  11  19
ATOM     19  O   UNL     1       0.403  -0.500   0.933  0.00  0.00    -0.489 OA
BRANCH  19  21
ATOM     20  C   UNL     1      -0.463   1.404  -0.277  0.00  0.00    +0.048 C 
ATOM     21  C   UNL     1      -0.356  -0.121  -0.217  0.00  0.00    +0.226 C 
ENDBRANCH  19  21
ENDBRANCH  11  19
ENDBRANCH   1  14
BRANCH   9  22
ATOM     22  N   UNL     1      -1.913  -8.009   1.112  0.00  0.00    -0.328 N 
ATOM     23  H   UNL     1      -2.317  -8.530   0.400  0.00  0.00    +0.145 HD
ATOM     24  H   UNL     1      -2.372  -7.910   1.960  0.00  0.00    +0.145 HD
ENDBRANCH   9  22
BRANCH  10  25
ATOM     25  C   UNL     1      -0.856  -6.570   3.158  0.00  0.00    +0.101 C 
ATOM     26  N   UNL     1      -1.421  -6.472   4.139  0.00  0.00    -0.191 NA
ENDBRANCH  10  25
BRANCH   5  27
ATOM     27  O   UNL     1       4.009  -8.172  -2.611  0.00  0.00    -0.422 OA
BRANCH  27  28
ATOM     28  C   UNL     1       4.881  -9.171  -2.370  0.00  0.00    +0.351 C 
ATOM     29  O   UNL     1       4.961  -9.654  -1.258  0.00  0.00    -0.244 OA
BRANCH  28  30
ATOM     30  C   UNL     1       5.737  -9.677  -3.455  0.00  0.00    +0.144 A 
ATOM     31  C   UNL     1       6.641 -10.709  -3.239  0.00  0.00    +0.033 A 
ATOM     32  C   UNL     1       7.455 -11.122  -4.326  0.00  0.00    +0.018 A 
ATOM     33  C   UNL     1       8.238 -12.281  -4.229  0.00  0.00    +0.011 A 
ATOM     34  C   UNL     1       8.983 -12.688  -5.298  0.00  0.00    +0.001 A 
ATOM     35  C   UNL     1       8.979 -11.959  -6.480  0.00  0.00    +0.004 A 
ATOM     36  C   UNL     1       8.232 -10.805  -6.591  0.00  0.00    +0.047 A 
ATOM     37  C   UNL     1       7.471 -10.368  -5.514  0.00  0.00    +0.139 A 
ATOM     38  O   UNL     1       6.768  -9.213  -5.596  0.00  0.00    -0.422 OA
ATOM     39  C   UNL     1       5.665  -9.113  -4.815  0.00  0.00    +0.351 A 
ATOM     40  O   UNL     1       4.652  -8.573  -5.219  0.00  0.00    -0.244 OA
ENDBRANCH  28  30
ENDBRANCH  27  28
ENDBRANCH   5  27
TORSDOF 9
