REMARK  Name = ZINC61775595
REMARK  7 active torsions:
REMARK  status: ('A' for Active; 'I' for Inactive)
REMARK    1  A    between atoms: C_1  and  C_2
REMARK    2  A    between atoms: C_2  and  N_3
REMARK    3  A    between atoms: C_4  and  C_6
REMARK    4  A    between atoms: N_14  and  C_15
REMARK    5  A    between atoms: C_20  and  C_21
REMARK    6  A    between atoms: C_21  and  O_22
REMARK    7  A    between atoms: O_22  and  C_23
REMARK                            x       y       z     vdW  Elec       q    Type
REMARK                         _______ _______ _______ _____ _____    ______ ____
ROOT
ATOM      1  C   UNL     1       2.152  -2.469   2.548  0.00  0.00    +0.092 C 
ATOM      2  C   UNL     1       1.917  -3.980   2.611  0.00  0.00    +0.016 C 
ATOM      3  C   UNL     1       2.433  -4.523   3.946  0.00  0.00    +0.020 C 
ATOM      4  C   UNL     1       1.661  -3.864   5.093  0.00  0.00    +0.109 C 
ATOM      5  N   UNL     1       1.762  -2.405   4.956  0.00  0.00    -0.285 N 
ATOM      6  C   UNL     1       1.377  -1.787   3.679  0.00  0.00    +0.122 C 
ATOM      7  C   UNL     1       2.200  -1.648   5.981  0.00  0.00    +0.306 C 
ATOM      8  O   UNL     1       2.369  -0.454   5.826  0.00  0.00    -0.252 OA
ATOM      9  N   UNL     1       2.452  -2.214   7.178  0.00  0.00    -0.269 N 
ATOM     10  H   UNL     1       2.380  -3.175   7.284  0.00  0.00    +0.156 HD
ENDROOT
BRANCH   9  11
ATOM     11  C   UNL     1       2.816  -1.415   8.267  0.00  0.00    +0.041 A 
ATOM     12  C   UNL     1       2.564  -0.049   8.243  0.00  0.00    +0.024 A 
ATOM     13  C   UNL     1       2.924   0.737   9.320  0.00  0.00    +0.002 A 
ATOM     14  C   UNL     1       3.535   0.166  10.422  0.00  0.00    +0.000 A 
ATOM     15  C   UNL     1       3.786  -1.194  10.449  0.00  0.00    +0.009 A 
ATOM     16  C   UNL     1       3.423  -1.986   9.377  0.00  0.00    +0.011 A 
BRANCH  16  17
ATOM     17  C   UNL     1       3.692  -3.469   9.410  0.00  0.00    +0.266 C 
BRANCH  17  18
ATOM     18  O   UNL     1       4.319  -3.812  10.647  0.00  0.00    -0.487 OA
BRANCH  18  19
ATOM     19  C   UNL     1       4.632  -5.120  10.839  0.00  0.00    +0.121 A 
ATOM     20  C   UNL     1       4.346  -6.054   9.854  0.00  0.00    +0.045 A 
ATOM     21  C   UNL     1       4.665  -7.384  10.051  0.00  0.00    +0.004 A 
ATOM     22  C   UNL     1       5.268  -7.784  11.229  0.00  0.00    +0.000 A 
ATOM     23  C   UNL     1       5.553  -6.855  12.212  0.00  0.00    +0.004 A 
ATOM     24  C   UNL     1       5.242  -5.524  12.018  0.00  0.00    +0.045 A 
ENDBRANCH  18  19
ENDBRANCH  17  18
ENDBRANCH  16  17
ENDBRANCH   9  11
BRANCH   1  26
ATOM     25  N   UNL     1       1.778  -0.626   0.941  0.00  0.00    -0.315 N 
ATOM     26  C   UNL     1       1.673  -1.940   1.220  0.00  0.00    +0.218 C 
ATOM     27  O   UNL     1       1.193  -2.698   0.404  0.00  0.00    -0.275 OA
ATOM     28  H   UNL     1       2.162  -0.021   1.594  0.00  0.00    +0.149 HD
BRANCH  25  30
ATOM     29  C   UNL     1       1.545   1.399  -0.411  0.00  0.00    +0.024 C 
ATOM     30  C   UNL     1       1.313  -0.112  -0.350  0.00  0.00    +0.101 C 
ENDBRANCH  25  30
ENDBRANCH   1  26
TORSDOF 6
