REMARK  Name = ZINC39594615
REMARK  7 active torsions:
REMARK  status: ('A' for Active; 'I' for Inactive)
REMARK    1  A    between atoms: C_1  and  C_2
REMARK    2  A    between atoms: C_2  and  C_8
REMARK    3  A    between atoms: C_12  and  C_21
REMARK    4  A    between atoms: N_23  and  C_24
REMARK    5  A    between atoms: C_24  and  C_25
REMARK    6  A    between atoms: C_25  and  C_27
REMARK    7  A    between atoms: C_25  and  N_33
REMARK                            x       y       z     vdW  Elec       q    Type
REMARK                         _______ _______ _______ _____ _____    ______ ____
ROOT
ATOM      1  C   UNL     1      -1.329  -0.281  -0.096  0.00  0.00    +0.222 C 
ATOM      2  O   UNL     1      -1.861  -0.856   0.830  0.00  0.00    -0.275 OA
ATOM      3  N   UNL     1      -2.058   0.085  -1.169  0.00  0.00    -0.300 N 
ATOM      4  C   UNL     1      -1.573   0.691  -2.432  0.00  0.00    +0.121 C 
ATOM      5  C   UNL     1      -2.417   0.017  -3.537  0.00  0.00    +0.100 C 
ATOM      6  C   UNL     1      -3.697  -0.450  -2.824  0.00  0.00    -0.004 C 
ATOM      7  C   UNL     1      -3.524  -0.033  -1.356  0.00  0.00    +0.115 C 
ATOM      8  C   UNL     1      -4.918   0.235  -3.428  0.00  0.00    -0.010 C 
ATOM      9  C   UNL     1      -6.183  -0.289  -2.742  0.00  0.00    -0.082 C 
ATOM     10  N   UNL     1      -6.273  -1.743  -2.921  0.00  0.00    +0.379 N 
ATOM     11  C   UNL     1      -5.142  -2.401  -2.257  0.00  0.00    -0.082 C 
ATOM     12  C   UNL     1      -3.833  -1.966  -2.923  0.00  0.00    -0.010 C 
ATOM     13  H   UNL     1      -7.137  -2.077  -2.521  0.00  0.00    -0.086 HD
ATOM     14  H   UNL     1      -6.256  -1.960  -3.906  0.00  0.00    -0.086 HD
ENDROOT
BRANCH   1  16
ATOM     15  C   UNL     1       0.874  -0.805  -1.105  0.00  0.00    +0.021 C 
ATOM     16  C   UNL     1       0.145   0.024  -0.046  0.00  0.00    +0.044 C 
ATOM     17  C   UNL     1       0.692  -0.325   1.340  0.00  0.00    +0.016 C 
ATOM     18  C   UNL     1      -0.036   0.505   2.399  0.00  0.00    +0.001 C 
ATOM     19  C   UNL     1       0.186   1.994   2.123  0.00  0.00    +0.000 C 
ATOM     20  C   UNL     1      -0.360   2.342   0.737  0.00  0.00    +0.001 C 
ATOM     21  C   UNL     1       0.368   1.513  -0.322  0.00  0.00    +0.016 C 
ENDBRANCH   1  16
BRANCH   5  22
ATOM     22  C   UNL     1      -1.677  -1.161  -4.117  0.00  0.00    +0.218 C 
ATOM     23  O   UNL     1      -0.851  -1.746  -3.450  0.00  0.00    -0.275 OA
ATOM     24  N   UNL     1      -1.934  -1.563  -5.378  0.00  0.00    -0.316 N 
ATOM     25  H   UNL     1      -2.595  -1.095  -5.911  0.00  0.00    +0.149 HD
BRANCH  24  26
ATOM     26  C   UNL     1      -1.215  -2.708  -5.942  0.00  0.00    +0.093 C 
BRANCH  26  27
ATOM     27  C   UNL     1      -1.598  -2.876  -7.413  0.00  0.00    -0.019 C 
BRANCH  27  28
ATOM     28  C   UNL     1      -1.117  -1.682  -8.197  0.00  0.00    -0.041 A 
ATOM     29  C   UNL     1      -1.994  -0.659  -8.527  0.00  0.00    +0.005 A 
ATOM     30  C   UNL     1      -1.508   0.420  -9.248  0.00  0.00    +0.020 A 
ATOM     31  C   UNL     1      -0.174   0.441  -9.612  0.00  0.00    +0.111 A 
ATOM     32  N   UNL     1       0.631  -0.550  -9.281  0.00  0.00    -0.263 NA
ATOM     33  C   UNL     1       0.204  -1.589  -8.591  0.00  0.00    +0.112 A 
ENDBRANCH  27  28
BRANCH  27  34
ATOM     34  N   UNL     1      -0.973  -4.095  -7.946  0.00  0.00    +0.385 N 
ATOM     35  C   UNL     1      -1.574  -5.296  -7.314  0.00  0.00    -0.078 C 
ATOM     36  C   UNL     1      -1.260  -6.425  -8.327  0.00  0.00    -0.020 C 
ATOM     37  C   UNL     1      -1.424  -5.720  -9.693  0.00  0.00    -0.020 C 
ATOM     38  C   UNL     1      -1.251  -4.219  -9.393  0.00  0.00    -0.078 C 
ATOM     39  H   UNL     1       0.022  -4.075  -7.783  0.00  0.00    -0.081 HD
ENDBRANCH  27  34
ENDBRANCH  26  27
ENDBRANCH  24  26
ENDBRANCH   5  22
TORSDOF 6
