REMARK  Name = ZINC15786777
REMARK  9 active torsions:
REMARK  status: ('A' for Active; 'I' for Inactive)
REMARK    1  A    between atoms: C_1  and  C_2
REMARK    2  A    between atoms: C_7  and  C_8
REMARK    3  A    between atoms: C_8  and  N_61
REMARK    4  A    between atoms: C_11  and  C_14
REMARK    5  A    between atoms: C_14  and  N_15
REMARK    6  A    between atoms: C_16  and  C_18
REMARK    7  A    between atoms: C_20  and  C_23
REMARK    8  A    between atoms: C_23  and  S_24
REMARK    9  A    between atoms: S_24  and  C_27
REMARK                            x       y       z     vdW  Elec       q    Type
REMARK                         _______ _______ _______ _____ _____    ______ ____
ROOT
ATOM      1  N   UNL     1      -2.971   2.559  -4.949  0.00  0.00    -0.307 N 
ATOM      2  C   UNL     1      -2.651   1.682  -3.977  0.00  0.00    +0.302 C 
ATOM      3  O   UNL     1      -3.281   0.650  -3.859  0.00  0.00    -0.265 OA
ATOM      4  H   UNL     1      -2.468   3.383  -5.044  0.00  0.00    +0.149 HD
ENDROOT
BRANCH   2   5
ATOM      5  C   UNL     1      -1.531   1.977  -3.052  0.00  0.00    +0.313 A 
ATOM      6  N   UNL     1      -1.105   1.215  -2.065  0.00  0.00    -0.186 NA
ATOM      7  C   UNL     1      -0.085   1.883  -1.507  0.00  0.00    +0.193 A 
ATOM      8  N   UNL     1       0.068   2.993  -2.169  0.00  0.00    -0.059 NA
ATOM      9  O   UNL     1      -0.751   3.069  -3.061  0.00  0.00    -0.328 OA
BRANCH   7  10
ATOM     10  C   UNL     1       0.740   1.429  -0.331  0.00  0.00    +0.251 C 
BRANCH  10  11
ATOM     11  S   UNL     1      -0.015   2.029   1.205  0.00  0.00    +0.004 S 
ATOM     12  O   UNL     1       0.086   3.445   1.280  0.00  0.00    -0.169 OA
ATOM     13  O   UNL     1      -1.260   1.380   1.425  0.00  0.00    -0.169 OA
BRANCH  11  14
ATOM     14  C   UNL     1       1.035   1.435   2.489  0.00  0.00    +0.089 A 
ATOM     15  C   UNL     1       0.791   0.203   3.067  0.00  0.00    +0.027 A 
ATOM     16  C   UNL     1       1.619  -0.265   4.071  0.00  0.00    +0.002 A 
ATOM     17  C   UNL     1       2.683   0.502   4.503  0.00  0.00    +0.000 A 
ATOM     18  C   UNL     1       2.924   1.737   3.929  0.00  0.00    +0.002 A 
ATOM     19  C   UNL     1       2.100   2.203   2.922  0.00  0.00    +0.027 A 
ENDBRANCH  11  14
ENDBRANCH  10  11
ENDBRANCH   7  10
ENDBRANCH   2   5
BRANCH   1  20
ATOM     20  C   UNL     1      -4.078   2.268  -5.864  0.00  0.00    +0.108 C 
BRANCH  20  23
ATOM     21  C   UNL     1      -5.491   4.234  -8.857  0.00  0.00    -0.078 C 
ATOM     22  C   UNL     1      -5.302   3.058  -7.896  0.00  0.00    -0.014 C 
ATOM     23  C   UNL     1      -4.229   3.416  -6.864  0.00  0.00    +0.003 C 
ATOM     24  C   UNL     1      -4.649   4.688  -6.123  0.00  0.00    -0.014 C 
ATOM     25  C   UNL     1      -4.858   5.817  -7.135  0.00  0.00    -0.078 C 
ATOM     26  N   UNL     1      -5.919   5.420  -8.085  0.00  0.00    +0.382 N 
ATOM     27  H   UNL     1      -6.768   5.185  -7.557  0.00  0.00    -0.081 HD
BRANCH  26  28
ATOM     28  C   UNL     1      -6.219   6.538  -9.003  0.00  0.00    -0.043 C 
BRANCH  28  35
ATOM     29  C   UNL     1      -8.729   6.717  -7.584  0.00  0.00    +0.044 C 
ATOM     30  C   UNL     1      -7.741   7.852  -7.513  0.00  0.00    -0.049 A 
ATOM     31  C   UNL     1      -8.035   8.979  -6.768  0.00  0.00    +0.003 A 
ATOM     32  C   UNL     1      -7.128  10.020  -6.702  0.00  0.00    +0.000 A 
ATOM     33  C   UNL     1      -5.927   9.934  -7.381  0.00  0.00    +0.000 A 
ATOM     34  C   UNL     1      -5.630   8.806  -8.121  0.00  0.00    +0.002 A 
ATOM     35  C   UNL     1      -6.540   7.767  -8.191  0.00  0.00    -0.061 A 
ENDBRANCH  28  35
ENDBRANCH  26  28
ENDBRANCH  20  23
ENDBRANCH   1  20
TORSDOF 8
