REMARK  Name = ZINC39231322
REMARK  4 active torsions:
REMARK  status: ('A' for Active; 'I' for Inactive)
REMARK    1  A    between atoms: C_20  and  O_35
REMARK    2  A    between atoms: C_22  and  C_24
REMARK    3  A    between atoms: C_30  and  C_33
REMARK    4  A    between atoms: C_33  and  O_34
REMARK                            x       y       z     vdW  Elec       q    Type
REMARK                         _______ _______ _______ _____ _____    ______ ____
ROOT
ATOM      1  C   UNL     1      -0.004   1.380   0.038  0.00  0.00    +0.001 A 
ATOM      2  C   UNL     1       1.161   2.130   0.030  0.00  0.00    +0.002 A 
ATOM      3  C   UNL     1       2.415   1.545   0.011  0.00  0.00    +0.026 A 
ATOM      4  C   UNL     1       2.463   0.152   0.001  0.00  0.00    +0.047 A 
ATOM      5  C   UNL     1       1.266  -0.612   0.009  0.00  0.00    +0.003 A 
ATOM      6  C   UNL     1       0.012   0.007   0.027  0.00  0.00    +0.010 A 
ATOM      7  C   UNL     1       1.679  -1.996  -0.006  0.00  0.00    -0.022 A 
ATOM      8  C   UNL     1       3.033  -2.010  -0.020  0.00  0.00    +0.006 A 
ATOM      9  N   UNL     1       3.508  -0.727  -0.017  0.00  0.00    -0.359 N 
ATOM     10  H   UNL     1       4.446  -0.479  -0.026  0.00  0.00    +0.166 HD
ATOM     11  C   UNL     1       3.833  -3.287  -0.035  0.00  0.00    -0.020 C 
ATOM     12  C   UNL     1       5.014  -3.159  -0.999  0.00  0.00    -0.005 C 
ATOM     13  C   UNL     1       5.803  -4.471  -0.983  0.00  0.00    +0.004 C 
ATOM     14  C   UNL     1       4.869  -5.625  -1.356  0.00  0.00    -0.024 C 
ATOM     15  C   UNL     1       5.645  -6.941  -1.289  0.00  0.00    +0.004 C 
ATOM     16  C   UNL     1       6.808  -6.890  -2.283  0.00  0.00    +0.032 C 
ATOM     17  C   UNL     1       7.735  -5.724  -1.935  0.00  0.00    +0.127 C 
ATOM     18  C   UNL     1       6.951  -4.410  -1.990  0.00  0.00    +0.107 C 
ATOM     19  C   UNL     1       3.690  -5.663  -0.383  0.00  0.00    -0.074 C 
ATOM     20  N   UNL     1       2.961  -4.386  -0.471  0.00  0.00    +0.386 N 
ATOM     21  C   UNL     1       1.748  -4.433   0.353  0.00  0.00    -0.073 C 
ATOM     22  C   UNL     1       0.839  -3.248  -0.005  0.00  0.00    +0.019 C 
ATOM     23  H   UNL     1       2.688  -4.226  -1.429  0.00  0.00    -0.081 HD
ENDROOT
BRANCH  18  24
ATOM     24  C   UNL     1       7.867  -3.266  -1.641  0.00  0.00    +0.221 C 
ATOM     25  O   UNL     1       7.922  -2.859  -0.500  0.00  0.00    -0.275 OA
ATOM     26  N   UNL     1       8.626  -2.695  -2.598  0.00  0.00    -0.301 N 
ATOM     27  C   UNL     1       8.490  -3.101  -4.003  0.00  0.00    +0.108 C 
ATOM     28  C   UNL     1       9.871  -3.492  -4.539  0.00  0.00    +0.019 C 
ATOM     29  C   UNL     1      10.848  -2.337  -4.310  0.00  0.00    +0.009 C 
ATOM     30  C   UNL     1      10.973  -2.061  -2.810  0.00  0.00    +0.032 C 
ATOM     31  C   UNL     1       9.601  -1.650  -2.255  0.00  0.00    +0.113 C 
BRANCH  30  32
ATOM     32  C   UNL     1      11.976  -0.929  -2.580  0.00  0.00    +0.160 C 
BRANCH  32  33
ATOM     33  O   UNL     1      13.276  -1.352  -2.996  0.00  0.00    -0.395 OA
ATOM     34  H   UNL     1      13.963  -0.682  -2.879  0.00  0.00    +0.209 HD
ENDBRANCH  32  33
ENDBRANCH  30  32
ENDBRANCH  18  24
BRANCH  17  35
ATOM     35  O   UNL     1       8.262  -5.912  -0.620  0.00  0.00    -0.391 OA
ATOM     36  H   UNL     1       8.774  -6.725  -0.514  0.00  0.00    +0.210 HD
ENDBRANCH  17  35
TORSDOF 4
