REMARK  Name = ZINC36598151
REMARK  18 active torsions:
REMARK  status: ('A' for Active; 'I' for Inactive)
REMARK    1  A    between atoms: C_1  and  C_2
REMARK    2  A    between atoms: C_5  and  C_7
REMARK    3  A    between atoms: C_7  and  N_8
REMARK    4  A    between atoms: N_8  and  C_9
REMARK    5  A    between atoms: C_9  and  C_11
REMARK    6  A    between atoms: C_9  and  C_20
REMARK    7  A    between atoms: C_14  and  O_19
REMARK    8  A    between atoms: C_15  and  O_17
REMARK    9  A    between atoms: O_17  and  C_18
REMARK   10  A    between atoms: N_22  and  C_23
REMARK   11  A    between atoms: C_23  and  C_24
REMARK   12  A    between atoms: C_23  and  C_25
REMARK   13  A    between atoms: C_23  and  C_26
REMARK   14  A    between atoms: C_27  and  C_29
REMARK   15  A    between atoms: C_29  and  C_30
REMARK   16  A    between atoms: C_30  and  C_31
REMARK   17  A    between atoms: C_34  and  O_37
REMARK   18  A    between atoms: O_37  and  C_38
REMARK                            x       y       z     vdW  Elec       q    Type
REMARK                         _______ _______ _______ _____ _____    ______ ____
ROOT
ATOM      1  N   UNL     1       1.901  -3.727  -1.404  0.00  0.00    -0.279 N 
ATOM      2  C   UNL     1       0.851  -4.272  -2.049  0.00  0.00    +0.217 C 
ATOM      3  O   UNL     1       0.850  -4.337  -3.260  0.00  0.00    -0.276 OA
ENDROOT
BRANCH   1   4
ATOM      4  C   UNL     1       1.902  -3.649   0.059  0.00  0.00    +0.183 C 
BRANCH   4   9
ATOM      5  C   UNL     1       1.159   1.079   1.651  0.00  0.00    +0.086 C 
ATOM      6  C   UNL     1       0.885  -0.328   1.188  0.00  0.00    +0.102 A 
ATOM      7  C   UNL     1      -0.331  -0.882   1.029  0.00  0.00    +0.045 A 
ATOM      8  C   UNL     1      -0.122  -2.207   0.583  0.00  0.00    +0.046 A 
ATOM      9  C   UNL     1       1.208  -2.384   0.495  0.00  0.00    +0.122 A 
ATOM     10  O   UNL     1       1.813  -1.241   0.857  0.00  0.00    -0.463 OA
ENDBRANCH   4   9
ENDBRANCH   1   4
BRANCH   1  11
ATOM     11  C   UNL     1       3.042  -3.212  -2.166  0.00  0.00    +0.193 C 
BRANCH  11  12
ATOM     12  C   UNL     1       3.906  -4.362  -2.615  0.00  0.00    -0.015 A 
ATOM     13  C   UNL     1       4.234  -5.367  -1.724  0.00  0.00    +0.010 A 
ATOM     14  C   UNL     1       5.027  -6.424  -2.130  0.00  0.00    +0.049 A 
ATOM     15  C   UNL     1       5.494  -6.478  -3.434  0.00  0.00    +0.158 A 
ATOM     16  C   UNL     1       5.164  -5.467  -4.331  0.00  0.00    +0.162 A 
ATOM     17  C   UNL     1       4.365  -4.413  -3.918  0.00  0.00    +0.055 A 
BRANCH  16  18
ATOM     18  O   UNL     1       5.620  -5.516  -5.611  0.00  0.00    -0.491 OA
ATOM     19  C   UNL     1       5.240  -4.443  -6.476  0.00  0.00    +0.277 C 
ENDBRANCH  16  18
BRANCH  15  20
ATOM     20  O   UNL     1       6.275  -7.517  -3.835  0.00  0.00    -0.503 OA
ATOM     21  H   UNL     1       5.779  -8.267  -4.191  0.00  0.00    +0.292 HD
ENDBRANCH  15  20
ENDBRANCH  11  12
BRANCH  11  22
ATOM     22  C   UNL     1       3.850  -2.285  -1.295  0.00  0.00    +0.238 C 
ATOM     23  O   UNL     1       3.542  -2.122  -0.134  0.00  0.00    -0.273 OA
ATOM     24  N   UNL     1       4.916  -1.639  -1.807  0.00  0.00    -0.309 N 
ATOM     25  H   UNL     1       5.163  -1.770  -2.736  0.00  0.00    +0.149 HD
BRANCH  24  26
ATOM     26  C   UNL     1       5.702  -0.738  -0.961  0.00  0.00    +0.026 C 
ATOM     27  C   UNL     1       6.278  -1.521   0.221  0.00  0.00    +0.031 C 
ATOM     28  C   UNL     1       6.846  -0.137  -1.780  0.00  0.00    +0.031 C 
ATOM     29  C   UNL     1       4.804   0.386  -0.439  0.00  0.00    +0.031 C 
ENDBRANCH  24  26
ENDBRANCH  11  22
ENDBRANCH   1  11
BRANCH   2  30
ATOM     30  C   UNL     1      -0.322  -4.802  -1.265  0.00  0.00    +0.100 C 
BRANCH  30  31
ATOM     31  C   UNL     1      -1.369  -5.362  -2.230  0.00  0.00    +0.044 C 
BRANCH  31  32
ATOM     32  C   UNL     1      -2.542  -5.892  -1.446  0.00  0.00    -0.047 A 
ATOM     33  C   UNL     1      -2.553  -7.209  -1.025  0.00  0.00    +0.007 A 
ATOM     34  C   UNL     1      -3.628  -7.697  -0.307  0.00  0.00    +0.046 A 
ATOM     35  C   UNL     1      -4.696  -6.864  -0.008  0.00  0.00    +0.120 A 
ATOM     36  C   UNL     1      -4.682  -5.543  -0.431  0.00  0.00    +0.046 A 
ATOM     37  C   UNL     1      -3.603  -5.058  -1.144  0.00  0.00    +0.007 A 
BRANCH  35  38
ATOM     38  O   UNL     1      -5.754  -7.342   0.698  0.00  0.00    -0.495 OA
ATOM     39  C   UNL     1      -6.819  -6.428   0.970  0.00  0.00    +0.277 C 
ENDBRANCH  35  38
ENDBRANCH  31  32
ENDBRANCH  30  31
ENDBRANCH   2  30
TORSDOF 12
