REMARK  Name = ZINC21598079
REMARK  6 active torsions:
REMARK  status: ('A' for Active; 'I' for Inactive)
REMARK    1  A    between atoms: C_3  and  C_9
REMARK    2  A    between atoms: C_9  and  N_10
REMARK    3  A    between atoms: N_15  and  C_16
REMARK    4  A    between atoms: C_16  and  C_18
REMARK    5  A    between atoms: C_18  and  C_19
REMARK    6  A    between atoms: C_19  and  N_20
REMARK                            x       y       z     vdW  Elec       q    Type
REMARK                         _______ _______ _______ _____ _____    ______ ____
ROOT
ATOM      1  N   UNL     1      -1.787  -0.914  -1.362  0.00  0.00    -0.324 N 
ATOM      2  C   UNL     1      -2.620   0.018  -1.893  0.00  0.00    +0.095 A 
ATOM      3  C   UNL     1      -3.045  -0.142  -3.151  0.00  0.00    +0.066 A 
ATOM      4  S   UNL     1      -2.257  -1.675  -3.614  0.00  0.00    -0.061 S 
ATOM      5  C   UNL     1      -1.423  -1.984  -2.124  0.00  0.00    +0.166 A 
ATOM      6  N   UNL     1      -0.628  -3.008  -1.805  0.00  0.00    -0.156 NA
ENDROOT
BRANCH   6   7
ATOM      7  C   UNL     1      -0.391  -3.965  -2.693  0.00  0.00    +0.240 C 
ATOM      8  O   UNL     1      -0.898  -3.909  -3.798  0.00  0.00    -0.274 OA
BRANCH   7   9
ATOM      9  C   UNL     1       0.506  -5.121  -2.333  0.00  0.00    +0.117 C 
BRANCH   9  10
ATOM     10  C   UNL     1       0.612  -6.075  -3.525  0.00  0.00    +0.125 C 
BRANCH  10  11
ATOM     11  N   UNL     1       1.484  -7.199  -3.176  0.00  0.00    -0.242 N 
ATOM     12  C   UNL     1       2.805  -7.183  -3.388  0.00  0.00    +0.222 C 
ATOM     13  O   UNL     1       3.427  -6.266  -3.881  0.00  0.00    -0.275 OA
ATOM     14  C   UNL     1       3.401  -8.490  -2.912  0.00  0.00    +0.105 C 
ATOM     15  C   UNL     1       2.180  -9.276  -2.392  0.00  0.00    +0.105 C 
ATOM     16  C   UNL     1       1.024  -8.328  -2.623  0.00  0.00    +0.222 C 
ATOM     17  O   UNL     1      -0.135  -8.555  -2.351  0.00  0.00    -0.275 OA
ENDBRANCH  10  11
ENDBRANCH   9  10
ENDBRANCH   7   9
ENDBRANCH   6   7
BRANCH   1  18
ATOM     18  C   UNL     1      -1.293  -0.775   0.010  0.00  0.00    +0.160 C 
BRANCH  18  21
ATOM     19  C   UNL     1       2.396   0.028  -0.021  0.00  0.00    +0.020 A 
ATOM     20  C   UNL     1       1.208  -0.679  -0.014  0.00  0.00    +0.008 A 
ATOM     21  C   UNL     1       0.002  -0.004   0.002  0.00  0.00    -0.009 A 
ATOM     22  C   UNL     1      -0.017   1.380   0.010  0.00  0.00    +0.047 A 
ATOM     23  C   UNL     1       1.172   2.087   0.002  0.00  0.00    +0.040 A 
ATOM     24  C   UNL     1       2.379   1.411  -0.013  0.00  0.00    +0.042 A 
ATOM     25 CL   UNL     1       3.871   2.298  -0.022  0.00  0.00    -0.083 Cl
ATOM     26 CL   UNL     1      -1.532   2.227   0.021  0.00  0.00    -0.083 Cl
ENDBRANCH  18  21
ENDBRANCH   1  18
TORSDOF 6
