REMARK  Name = ZINC45443399
REMARK  11 active torsions:
REMARK  status: ('A' for Active; 'I' for Inactive)
REMARK    1  A    between atoms: C_1  and  C_2
REMARK    2  A    between atoms: C_2  and  C_3
REMARK    3  A    between atoms: C_8  and  N_9
REMARK    4  A    between atoms: C_10  and  C_12
REMARK    5  A    between atoms: C_12  and  N_13
REMARK    6  A    between atoms: C_14  and  C_16
REMARK    7  A    between atoms: C_16  and  S_17
REMARK    8  A    between atoms: S_17  and  C_18
REMARK    9  A    between atoms: C_22  and  C_26
REMARK   10  A    between atoms: C_23  and  C_25
REMARK   11  A    between atoms: N_29  and  C_30
REMARK                            x       y       z     vdW  Elec       q    Type
REMARK                         _______ _______ _______ _____ _____    ______ ____
ROOT
ATOM      1  C   UNL     1      -2.864  -0.780  -8.385  0.00  0.00    +0.173 C 
ENDROOT
BRANCH   1   3
ATOM      2  N   UNL     1      -2.344  -0.622  -5.972  0.00  0.00    -0.306 N 
ATOM      3  C   UNL     1      -1.934  -0.454  -7.245  0.00  0.00    +0.224 C 
ATOM      4  O   UNL     1      -0.817  -0.040  -7.474  0.00  0.00    -0.275 OA
ATOM      5  H   UNL     1      -3.237  -0.952  -5.790  0.00  0.00    +0.149 HD
BRANCH   2   6
ATOM      6  C   UNL     1      -1.439  -0.304  -4.864  0.00  0.00    +0.200 C 
BRANCH   6   8
ATOM      7  N   UNL     1      -1.490  -0.356  -2.392  0.00  0.00    -0.284 N 
ATOM      8  C   UNL     1      -2.134  -0.577  -3.555  0.00  0.00    +0.234 C 
ATOM      9  O   UNL     1      -3.272  -0.996  -3.548  0.00  0.00    -0.274 OA
ATOM     10  H   UNL     1      -0.604   0.039  -2.395  0.00  0.00    +0.155 HD
BRANCH   7  16
ATOM     11  C   UNL     1      -1.332  -1.167  -0.123  0.00  0.00    -0.026 A 
ATOM     12  C   UNL     1      -1.936  -1.497   1.075  0.00  0.00    +0.005 A 
ATOM     13  C   UNL     1      -3.305  -1.363   1.220  0.00  0.00    +0.000 A 
ATOM     14  C   UNL     1      -4.073  -0.899   0.168  0.00  0.00    +0.002 A 
ATOM     15  C   UNL     1      -3.475  -0.567  -1.032  0.00  0.00    +0.023 A 
ATOM     16  C   UNL     1      -2.100  -0.696  -1.179  0.00  0.00    +0.037 A 
BRANCH  11  18
ATOM     17  C   UNL     1       0.837   0.026   0.017  0.00  0.00    +0.009 C 
ATOM     18  C   UNL     1       0.160  -1.313  -0.280  0.00  0.00    +0.033 C 
ENDBRANCH  11  18
ENDBRANCH   7  16
ENDBRANCH   6   8
ENDBRANCH   2   6
ENDBRANCH   1   3
BRANCH   1  19
ATOM     19  S   UNL     1      -2.028  -0.452  -9.961  0.00  0.00    -0.078 S 
BRANCH  19  20
ATOM     20  C   UNL     1      -3.230  -0.877 -11.178  0.00  0.00    +0.173 A 
ATOM     21  N   UNL     1      -4.414  -1.312 -10.798  0.00  0.00    -0.216 NA
ATOM     22  C   UNL     1      -5.339  -1.640 -11.692  0.00  0.00    +0.117 A 
ATOM     23  C   UNL     1      -5.107  -1.542 -13.077  0.00  0.00    +0.075 A 
ATOM     24  C   UNL     1      -6.225  -1.940 -13.915  0.00  0.00    -0.026 A 
ATOM     25  C   UNL     1      -7.360  -2.358 -13.337  0.00  0.00    -0.008 A 
ATOM     26  S   UNL     1      -7.004  -2.246 -11.594  0.00  0.00    -0.073 S 
ATOM     27  C   UNL     1      -8.633  -2.814 -14.002  0.00  0.00    +0.052 C 
ATOM     28  C   UNL     1      -6.110  -1.883 -15.416  0.00  0.00    +0.045 C 
ATOM     29  C   UNL     1      -3.812  -1.068 -13.459  0.00  0.00    +0.263 A 
ATOM     30  O   UNL     1      -3.521  -0.950 -14.637  0.00  0.00    -0.267 OA
ATOM     31  N   UNL     1      -2.923  -0.747 -12.501  0.00  0.00    -0.284 N 
BRANCH  31  32
ATOM     32  C   UNL     1      -1.598  -0.255 -12.887  0.00  0.00    +0.093 C 
ATOM     33  C   UNL     1      -1.733   1.069 -13.668  0.00  0.00    +0.025 C 
ATOM     34  C   UNL     1      -0.629   0.985 -14.751  0.00  0.00    +0.002 C 
ATOM     35  C   UNL     1      -0.664  -0.509 -15.160  0.00  0.00    +0.002 C 
ATOM     36  C   UNL     1      -0.919  -1.258 -13.836  0.00  0.00    +0.025 C 
ENDBRANCH  31  32
ENDBRANCH  19  20
ENDBRANCH   1  19
TORSDOF 8
