REMARK  Name = ZINC54828375
REMARK  8 active torsions:
REMARK  status: ('A' for Active; 'I' for Inactive)
REMARK    1  A    between atoms: C_1  and  C_2
REMARK    2  A    between atoms: C_2  and  C_3
REMARK    3  A    between atoms: C_3  and  O_4
REMARK    4  A    between atoms: O_4  and  C_5
REMARK    5  A    between atoms: C_10  and  N_11
REMARK    6  A    between atoms: N_11  and  S_12
REMARK    7  A    between atoms: S_12  and  C_15
REMARK    8  A    between atoms: N_17  and  C_20
REMARK                            x       y       z     vdW  Elec       q    Type
REMARK                         _______ _______ _______ _____ _____    ______ ____
ROOT
ATOM      1  N   UNL     1       0.857  -4.713   1.318  0.00  0.00    -0.093 NA
ENDROOT
BRANCH   1   7
ATOM      2  C   UNL     1       1.386  -2.555   2.274  0.00  0.00    +0.145 A 
ATOM      3  C   UNL     1       1.961  -1.799   3.282  0.00  0.00    +0.049 A 
ATOM      4  C   UNL     1       2.596  -2.425   4.339  0.00  0.00    +0.024 A 
ATOM      5  C   UNL     1       2.659  -3.806   4.394  0.00  0.00    +0.043 A 
ATOM      6  C   UNL     1       2.086  -4.567   3.391  0.00  0.00    +0.050 A 
ATOM      7  C   UNL     1       1.442  -3.945   2.331  0.00  0.00    +0.117 A 
ATOM      8 CL   UNL     1       3.458  -4.586   5.723  0.00  0.00    -0.083 Cl
BRANCH   2   9
ATOM      9  O   UNL     1       0.761  -1.940   1.234  0.00  0.00    -0.490 OA
BRANCH   9  10
ATOM     10  C   UNL     1       0.742  -0.511   1.242  0.00  0.00    +0.229 C 
BRANCH  10  12
ATOM     11  C   UNL     1      -0.019   1.526   0.010  0.00  0.00    +0.007 C 
ATOM     12  C   UNL     1       0.002  -0.004   0.002  0.00  0.00    +0.038 C 
ENDBRANCH  10  12
ENDBRANCH   9  10
ENDBRANCH   2   9
ENDBRANCH   1   7
BRANCH   1  13
ATOM     13  S   UNL     1       0.926  -6.366   1.387  0.00  0.00    +0.110 S 
ATOM     14  O   UNL     1       2.294  -6.722   1.244  0.00  0.00    -0.147 OA
ATOM     15  O   UNL     1       0.150  -6.758   2.511  0.00  0.00    -0.147 OA
BRANCH  13  16
ATOM     16  C   UNL     1       0.094  -6.982  -0.039  0.00  0.00    +0.214 A 
ATOM     17  C   UNL     1      -1.218  -6.837  -0.316  0.00  0.00    +0.154 A 
ATOM     18  N   UNL     1      -1.441  -7.463  -1.512  0.00  0.00    -0.324 N 
ATOM     19  C   UNL     1      -0.258  -7.969  -1.926  0.00  0.00    +0.176 A 
ATOM     20  N   UNL     1       0.655  -7.673  -1.043  0.00  0.00    -0.329 N 
ATOM     21  C   UNL     1      -2.723  -7.565  -2.214  0.00  0.00    +0.151 C 
ATOM     22 CL   UNL     1      -2.396  -6.015   0.659  0.00  0.00    -0.060 Cl
ATOM     23  H   UNL     1       1.593  -7.917  -1.101  0.00  0.00    +0.168 HD
ENDBRANCH  13  16
ENDBRANCH   1  13
TORSDOF 6
