REMARK  Name = ZINC03897441
REMARK  5 active torsions:
REMARK  status: ('A' for Active; 'I' for Inactive)
REMARK    1  A    between atoms: C_6  and  N_7
REMARK    2  A    between atoms: N_7  and  C_8
REMARK    3  A    between atoms: C_10  and  O_20
REMARK    4  A    between atoms: C_12  and  O_19
REMARK    5  A    between atoms: C_14  and  O_18
REMARK                            x       y       z     vdW  Elec       q    Type
REMARK                         _______ _______ _______ _____ _____    ______ ____
ROOT
ATOM      1  C   UNL     1       4.878   0.102  -0.045  0.00  0.00    +0.235 C 
ATOM      2  C   UNL     1       5.930  -0.657   0.769  0.00  0.00    +0.192 C 
ATOM      3  C   UNL     1       7.258   0.104   0.705  0.00  0.00    +0.178 C 
ATOM      4  C   UNL     1       7.668   0.274  -0.761  0.00  0.00    +0.171 C 
ATOM      5  C   UNL     1       6.548   0.996  -1.515  0.00  0.00    +0.196 C 
ATOM      6  O   UNL     1       5.335   0.252  -1.390  0.00  0.00    -0.354 OA
ENDROOT
BRANCH   1   7
ATOM      7  N   UNL     1       3.620  -0.650  -0.037  0.00  0.00    -0.317 N 
ATOM      8  H   UNL     1       3.634  -1.619  -0.042  0.00  0.00    +0.149 HD
BRANCH   7  14
ATOM      9  C   UNL     1       1.207  -0.679  -0.014  0.00  0.00    +0.024 A 
ATOM     10  C   UNL     1       0.002  -0.004   0.002  0.00  0.00    +0.022 A 
ATOM     11  C   UNL     1      -0.017   1.380   0.010  0.00  0.00    +0.041 A 
ATOM     12  C   UNL     1       1.171   2.090   0.002  0.00  0.00    +0.022 A 
ATOM     13  C   UNL     1       2.378   1.420  -0.013  0.00  0.00    +0.024 A 
ATOM     14  C   UNL     1       2.400   0.031  -0.021  0.00  0.00    +0.029 A 
ATOM     15 CL   UNL     1      -1.533   2.225   0.021  0.00  0.00    -0.084 Cl
ENDBRANCH   7  14
ENDBRANCH   1   7
BRANCH   4  16
ATOM     16  O   UNL     1       8.868   1.045  -0.835  0.00  0.00    -0.387 OA
ATOM     17  H   UNL     1       9.184   1.196  -1.737  0.00  0.00    +0.210 HD
ENDBRANCH   4  16
BRANCH   3  18
ATOM     18  O   UNL     1       7.102   1.389   1.310  0.00  0.00    -0.386 OA
ATOM     19  H   UNL     1       7.905   1.929   1.299  0.00  0.00    +0.210 HD
ENDBRANCH   3  18
BRANCH   2  20
ATOM     20  O   UNL     1       5.502  -0.757   2.128  0.00  0.00    -0.385 OA
ATOM     21  H   UNL     1       4.663  -1.224   2.243  0.00  0.00    +0.210 HD
ENDBRANCH   2  20
TORSDOF 5
