REMARK  Name = ZINC62824135
REMARK  3 active torsions:
REMARK  status: ('A' for Active; 'I' for Inactive)
REMARK    1  A    between atoms: C_3  and  N_11
REMARK    2  A    between atoms: C_4  and  C_8
REMARK    3  A    between atoms: C_12  and  C_14
REMARK                            x       y       z     vdW  Elec       q    Type
REMARK                         _______ _______ _______ _____ _____    ______ ____
ROOT
ATOM      1  C   UNL     1       0.056   1.174   0.663  0.00  0.00    +0.016 A 
ATOM      2  C   UNL     1       1.232   1.897   0.641  0.00  0.00    +0.025 A 
ATOM      3  C   UNL     1       2.351   1.387  -0.002  0.00  0.00    +0.048 A 
ATOM      4  C   UNL     1       2.280   0.132  -0.630  0.00  0.00    +0.085 A 
ATOM      5  C   UNL     1       1.082  -0.588  -0.600  0.00  0.00    +0.031 A 
ATOM      6  C   UNL     1      -0.018  -0.064   0.044  0.00  0.00    +0.014 A 
ATOM      7  I   UNL     1      -1.812  -1.145   0.088  0.00  0.00    -0.044 I 
ENDROOT
BRANCH   3   8
ATOM      8  N   UNL     1       3.538   2.115  -0.025  0.00  0.00    -0.283 N 
ATOM      9  C   UNL     1       3.502   3.459  -0.109  0.00  0.00    +0.246 C 
ATOM     10  O   UNL     1       2.437   4.040  -0.083  0.00  0.00    -0.273 OA
ATOM     11  H   UNL     1       4.390   1.654   0.020  0.00  0.00    +0.155 HD
BRANCH   9  12
ATOM     12  C   UNL     1       4.784   4.241  -0.235  0.00  0.00    +0.204 C 
ATOM     13  C   UNL     1       5.614   4.069   1.040  0.00  0.00    +0.041 C 
ATOM     14  C   UNL     1       6.886   4.914   0.929  0.00  0.00    +0.005 C 
ATOM     15  C   UNL     1       6.497   6.375   0.681  0.00  0.00    +0.028 C 
ATOM     16  C   UNL     1       5.633   6.457  -0.580  0.00  0.00    +0.161 C 
ATOM     17  O   UNL     1       4.482   5.625  -0.423  0.00  0.00    -0.367 OA
ENDBRANCH   9  12
ENDBRANCH   3   8
BRANCH   4  18
ATOM     18  C   UNL     1       3.459  -0.420  -1.316  0.00  0.00    +0.388 C 
ATOM     19  O   UNL     1       3.369  -1.469  -1.939  0.00  0.00    -0.241 OA
ATOM     20  O   UNL     1       4.530   0.171  -1.265  0.00  0.00    -0.241 OA
ENDBRANCH   4  18
TORSDOF 3
