REMARK  Name = ZINC39360527
REMARK  6 active torsions:
REMARK  status: ('A' for Active; 'I' for Inactive)
REMARK    1  A    between atoms: C_1  and  O_2
REMARK    2  A    between atoms: O_2  and  C_3
REMARK    3  A    between atoms: C_7  and  C_9
REMARK    4  A    between atoms: C_15  and  S_19
REMARK    5  A    between atoms: S_19  and  C_20
REMARK    6  A    between atoms: C_20  and  C_21
REMARK                            x       y       z     vdW  Elec       q    Type
REMARK                         _______ _______ _______ _____ _____    ______ ____
ROOT
ATOM      1  C   UNL     1      -2.540  -4.171   0.015  0.00  0.00    +0.073 C 
ATOM      2  C   UNL     1      -3.265  -4.649   1.274  0.00  0.00    +0.152 C 
ATOM      3  C   UNL     1      -4.740  -4.391   1.074  0.00  0.00    +0.115 C 
ATOM      4  N   UNL     1      -5.430  -3.665   1.900  0.00  0.00    -0.213 NA
ATOM      5  C   UNL     1      -4.875  -3.073   2.966  0.00  0.00    +0.182 C 
ATOM      6  N   UNL     1      -3.581  -3.181   3.232  0.00  0.00    -0.154 NA
ATOM      7  C   UNL     1      -2.761  -3.906   2.477  0.00  0.00    +0.250 C 
ATOM      8  O   UNL     1      -1.580  -3.966   2.759  0.00  0.00    -0.273 OA
ATOM      9  N   UNL     1      -5.310  -4.949  -0.037  0.00  0.00    -0.305 N 
ATOM     10  C   UNL     1      -4.573  -4.980  -1.200  0.00  0.00    +0.016 C 
ATOM     11  C   UNL     1      -3.273  -4.641  -1.219  0.00  0.00    +0.021 C 
ATOM     12  C   UNL     1      -2.532  -4.713  -2.416  0.00  0.00    +0.161 C 
ATOM     13  O   UNL     1      -1.358  -4.399  -2.408  0.00  0.00    -0.292 OA
ATOM     14  C   UNL     1      -3.160  -5.170  -3.703  0.00  0.00    +0.080 C 
ATOM     15  C   UNL     1      -4.313  -6.128  -3.383  0.00  0.00    +0.014 C 
ATOM     16  C   UNL     1      -5.285  -5.409  -2.461  0.00  0.00    +0.051 C 
ATOM     17  H   UNL     1      -6.208  -5.312  -0.006  0.00  0.00    +0.153 HD
ENDROOT
BRANCH   1  22
ATOM     18  C   UNL     1      -1.200  -0.637   0.010  0.00  0.00    +0.120 A 
ATOM     19  C   UNL     1      -2.375   0.101   0.019  0.00  0.00    +0.045 A 
ATOM     20  C   UNL     1      -3.596  -0.545   0.027  0.00  0.00    +0.004 A 
ATOM     21  C   UNL     1      -3.648  -1.927   0.026  0.00  0.00    +0.004 A 
ATOM     22  C   UNL     1      -2.479  -2.665   0.017  0.00  0.00    -0.035 A 
ATOM     23  C   UNL     1      -1.255  -2.023   0.003  0.00  0.00    +0.050 A 
BRANCH  18  25
ATOM     24  C   UNL     1      -0.017   1.425   0.010  0.00  0.00    +0.277 C 
ATOM     25  O   UNL     1       0.002  -0.004   0.002  0.00  0.00    -0.495 OA
ENDBRANCH  18  25
ENDBRANCH   1  22
BRANCH   5  26
ATOM     26  S   UNL     1      -5.895  -2.123   4.044  0.00  0.00    -0.084 S 
BRANCH  26  27
ATOM     27  C   UNL     1      -4.749  -1.524   5.316  0.00  0.00    +0.115 C 
BRANCH  27  28
ATOM     28  C   UNL     1      -5.503  -0.685   6.316  0.00  0.00    -0.002 A 
ATOM     29  C   UNL     1      -5.636   0.676   6.116  0.00  0.00    +0.007 A 
ATOM     30  C   UNL     1      -6.327   1.446   7.033  0.00  0.00    +0.000 A 
ATOM     31  C   UNL     1      -6.886   0.855   8.151  0.00  0.00    +0.003 A 
ATOM     32  C   UNL     1      -6.754  -0.506   8.353  0.00  0.00    +0.038 A 
ATOM     33  C   UNL     1      -6.066  -1.278   7.433  0.00  0.00    +0.127 A 
ATOM     34  F   UNL     1      -5.941  -2.610   7.627  0.00  0.00    -0.205 F 
ENDBRANCH  27  28
ENDBRANCH  26  27
ENDBRANCH   5  26
TORSDOF 5
