REMARK  Name = ZINC03046649
REMARK  11 active torsions:
REMARK  status: ('A' for Active; 'I' for Inactive)
REMARK    1  A    between atoms: C_1  and  C_2
REMARK    2  A    between atoms: C_5  and  C_8
REMARK    3  A    between atoms: N_12  and  C_20
REMARK    4  A    between atoms: C_20  and  C_21
REMARK    5  A    between atoms: N_23  and  C_24
REMARK    6  A    between atoms: C_24  and  C_25
REMARK    7  A    between atoms: C_25  and  C_26
REMARK    8  A    between atoms: C_26  and  N_27
REMARK    9  A    between atoms: N_27  and  C_28
REMARK   10  A    between atoms: N_27  and  C_29
REMARK   11  A    between atoms: C_29  and  C_30
REMARK                            x       y       z     vdW  Elec       q    Type
REMARK                         _______ _______ _______ _____ _____    ______ ____
ROOT
ATOM      1  C   UNL     1       8.765  -3.968   5.533  0.00  0.00    +0.028 C 
ATOM      2  C   UNL     1       8.572  -2.632   5.416  0.00  0.00    +0.076 C 
ATOM      3  C   UNL     1       7.792  -2.049   4.302  0.00  0.00    +0.258 C 
ATOM      4  O   UNL     1       7.729  -2.634   3.237  0.00  0.00    -0.269 OA
ATOM      5  N   UNL     1       7.156  -0.884   4.456  0.00  0.00    -0.257 N 
ATOM      6  C   UNL     1       7.057  -0.142   5.627  0.00  0.00    +0.051 A 
ATOM      7  C   UNL     1       6.034   0.799   5.733  0.00  0.00    +0.024 A 
ATOM      8  C   UNL     1       5.897   1.557   6.878  0.00  0.00    +0.002 A 
ATOM      9  C   UNL     1       6.772   1.393   7.937  0.00  0.00    +0.001 A 
ATOM     10  C   UNL     1       7.782   0.461   7.851  0.00  0.00    +0.017 A 
ATOM     11  C   UNL     1       7.929  -0.300   6.703  0.00  0.00    +0.034 A 
ATOM     12  S   UNL     1       9.239  -1.481   6.589  0.00  0.00    -0.082 S 
ENDROOT
BRANCH   1  17
ATOM     13  C   UNL     1      12.324  -6.017   9.554  0.00  0.00    +0.044 C 
ATOM     14  C   UNL     1      11.391  -5.480   8.500  0.00  0.00    -0.050 A 
ATOM     15  C   UNL     1      10.285  -6.220   8.118  0.00  0.00    +0.004 A 
ATOM     16  C   UNL     1       9.427  -5.735   7.154  0.00  0.00    +0.008 A 
ATOM     17  C   UNL     1       9.675  -4.492   6.562  0.00  0.00    -0.024 A 
ATOM     18  C   UNL     1      10.798  -3.753   6.951  0.00  0.00    +0.008 A 
ATOM     19  C   UNL     1      11.644  -4.249   7.920  0.00  0.00    +0.004 A 
ENDBRANCH   1  17
BRANCH   5  20
ATOM     20  C   UNL     1       6.500  -0.330   3.269  0.00  0.00    +0.209 C 
BRANCH  20  21
ATOM     21  C   UNL     1       5.083  -0.836   3.196  0.00  0.00    +0.231 C 
ATOM     22  O   UNL     1       4.661  -1.585   4.051  0.00  0.00    -0.274 OA
ATOM     23  N   UNL     1       4.283  -0.455   2.179  0.00  0.00    -0.314 N 
ATOM     24  H   UNL     1       4.665   0.225   1.404  0.00  0.00    +0.149 HD
BRANCH  23  25
ATOM     25  C   UNL     1       2.905  -0.947   2.108  0.00  0.00    +0.102 C 
BRANCH  25  26
ATOM     26  C   UNL     1       2.221  -0.368   0.868  0.00  0.00    +0.000 C 
BRANCH  26  27
ATOM     27  C   UNL     1       0.781  -0.881   0.793  0.00  0.00    -0.077 C 
BRANCH  27  28
ATOM     28  N   UNL     1       0.124  -0.326  -0.397  0.00  0.00    +0.381 N 
ATOM     29  C   UNL     1      -0.030   1.131  -0.282  0.00  0.00    -0.096 C 
ATOM     30  H   UNL     1       0.768  -0.530  -1.265  0.00  0.00    -0.082 HD
BRANCH  28  31
ATOM     31  C   UNL     1      -1.172  -0.975  -0.635  0.00  0.00    -0.043 C 
BRANCH  31  32
ATOM     32  C   UNL     1      -1.701  -0.563  -1.984  0.00  0.00    -0.064 A 
ATOM     33  C   UNL     1      -2.507   0.554  -2.099  0.00  0.00    +0.002 A 
ATOM     34  C   UNL     1      -2.988   0.936  -3.337  0.00  0.00    +0.000 A 
ATOM     35  C   UNL     1      -2.671   0.194  -4.460  0.00  0.00    +0.000 A 
ATOM     36  C   UNL     1      -1.870  -0.927  -4.345  0.00  0.00    +0.000 A 
ATOM     37  C   UNL     1      -1.384  -1.305  -3.107  0.00  0.00    +0.002 A 
ENDBRANCH  31  32
ENDBRANCH  28  31
ENDBRANCH  27  28
ENDBRANCH  26  27
ENDBRANCH  25  26
ENDBRANCH  23  25
ENDBRANCH  20  21
ENDBRANCH   5  20
TORSDOF 9
