REMARK  Name = ZINC16785179
REMARK  9 active torsions:
REMARK  status: ('A' for Active; 'I' for Inactive)
REMARK    1  A    between atoms: C_1  and  S_2
REMARK    2  A    between atoms: S_2  and  C_5
REMARK    3  A    between atoms: C_8  and  N_14
REMARK    4  A    between atoms: C_9  and  N_11
REMARK    5  A    between atoms: N_14  and  C_15
REMARK    6  A    between atoms: C_15  and  C_16
REMARK    7  A    between atoms: C_16  and  N_17
REMARK    8  A    between atoms: C_18  and  C_20
REMARK    9  A    between atoms: C_20  and  C_21
REMARK                            x       y       z     vdW  Elec       q    Type
REMARK                         _______ _______ _______ _____ _____    ______ ____
ROOT
ATOM      1  C   UNL     1       0.095   1.939  -4.976  0.00  0.00    +0.120 C 
ENDROOT
BRANCH   1   2
ATOM      2  N   UNL     1      -0.739   2.201  -6.152  0.00  0.00    -0.341 N 
ATOM      3  H   UNL     1      -1.530   2.757  -6.071  0.00  0.00    +0.146 HD
BRANCH   2   7
ATOM      4  C   UNL     1       0.286   0.560  -9.838  0.00  0.00    +0.090 A 
ATOM      5  C   UNL     1       1.136   0.413  -8.757  0.00  0.00    +0.029 A 
ATOM      6  C   UNL     1       0.799   0.956  -7.533  0.00  0.00    +0.027 A 
ATOM      7  C   UNL     1      -0.395   1.650  -7.388  0.00  0.00    +0.058 A 
ATOM      8  C   UNL     1      -1.249   1.791  -8.475  0.00  0.00    +0.149 A 
ATOM      9  C   UNL     1      -0.903   1.250  -9.698  0.00  0.00    +0.061 A 
BRANCH   4  11
ATOM     10  C   UNL     1       0.022  -1.809 -11.374  0.00  0.00    +0.200 C 
ATOM     11  S   UNL     1       0.720  -0.135 -11.399  0.00  0.00    -0.006 S 
ATOM     12  O   UNL     1       0.038   0.666 -12.354  0.00  0.00    -0.170 OA
ATOM     13  O   UNL     1       2.140  -0.196 -11.386  0.00  0.00    -0.170 OA
ENDBRANCH   4  11
BRANCH   8  14
ATOM     14  N   UNL     1      -2.526   2.525  -8.323  0.00  0.00    +0.058 N 
ATOM     15  O   UNL     1      -3.171   2.419  -7.295  0.00  0.00    -0.126 OA
ATOM     16  O   UNL     1      -2.931   3.234  -9.226  0.00  0.00    -0.126 OA
ENDBRANCH   8  14
ENDBRANCH   2   7
ENDBRANCH   1   2
BRANCH   1  17
ATOM     17  C   UNL     1      -0.499   2.653  -3.760  0.00  0.00    +0.123 C 
BRANCH  17  18
ATOM     18  N   UNL     1       0.334   2.391  -2.584  0.00  0.00    -0.314 N 
ATOM     19  C   UNL     1       0.003   2.922  -1.391  0.00  0.00    +0.217 C 
ATOM     20  O   UNL     1      -0.986   3.618  -1.291  0.00  0.00    -0.275 OA
ATOM     21  H   UNL     1       1.125   1.835  -2.665  0.00  0.00    +0.149 HD
BRANCH  19  22
ATOM     22  C   UNL     1       0.860   2.652  -0.181  0.00  0.00    +0.130 C 
BRANCH  22  23
ATOM     23  C   UNL     1       0.275   3.356   1.016  0.00  0.00    -0.038 A 
ATOM     24  C   UNL     1       0.678   4.657   1.312  0.00  0.00    +0.005 A 
ATOM     25  C   UNL     1       0.166   5.323   2.383  0.00  0.00    +0.009 A 
ATOM     26  C   UNL     1      -0.776   4.688   3.211  0.00  0.00    -0.018 A 
ATOM     27  C   UNL     1      -1.322   5.341   4.329  0.00  0.00    +0.008 A 
ATOM     28  C   UNL     1      -2.232   4.695   5.108  0.00  0.00    +0.001 A 
ATOM     29  C   UNL     1      -2.631   3.392   4.815  0.00  0.00    +0.001 A 
ATOM     30  C   UNL     1      -2.123   2.728   3.741  0.00  0.00    +0.008 A 
ATOM     31  C   UNL     1      -1.182   3.363   2.913  0.00  0.00    -0.018 A 
ATOM     32  C   UNL     1      -0.635   2.710   1.795  0.00  0.00    +0.012 A 
ENDBRANCH  22  23
ENDBRANCH  19  22
ENDBRANCH  17  18
ENDBRANCH   1  17
TORSDOF 8
