REMARK  Name = ZINC66414793
REMARK  6 active torsions:
REMARK  status: ('A' for Active; 'I' for Inactive)
REMARK    1  A    between atoms: C_1  and  C_2
REMARK    2  A    between atoms: C_2  and  N_3
REMARK    3  A    between atoms: N_3  and  C_4
REMARK    4  A    between atoms: C_10  and  C_12
REMARK    5  A    between atoms: C_13  and  C_15
REMARK    6  A    between atoms: C_18  and  C_23
REMARK                            x       y       z     vdW  Elec       q    Type
REMARK                         _______ _______ _______ _____ _____    ______ ____
ROOT
ATOM      1  C   UNL     1      -1.262  -0.601   2.447  0.00  0.00    +0.101 A 
ATOM      2  C   UNL     1      -0.134  -1.355   2.792  0.00  0.00    +0.020 A 
ATOM      3  C   UNL     1       0.505  -1.103   3.994  0.00  0.00    +0.028 A 
ATOM      4  C   UNL     1       0.023  -0.111   4.839  0.00  0.00    +0.056 A 
ATOM      5  N   UNL     1      -1.081   0.623   4.497  0.00  0.00    -0.321 N 
ATOM      6  H   UNL     1      -1.403   1.311   5.099  0.00  0.00    +0.169 HD
ATOM      7  C   UNL     1      -1.720   0.406   3.332  0.00  0.00    +0.261 A 
ATOM      8  O   UNL     1      -2.697   1.073   3.041  0.00  0.00    -0.267 OA
ENDROOT
BRANCH   4   9
ATOM      9  C   UNL     1       0.702   0.151   6.109  0.00  0.00    +0.036 A 
ATOM     10  C   UNL     1       0.389   1.079   7.093  0.00  0.00    +0.017 A 
ATOM     11  C   UNL     1       1.222   1.091   8.187  0.00  0.00    +0.008 A 
ATOM     12  C   UNL     1       2.262   0.223   8.234  0.00  0.00    +0.046 A 
ATOM     13  S   UNL     1       2.140  -0.644   6.800  0.00  0.00    -0.095 S 
ENDBRANCH   4   9
BRANCH   1  15
ATOM     14  N   UNL     1      -1.449  -0.367   0.027  0.00  0.00    -0.294 N 
ATOM     15  C   UNL     1      -1.958  -0.846   1.179  0.00  0.00    +0.252 C 
ATOM     16  O   UNL     1      -2.996  -1.482   1.168  0.00  0.00    -0.270 OA
BRANCH  14  17
ATOM     17  C   UNL     1      -2.200  -0.514  -1.223  0.00  0.00    +0.079 C 
ATOM     18  C   UNL     1      -2.428  -2.000  -1.509  0.00  0.00    +0.023 C 
ATOM     19  C   UNL     1      -3.211  -2.154  -2.814  0.00  0.00    +0.002 C 
ATOM     20  C   UNL     1      -4.562  -1.446  -2.684  0.00  0.00    +0.000 C 
ATOM     21  C   UNL     1      -4.334   0.039  -2.398  0.00  0.00    +0.005 C 
ATOM     22  C   UNL     1      -3.550   0.193  -1.093  0.00  0.00    +0.006 C 
ATOM     23  C   UNL     1      -3.322   1.679  -0.807  0.00  0.00    +0.009 C 
ENDBRANCH  14  17
BRANCH  14  25
ATOM     24  C   UNL     1      -0.334   1.790   0.320  0.00  0.00    +0.024 C 
ATOM     25  C   UNL     1      -0.145   0.301   0.024  0.00  0.00    +0.105 C 
ENDBRANCH  14  25
ENDBRANCH   1  15
TORSDOF 4
