REMARK  Name = ZINC20355123
REMARK  11 active torsions:
REMARK  status: ('A' for Active; 'I' for Inactive)
REMARK    1  A    between atoms: C_1  and  C_2
REMARK    2  A    between atoms: C_5  and  C_35
REMARK    3  A    between atoms: C_6  and  C_8
REMARK    4  A    between atoms: C_8  and  N_9
REMARK    5  A    between atoms: C_18  and  C_19
REMARK    6  A    between atoms: C_22  and  C_25
REMARK    7  A    between atoms: N_27  and  C_28
REMARK    8  A    between atoms: C_28  and  C_29
REMARK    9  A    between atoms: C_29  and  C_30
REMARK   10  A    between atoms: C_30  and  C_31
REMARK   11  A    between atoms: C_30  and  C_32
REMARK                            x       y       z     vdW  Elec       q    Type
REMARK                         _______ _______ _______ _____ _____    ______ ____
ROOT
ATOM      1  N   UNL     1      -3.075   0.963  -1.320  0.00  0.00    -0.262 N 
ATOM      2  C   UNL     1      -2.994  -0.183  -2.098  0.00  0.00    +0.051 A 
ATOM      3  C   UNL     1      -2.774  -1.404  -1.461  0.00  0.00    +0.024 A 
ATOM      4  C   UNL     1      -2.687  -2.570  -2.194  0.00  0.00    +0.002 A 
ATOM      5  C   UNL     1      -2.818  -2.545  -3.571  0.00  0.00    +0.001 A 
ATOM      6  C   UNL     1      -3.037  -1.344  -4.219  0.00  0.00    +0.017 A 
ATOM      7  C   UNL     1      -3.123  -0.169  -3.488  0.00  0.00    +0.034 A 
ATOM      8  S   UNL     1      -3.397   1.368  -4.317  0.00  0.00    -0.082 S 
ATOM      9  C   UNL     1      -4.166   2.325  -3.037  0.00  0.00    +0.076 C 
ATOM     10  C   UNL     1      -5.178   3.189  -3.297  0.00  0.00    +0.028 C 
ATOM     11  C   UNL     1      -3.642   2.123  -1.665  0.00  0.00    +0.258 C 
ATOM     12  O   UNL     1      -3.724   3.021  -0.849  0.00  0.00    -0.269 OA
ENDROOT
BRANCH  10  13
ATOM     13  C   UNL     1      -5.566   3.469  -4.685  0.00  0.00    -0.024 A 
ATOM     14  C   UNL     1      -4.605   3.430  -5.703  0.00  0.00    +0.009 A 
ATOM     15  C   UNL     1      -4.968   3.684  -6.994  0.00  0.00    +0.013 A 
ATOM     16  C   UNL     1      -6.297   3.997  -7.299  0.00  0.00    +0.037 A 
ATOM     17  C   UNL     1      -7.256   4.043  -6.282  0.00  0.00    +0.013 A 
ATOM     18  C   UNL     1      -6.897   3.782  -4.992  0.00  0.00    +0.009 A 
BRANCH  16  19
ATOM     19  C   UNL     1      -6.687   4.278  -8.694  0.00  0.00    +0.244 C 
ATOM     20  O   UNL     1      -7.842   4.550  -8.960  0.00  0.00    -0.270 OA
ATOM     21  N   UNL     1      -5.763   4.234  -9.674  0.00  0.00    -0.311 N 
ATOM     22  H   UNL     1      -4.718   3.989  -9.434  0.00  0.00    +0.149 HD
BRANCH  21  23
ATOM     23  C   UNL     1      -6.150   4.514 -11.059  0.00  0.00    +0.105 C 
BRANCH  23  24
ATOM     24  C   UNL     1      -4.922   4.398 -11.965  0.00  0.00    +0.022 C 
BRANCH  24  25
ATOM     25  C   UNL     1      -5.327   4.689 -13.412  0.00  0.00    -0.016 C 
ATOM     26  C   UNL     1      -4.080   4.697 -14.298  0.00  0.00    +0.007 C 
ATOM     27  C   UNL     1      -6.293   3.608 -13.899  0.00  0.00    +0.007 C 
ENDBRANCH  24  25
ENDBRANCH  23  24
ENDBRANCH  21  23
ENDBRANCH  16  19
ENDBRANCH  10  13
BRANCH   1  28
ATOM     28  C   UNL     1      -2.485   0.893   0.019  0.00  0.00    +0.149 C 
BRANCH  28  34
ATOM     29  C   UNL     1      -7.198  -0.452   1.028  0.00  0.00    +0.044 C 
ATOM     30  C   UNL     1      -5.799  -0.147   1.498  0.00  0.00    -0.050 A 
ATOM     31  C   UNL     1      -5.486  -0.238   2.841  0.00  0.00    +0.003 A 
ATOM     32  C   UNL     1      -4.202   0.041   3.272  0.00  0.00    +0.004 A 
ATOM     33  C   UNL     1      -3.232   0.410   2.358  0.00  0.00    -0.046 A 
ATOM     34  C   UNL     1      -3.544   0.496   1.015  0.00  0.00    -0.027 A 
ATOM     35  C   UNL     1      -4.829   0.222   0.585  0.00  0.00    +0.008 A 
ATOM     36  C   UNL     1      -1.832   0.713   2.828  0.00  0.00    +0.044 C 
ENDBRANCH  28  34
ENDBRANCH   1  28
TORSDOF 7
