REMARK  Name = ZINC38897754
REMARK  12 active torsions:
REMARK  status: ('A' for Active; 'I' for Inactive)
REMARK    1  A    between atoms: C_1  and  C_2
REMARK    2  A    between atoms: C_2  and  O_3
REMARK    3  A    between atoms: O_3  and  C_4
REMARK    4  A    between atoms: C_6  and  C_12
REMARK    5  A    between atoms: C_9  and  O_10
REMARK    6  A    between atoms: O_10  and  C_11
REMARK    7  A    between atoms: C_14  and  C_34
REMARK    8  A    between atoms: C_15  and  C_33
REMARK    9  A    between atoms: C_22  and  C_23
REMARK   10  A    between atoms: C_34  and  O_36
REMARK   11  A    between atoms: O_36  and  C_37
REMARK   12  A    between atoms: C_37  and  C_38
REMARK                            x       y       z     vdW  Elec       q    Type
REMARK                         _______ _______ _______ _____ _____    ______ ____
ROOT
ATOM      1  C   UNL     1      -0.428  -4.494   0.580  0.00  0.00    +0.162 C 
ATOM      2  C   UNL     1      -1.703  -4.955  -0.088  0.00  0.00    +0.085 C 
ATOM      3  C   UNL     1      -1.860  -6.292  -0.320  0.00  0.00    +0.053 C 
ATOM      4  N   UNL     1      -0.914  -7.154   0.034  0.00  0.00    -0.228 NA
ATOM      5  C   UNL     1       0.212  -6.831   0.614  0.00  0.00    +0.178 A 
ATOM      6  N   UNL     1       0.569  -5.543   0.936  0.00  0.00    -0.275 N 
ATOM      7  C   UNL     1       1.751  -5.332   1.530  0.00  0.00    +0.268 A 
ATOM      8  O   UNL     1       2.111  -4.211   1.835  0.00  0.00    -0.266 OA
ATOM      9  C   UNL     1       2.604  -6.508   1.802  0.00  0.00    +0.080 A 
ATOM     10  C   UNL     1       3.850  -6.571   2.395  0.00  0.00    +0.026 C 
ATOM     11  S   UNL     1       1.587  -7.825   1.160  0.00  0.00    -0.046 S 
ATOM     12  C   UNL     1      -3.117  -6.793  -0.984  0.00  0.00    +0.066 C 
ENDROOT
BRANCH  10  13
ATOM     13  C   UNL     1       4.561  -5.396   2.651  0.00  0.00    -0.018 C 
ATOM     14  C   UNL     1       5.864  -5.288   3.137  0.00  0.00    +0.003 A 
ATOM     15  C   UNL     1       6.828  -6.250   3.507  0.00  0.00    +0.010 A 
ATOM     16  C   UNL     1       8.042  -5.847   3.958  0.00  0.00    +0.001 A 
ATOM     17  C   UNL     1       8.371  -4.492   4.069  0.00  0.00    +0.002 A 
ATOM     18  C   UNL     1       7.498  -3.514   3.733  0.00  0.00    +0.026 A 
ATOM     19  C   UNL     1       6.205  -3.858   3.251  0.00  0.00    +0.043 A 
ATOM     20  N   UNL     1       5.194  -3.112   2.866  0.00  0.00    -0.380 N 
ATOM     21  C   UNL     1       4.083  -3.975   2.452  0.00  0.00    +0.149 C 
ATOM     22  H   UNL     1       5.185  -2.142   2.853  0.00  0.00    +0.160 HD
ENDBRANCH  10  13
BRANCH   1  25
ATOM     23  C   UNL     1       1.608  -3.054  -2.257  0.00  0.00    +0.162 A 
ATOM     24  C   UNL     1       0.988  -3.960  -1.412  0.00  0.00    +0.055 A 
ATOM     25  C   UNL     1       0.245  -3.507  -0.338  0.00  0.00    -0.016 A 
ATOM     26  C   UNL     1       0.118  -2.151  -0.105  0.00  0.00    +0.010 A 
ATOM     27  C   UNL     1       0.734  -1.241  -0.944  0.00  0.00    +0.050 A 
ATOM     28  C   UNL     1       1.485  -1.688  -2.019  0.00  0.00    +0.162 A 
BRANCH  28  29
ATOM     29  O   UNL     1       2.096  -0.795  -2.842  0.00  0.00    -0.491 OA
ATOM     30  C   UNL     1       1.926   0.591  -2.537  0.00  0.00    +0.277 C 
ENDBRANCH  28  29
BRANCH  23  31
ATOM     31  O   UNL     1       2.340  -3.498  -3.314  0.00  0.00    -0.489 OA
BRANCH  31  33
ATOM     32  C   UNL     1       3.102  -5.199  -4.852  0.00  0.00    +0.048 C 
ATOM     33  C   UNL     1       2.332  -4.905  -3.563  0.00  0.00    +0.226 C 
ENDBRANCH  31  33
ENDBRANCH  23  31
ENDBRANCH   1  25
BRANCH   2  34
ATOM     34  C   UNL     1      -2.700  -4.035  -0.459  0.00  0.00    +0.339 C 
ATOM     35  O   UNL     1      -3.658  -4.405  -1.113  0.00  0.00    -0.245 OA
BRANCH  34  36
ATOM     36  O   UNL     1      -2.594  -2.740  -0.090  0.00  0.00    -0.462 OA
BRANCH  36  37
ATOM     37  C   UNL     1      -3.695  -1.884  -0.404  0.00  0.00    +0.229 C 
ATOM     38  C   UNL     1      -3.346  -0.444  -0.022  0.00  0.00    +0.048 C 
ENDBRANCH  36  37
ENDBRANCH  34  36
ENDBRANCH   2  34
TORSDOF 8
