REMARK  Name = ZINC32856355
REMARK  10 active torsions:
REMARK  status: ('A' for Active; 'I' for Inactive)
REMARK    1  A    between atoms: C_1  and  C_2
REMARK    2  A    between atoms: C_2  and  C_4
REMARK    3  A    between atoms: C_2  and  O_17
REMARK    4  A    between atoms: C_4  and  C_6
REMARK    5  A    between atoms: C_9  and  N_12
REMARK    6  A    between atoms: N_12  and  S_13
REMARK    7  A    between atoms: S_13  and  C_16
REMARK    8  A    between atoms: O_17  and  C_18
REMARK    9  A    between atoms: C_18  and  C_20
REMARK   10  A    between atoms: C_25  and  N_26
REMARK                            x       y       z     vdW  Elec       q    Type
REMARK                         _______ _______ _______ _____ _____    ______ ____
ROOT
ATOM      1  C   UNL     1      -5.038   5.764  -0.190  0.00  0.00    +0.061 C 
ATOM      2  C   UNL     1      -5.669   4.558   0.510  0.00  0.00    +0.244 C 
ENDROOT
BRANCH   2   3
ATOM      3  C   UNL     1      -5.235   3.292  -0.183  0.00  0.00    +0.203 C 
ATOM      4  O   UNL     1      -5.978   2.747  -0.972  0.00  0.00    -0.288 OA
BRANCH   3   5
ATOM      5  C   UNL     1      -3.914   2.718   0.098  0.00  0.00    +0.021 A 
ATOM      6  C   UNL     1      -3.509   1.541  -0.545  0.00  0.00    +0.013 A 
ATOM      7  C   UNL     1      -2.278   1.010  -0.281  0.00  0.00    +0.025 A 
ATOM      8  C   UNL     1      -1.427   1.637   0.625  0.00  0.00    +0.048 A 
ATOM      9  C   UNL     1      -1.828   2.805   1.270  0.00  0.00    +0.025 A 
ATOM     10  C   UNL     1      -3.054   3.345   1.009  0.00  0.00    +0.013 A 
BRANCH   8  11
ATOM     11  N   UNL     1      -0.176   1.094   0.891  0.00  0.00    -0.221 N 
ATOM     12  H   UNL     1      -0.072   0.013   1.067  0.00  0.00    +0.173 HD
BRANCH  11  13
ATOM     13  S   UNL     1       1.158   2.073   0.943  0.00  0.00    +0.040 S 
ATOM     14  O   UNL     1       0.825   3.092   1.875  0.00  0.00    -0.155 OA
ATOM     15  O   UNL     1       2.245   1.192   1.190  0.00  0.00    -0.155 OA
ATOM     16  C   UNL     1       1.288   2.772  -0.726  0.00  0.00    +0.218 C 
ENDBRANCH  11  13
ENDBRANCH   8  11
ENDBRANCH   3   5
ENDBRANCH   2   3
BRANCH   2  17
ATOM     17  O   UNL     1      -7.115   4.669   0.455  0.00  0.00    -0.450 OA
BRANCH  17  18
ATOM     18  C   UNL     1      -7.719   5.316   1.472  0.00  0.00    +0.342 C 
ATOM     19  O   UNL     1      -7.054   5.775   2.379  0.00  0.00    -0.245 OA
BRANCH  18  20
ATOM     20  C   UNL     1      -9.184   5.466   1.483  0.00  0.00    +0.082 A 
ATOM     21  C   UNL     1      -9.943   5.043   0.387  0.00  0.00    +0.037 A 
ATOM     22  C   UNL     1     -11.313   5.187   0.403  0.00  0.00    +0.043 A 
ATOM     23  C   UNL     1     -11.946   5.748   1.503  0.00  0.00    +0.042 A 
ATOM     24  C   UNL     1     -11.211   6.170   2.592  0.00  0.00    +0.064 A 
ATOM     25  C   UNL     1      -9.827   6.029   2.596  0.00  0.00    +0.057 A 
ATOM     26 CL   UNL     1     -12.014   6.870   3.962  0.00  0.00    -0.082 Cl
ATOM     27 CL   UNL     1     -12.253   4.662  -0.959  0.00  0.00    -0.083 Cl
BRANCH  25  28
ATOM     28  N   UNL     1      -9.085   6.447   3.694  0.00  0.00    -0.356 N 
ATOM     29  H   UNL     1      -9.592   6.888   4.565  0.00  0.00    +0.142 HD
ATOM     30  H   UNL     1      -7.991   6.337   3.692  0.00  0.00    +0.142 HD
ENDBRANCH  25  28
ENDBRANCH  18  20
ENDBRANCH  17  18
ENDBRANCH   2  17
TORSDOF 8
