REMARK  Name = ZINC66782780
REMARK  6 active torsions:
REMARK  status: ('A' for Active; 'I' for Inactive)
REMARK    1  A    between atoms: C_1  and  C_2
REMARK    2  A    between atoms: C_4  and  C_8
REMARK    3  A    between atoms: N_10  and  N_11
REMARK    4  A    between atoms: C_12  and  C_14
REMARK    5  A    between atoms: C_14  and  C_15
REMARK    6  A    between atoms: C_15  and  C_16
REMARK                            x       y       z     vdW  Elec       q    Type
REMARK                         _______ _______ _______ _____ _____    ______ ____
ROOT
ATOM      1  C   UNL     1       0.040  -3.356  -1.443  0.00  0.00    +0.279 C 
ATOM      2  O   UNL     1       0.033  -3.300  -2.658  0.00  0.00    -0.267 OA
ATOM      3  N   UNL     1       0.059  -4.554  -0.825  0.00  0.00    -0.229 N 
ATOM      4  H   UNL     1       0.065  -4.599   0.144  0.00  0.00    +0.173 HD
ENDROOT
BRANCH   1   8
ATOM      5  C   UNL     1      -0.018   1.503   0.010  0.00  0.00    +0.068 C 
ATOM      6  C   UNL     1       0.002  -0.004   0.002  0.00  0.00    +0.074 A 
ATOM      7  C   UNL     1       0.008  -0.821  -1.132  0.00  0.00    +0.070 A 
ATOM      8  C   UNL     1       0.028  -2.119  -0.649  0.00  0.00    +0.136 A 
ATOM      9  N   UNL     1       0.033  -2.018   0.714  0.00  0.00    -0.271 N 
ATOM     10  H   UNL     1       0.046  -2.768   1.330  0.00  0.00    +0.189 HD
ATOM     11  N   UNL     1       0.023  -0.780   1.055  0.00  0.00    -0.177 NA
ATOM     12 BR   UNL     1      -0.008  -0.271  -2.942  0.00  0.00    -0.046 Br
ENDBRANCH   1   8
BRANCH   3  13
ATOM     13  N   UNL     1       0.071  -5.733  -1.581  0.00  0.00    -0.234 N 
ATOM     14  C   UNL     1       0.091  -6.930  -0.963  0.00  0.00    +0.229 C 
ATOM     15  O   UNL     1       0.098  -6.987   0.248  0.00  0.00    -0.274 OA
ATOM     16  H   UNL     1       0.066  -5.687  -2.550  0.00  0.00    +0.173 HD
BRANCH  14  17
ATOM     17  C   UNL     1       0.103  -8.198  -1.777  0.00  0.00    +0.097 C 
BRANCH  17  18
ATOM     18  C   UNL     1       0.124  -9.406  -0.838  0.00  0.00    +0.013 C 
BRANCH  18  19
ATOM     19  C   UNL     1       0.137 -10.694  -1.664  0.00  0.00    -0.011 C 
ATOM     20  C   UNL     1       1.442 -10.777  -2.459  0.00  0.00    +0.003 C 
ATOM     21  C   UNL     1       1.455 -12.065  -3.286  0.00  0.00    +0.000 C 
ATOM     22  C   UNL     1       1.350 -13.271  -2.351  0.00  0.00    +0.000 C 
ATOM     23  C   UNL     1       0.045 -13.189  -1.556  0.00  0.00    +0.000 C 
ATOM     24  C   UNL     1       0.032 -11.901  -0.730  0.00  0.00    +0.003 C 
ENDBRANCH  18  19
ENDBRANCH  17  18
ENDBRANCH  14  17
ENDBRANCH   3  13
TORSDOF 5
