REMARK  Name = ZINC36552830
REMARK  8 active torsions:
REMARK  status: ('A' for Active; 'I' for Inactive)
REMARK    1  A    between atoms: C_1  and  C_2
REMARK    2  A    between atoms: C_5  and  C_9
REMARK    3  A    between atoms: C_6  and  C_8
REMARK    4  A    between atoms: C_9  and  C_11
REMARK    5  A    between atoms: C_9  and  N_20
REMARK    6  A    between atoms: N_13  and  C_14
REMARK    7  A    between atoms: N_20  and  C_21
REMARK    8  A    between atoms: C_28  and  C_30
REMARK                            x       y       z     vdW  Elec       q    Type
REMARK                         _______ _______ _______ _____ _____    ______ ____
ROOT
ATOM      1  C   UNL     1       0.029  -5.169   0.898  0.00  0.00    +0.197 C 
ENDROOT
BRANCH   1   6
ATOM      2  C   UNL     1       2.929  -0.490  -0.860  0.00  0.00    +0.044 C 
ATOM      3  C   UNL     1       2.173  -1.710  -0.401  0.00  0.00    -0.050 A 
ATOM      4  C   UNL     1       2.823  -2.698   0.315  0.00  0.00    +0.004 A 
ATOM      5  C   UNL     1       2.129  -3.817   0.736  0.00  0.00    +0.006 A 
ATOM      6  C   UNL     1       0.785  -3.948   0.440  0.00  0.00    -0.015 A 
ATOM      7  C   UNL     1       0.135  -2.961  -0.275  0.00  0.00    -0.045 A 
ATOM      8  C   UNL     1       0.828  -1.839  -0.692  0.00  0.00    +0.007 A 
ATOM      9  C   UNL     1      -1.330  -3.104  -0.598  0.00  0.00    +0.044 C 
ENDBRANCH   1   6
BRANCH   1  10
ATOM     10  C   UNL     1       0.822  -5.881   1.963  0.00  0.00    +0.239 C 
ATOM     11  O   UNL     1       1.489  -6.851   1.675  0.00  0.00    -0.273 OA
ATOM     12  N   UNL     1       0.789  -5.439   3.236  0.00  0.00    -0.311 N 
ATOM     13  H   UNL     1       0.200  -4.708   3.481  0.00  0.00    +0.149 HD
BRANCH  12  14
ATOM     14  C   UNL     1       1.643  -6.062   4.250  0.00  0.00    +0.073 C 
ATOM     15  C   UNL     1       0.943  -7.299   4.816  0.00  0.00    +0.022 C 
ATOM     16  C   UNL     1       1.835  -7.950   5.875  0.00  0.00    +0.002 C 
ATOM     17  C   UNL     1       2.098  -6.952   7.004  0.00  0.00    +0.000 C 
ATOM     18  C   UNL     1       2.799  -5.715   6.438  0.00  0.00    +0.002 C 
ATOM     19  C   UNL     1       1.907  -5.064   5.379  0.00  0.00    +0.022 C 
ENDBRANCH  12  14
ENDBRANCH   1  10
BRANCH   1  20
ATOM     20  N   UNL     1      -0.180  -6.069  -0.239  0.00  0.00    -0.254 N 
ATOM     21  C   UNL     1      -1.422  -6.493  -0.543  0.00  0.00    +0.241 C 
ATOM     22  O   UNL     1      -2.377  -6.067   0.072  0.00  0.00    -0.273 OA
BRANCH  20  23
ATOM     23  C   UNL     1       0.911  -6.488  -1.009  0.00  0.00    +0.039 A 
ATOM     24  C   UNL     1       1.391  -7.785  -0.887  0.00  0.00    +0.023 A 
ATOM     25  C   UNL     1       2.468  -8.196  -1.648  0.00  0.00    +0.003 A 
ATOM     26  C   UNL     1       3.068  -7.318  -2.531  0.00  0.00    +0.020 A 
ATOM     27  C   UNL     1       2.593  -6.024  -2.655  0.00  0.00    +0.043 A 
ATOM     28  C   UNL     1       1.511  -5.609  -1.900  0.00  0.00    +0.043 A 
ATOM     29 CL   UNL     1       3.350  -4.924  -3.764  0.00  0.00    -0.083 Cl
ENDBRANCH  20  23
BRANCH  21  30
ATOM     30  C   UNL     1      -1.626  -7.498  -1.648  0.00  0.00    +0.160 C 
ATOM     31  C   UNL     1      -1.864  -6.774  -2.992  0.00  0.00    +0.041 C 
ATOM     32  C   UNL     1      -3.408  -6.703  -3.042  0.00  0.00    +0.098 C 
ATOM     33  C   UNL     1      -3.861  -7.853  -2.170  0.00  0.00    +0.214 C 
ATOM     34  O   UNL     1      -4.980  -8.320  -2.162  0.00  0.00    -0.276 OA
ATOM     35  N   UNL     1      -2.842  -8.283  -1.403  0.00  0.00    -0.304 N 
ATOM     36  H   UNL     1      -2.902  -9.016  -0.770  0.00  0.00    +0.149 HD
ENDBRANCH  21  30
ENDBRANCH   1  20
TORSDOF 6
