REMARK  Name = ZINC08837237
REMARK  12 active torsions:
REMARK  status: ('A' for Active; 'I' for Inactive)
REMARK    1  A    between atoms: C_1  and  N_59
REMARK    2  A    between atoms: C_2  and  N_59
REMARK    3  A    between atoms: C_3  and  C_4
REMARK    4  A    between atoms: C_3  and  N_59
REMARK    5  A    between atoms: C_4  and  N_5
REMARK    6  A    between atoms: C_6  and  C_24
REMARK    7  A    between atoms: C_9  and  C_10
REMARK    8  A    between atoms: C_9  and  O_19
REMARK    9  A    between atoms: C_27  and  O_32
REMARK   10  A    between atoms: C_28  and  O_30
REMARK   11  A    between atoms: O_30  and  C_31
REMARK   12  A    between atoms: O_32  and  C_33
REMARK                            x       y       z     vdW  Elec       q    Type
REMARK                         _______ _______ _______ _____ _____    ______ ____
ROOT
ATOM      1  N   UNL     1       0.002  -0.001   0.016  0.00  0.00    -0.285 N 
ATOM      2  C   UNL     1       1.392  -0.441   0.161  0.00  0.00    +0.145 C 
ATOM      3  C   UNL     1       2.257   0.777  -0.067  0.00  0.00    +0.074 C 
ATOM      4  C   UNL     1       3.640   0.834  -0.028  0.00  0.00    +0.168 C 
ATOM      5  C   UNL     1       1.378   1.836  -0.326  0.00  0.00    +0.249 C 
ATOM      6  O   UNL     1       1.698   2.989  -0.560  0.00  0.00    -0.282 OA
ATOM      7  C   UNL     1      -0.012   1.313  -0.265  0.00  0.00    +0.288 C 
ATOM      8  O   UNL     1      -1.014   1.974  -0.449  0.00  0.00    -0.266 OA
ENDROOT
BRANCH   4   9
ATOM      9  C   UNL     1       4.322   2.123  -0.138  0.00  0.00    +0.171 A 
ATOM     10  C   UNL     1       5.380   2.387  -0.956  0.00  0.00    +0.061 A 
ATOM     11  C   UNL     1       5.726   3.747  -0.753  0.00  0.00    +0.021 A 
ATOM     12  C   UNL     1       6.707   4.587  -1.294  0.00  0.00    +0.011 A 
ATOM     13  C   UNL     1       6.791   5.885  -0.878  0.00  0.00    +0.001 A 
ATOM     14  C   UNL     1       5.912   6.377   0.077  0.00  0.00    +0.004 A 
ATOM     15  C   UNL     1       4.939   5.567   0.622  0.00  0.00    +0.047 A 
ATOM     16  C   UNL     1       4.833   4.243   0.215  0.00  0.00    +0.136 A 
ATOM     17  O   UNL     1       4.005   3.236   0.559  0.00  0.00    -0.452 OA
ENDBRANCH   4   9
BRANCH   2  18
ATOM     18  C   UNL     1       1.619  -0.984   1.549  0.00  0.00    -0.019 A 
ATOM     19  C   UNL     1       1.044  -0.356   2.638  0.00  0.00    +0.009 A 
ATOM     20  C   UNL     1       1.249  -0.850   3.913  0.00  0.00    +0.050 A 
ATOM     21  C   UNL     1       2.032  -1.978   4.101  0.00  0.00    +0.162 A 
ATOM     22  C   UNL     1       2.611  -2.610   3.005  0.00  0.00    +0.162 A 
ATOM     23  C   UNL     1       2.398  -2.112   1.729  0.00  0.00    +0.055 A 
BRANCH  22  24
ATOM     24  O   UNL     1       3.381  -3.717   3.184  0.00  0.00    -0.491 OA
ATOM     25  C   UNL     1       3.943  -4.313   2.014  0.00  0.00    +0.277 C 
ENDBRANCH  22  24
BRANCH  21  26
ATOM     26  O   UNL     1       2.235  -2.465   5.354  0.00  0.00    -0.491 OA
ATOM     27  C   UNL     1       1.610  -1.765   6.431  0.00  0.00    +0.277 C 
ENDBRANCH  21  26
ENDBRANCH   2  18
BRANCH   4  28
ATOM     28  O   UNL     1       4.360  -0.301   0.111  0.00  0.00    -0.503 OA
ATOM     29  H   UNL     1       5.335  -0.079   0.120  0.00  0.00    +0.292 HD
ENDBRANCH   4  28
BRANCH   1  30
ATOM     30  C   UNL     1      -1.181  -0.855   0.155  0.00  0.00    +0.090 C 
BRANCH  30  31
ATOM     31  C   UNL     1      -1.541  -1.454  -1.206  0.00  0.00    -0.060 C 
BRANCH  31  34
ATOM     32  C   UNL     1      -3.910  -1.516  -0.710  0.00  0.00    -0.097 C 
ATOM     33  C   UNL     1      -2.962  -3.086  -2.291  0.00  0.00    -0.097 C 
ATOM     34  N   UNL     1      -2.721  -2.328  -1.045  0.00  0.00    +0.377 N 
ATOM     35  H   UNL     1      -2.544  -2.990  -0.281  0.00  0.00    -0.083 HD
ENDBRANCH  31  34
ENDBRANCH  30  31
ENDBRANCH   1  30
TORSDOF 8
