REMARK  Name = ZINC01155319
REMARK  5 active torsions:
REMARK  status: ('A' for Active; 'I' for Inactive)
REMARK    1  A    between atoms: C_5  and  C_7
REMARK    2  A    between atoms: C_9  and  C_21
REMARK    3  A    between atoms: C_11  and  C_16
REMARK    4  A    between atoms: C_11  and  O_20
REMARK    5  A    between atoms: C_21  and  C_23
REMARK                            x       y       z     vdW  Elec       q    Type
REMARK                         _______ _______ _______ _____ _____    ______ ____
ROOT
ATOM      1  C   UNL     1      -1.180   3.587   0.474  0.00  0.00    +0.123 C 
ATOM      2  C   UNL     1      -1.425   2.195  -0.117  0.00  0.00    +0.144 C 
ATOM      3  C   UNL     1      -1.887   2.356  -1.569  0.00  0.00    +0.243 C 
ATOM      4  N   UNL     1      -3.063   3.227  -1.605  0.00  0.00    -0.264 N 
ATOM      5  C   UNL     1      -3.252   4.182  -0.683  0.00  0.00    +0.302 C 
ATOM      6  O   UNL     1      -4.241   4.885  -0.765  0.00  0.00    -0.253 OA
ATOM      7  N   UNL     1      -2.395   4.391   0.327  0.00  0.00    -0.292 N 
ATOM      8  H   UNL     1      -3.718   3.111  -2.311  0.00  0.00    +0.153 HD
ATOM      9  H   UNL     1      -2.583   5.090   0.973  0.00  0.00    +0.151 HD
ENDROOT
BRANCH   1  14
ATOM     10  C   UNL     1      -1.516   3.400   4.230  0.00  0.00    +0.000 A 
ATOM     11  C   UNL     1      -0.200   3.226   4.618  0.00  0.00    +0.003 A 
ATOM     12  C   UNL     1       0.800   3.170   3.666  0.00  0.00    +0.039 A 
ATOM     13  C   UNL     1       0.483   3.282   2.322  0.00  0.00    +0.128 A 
ATOM     14  C   UNL     1      -0.834   3.461   1.936  0.00  0.00    +0.009 A 
ATOM     15  C   UNL     1      -1.833   3.517   2.890  0.00  0.00    +0.008 A 
ATOM     16  F   UNL     1       1.459   3.221   1.390  0.00  0.00    -0.205 F 
ENDBRANCH   1  14
BRANCH   3  17
ATOM     17  C   UNL     1      -2.247   0.985  -2.146  0.00  0.00    +0.436 C 
ATOM     18  F   UNL     1      -3.182   0.360  -1.313  0.00  0.00    -0.166 F 
ATOM     19  F   UNL     1      -2.795   1.146  -3.423  0.00  0.00    -0.166 F 
ATOM     20  F   UNL     1      -1.095   0.196  -2.228  0.00  0.00    -0.166 F 
ENDBRANCH   3  17
BRANCH   3  21
ATOM     21  O   UNL     1      -0.836   2.939  -2.342  0.00  0.00    -0.364 OA
ATOM     22  H   UNL     1      -1.060   3.070  -3.274  0.00  0.00    +0.212 HD
ENDBRANCH   3  21
BRANCH   2  23
ATOM     23  C   UNL     1      -0.146   1.397  -0.078  0.00  0.00    +0.173 C 
ATOM     24  O   UNL     1       0.854   1.828  -0.612  0.00  0.00    -0.292 OA
BRANCH  23  25
ATOM     25  C   UNL     1      -0.114   0.094   0.603  0.00  0.00    +0.018 A 
ATOM     26  C   UNL     1      -1.227  -0.351   1.323  0.00  0.00    +0.013 A 
ATOM     27  C   UNL     1      -1.192  -1.576   1.953  0.00  0.00    +0.020 A 
ATOM     28  C   UNL     1      -0.052  -2.361   1.885  0.00  0.00    +0.041 A 
ATOM     29  C   UNL     1       1.057  -1.924   1.178  0.00  0.00    +0.020 A 
ATOM     30  C   UNL     1       1.034  -0.704   0.538  0.00  0.00    +0.013 A 
ATOM     31 CL   UNL     1      -0.013  -3.900   2.688  0.00  0.00    -0.084 Cl
ENDBRANCH  23  25
ENDBRANCH   2  23
TORSDOF 5
