REMARK  Name = ZINC65294086
REMARK  10 active torsions:
REMARK  status: ('A' for Active; 'I' for Inactive)
REMARK    1  A    between atoms: C_1  and  C_2
REMARK    2  A    between atoms: C_5  and  C_9
REMARK    3  A    between atoms: C_7  and  C_8
REMARK    4  A    between atoms: C_9  and  C_11
REMARK    5  A    between atoms: C_9  and  N_12
REMARK    6  A    between atoms: C_13  and  C_15
REMARK    7  A    between atoms: C_15  and  N_16
REMARK    8  A    between atoms: N_16  and  C_17
REMARK    9  A    between atoms: C_23  and  C_32
REMARK   10  A    between atoms: N_25  and  C_26
REMARK                            x       y       z     vdW  Elec       q    Type
REMARK                         _______ _______ _______ _____ _____    ______ ____
ROOT
ATOM      1  N   UNL     1       2.931  -7.785  -1.760  0.00  0.00    -0.304 N 
ATOM      2  C   UNL     1       2.186  -8.969  -2.194  0.00  0.00    +0.131 C 
ATOM      3  C   UNL     1       4.101  -7.930  -1.038  0.00  0.00    +0.164 A 
ATOM      4  N   UNL     1       4.704  -9.035  -0.650  0.00  0.00    -0.205 NA
ATOM      5  C   UNL     1       5.844  -9.019   0.052  0.00  0.00    +0.173 A 
ATOM      6  C   UNL     1       6.372  -7.761   0.357  0.00  0.00    +0.082 A 
ATOM      7  S   UNL     1       5.192  -6.668  -0.394  0.00  0.00    -0.049 S 
ATOM      8  C   UNL     1       7.543  -7.920   1.080  0.00  0.00    +0.076 A 
ATOM      9  N   UNL     1       7.763  -9.201   1.234  0.00  0.00    -0.169 NA
ATOM     10  N   UNL     1       6.738  -9.920   0.615  0.00  0.00    -0.213 N 
ATOM     11  C   UNL     1       8.416  -6.807   1.599  0.00  0.00    +0.069 C 
ENDROOT
BRANCH  10  12
ATOM     12  C   UNL     1       6.629 -11.315   0.570  0.00  0.00    +0.068 A 
ATOM     13  C   UNL     1       5.379 -11.918   0.614  0.00  0.00    +0.028 A 
ATOM     14  C   UNL     1       5.275 -13.294   0.569  0.00  0.00    +0.002 A 
ATOM     15  C   UNL     1       6.414 -14.072   0.480  0.00  0.00    +0.000 A 
ATOM     16  C   UNL     1       7.661 -13.476   0.436  0.00  0.00    +0.002 A 
ATOM     17  C   UNL     1       7.771 -12.100   0.474  0.00  0.00    +0.028 A 
ENDBRANCH  10  12
BRANCH   1  18
ATOM     18  C   UNL     1       2.437  -6.446  -2.092  0.00  0.00    +0.202 C 
BRANCH  18  20
ATOM     19  N   UNL     1       0.948  -4.746  -1.087  0.00  0.00    -0.307 N 
ATOM     20  C   UNL     1       1.524  -5.962  -0.996  0.00  0.00    +0.231 C 
ATOM     21  O   UNL     1       1.306  -6.665  -0.033  0.00  0.00    -0.274 OA
ATOM     22  H   UNL     1       1.121  -4.184  -1.858  0.00  0.00    +0.149 HD
BRANCH  19  23
ATOM     23  C   UNL     1       0.059  -4.275  -0.021  0.00  0.00    +0.100 C 
ATOM     24  C   UNL     1      -1.356  -4.802  -0.267  0.00  0.00    +0.033 C 
BRANCH  23  29
ATOM     25  C   UNL     1      -0.018   1.503   0.010  0.00  0.00    +0.044 C 
ATOM     26  C   UNL     1       0.002  -0.004   0.002  0.00  0.00    -0.048 A 
ATOM     27  C   UNL     1       0.006  -0.689  -1.199  0.00  0.00    +0.004 A 
ATOM     28  C   UNL     1       0.025  -2.071  -1.207  0.00  0.00    +0.006 A 
ATOM     29  C   UNL     1       0.040  -2.768  -0.013  0.00  0.00    -0.027 A 
ATOM     30  C   UNL     1       0.037  -2.084   1.188  0.00  0.00    +0.009 A 
ATOM     31  C   UNL     1       0.023  -0.702   1.195  0.00  0.00    -0.047 A 
ATOM     32  C   UNL     1       0.025   0.045   2.504  0.00  0.00    +0.044 C 
ENDBRANCH  23  29
ENDBRANCH  19  23
ENDBRANCH  18  20
ENDBRANCH   1  18
TORSDOF 5
