REMARK  Name = ZINC63486067
REMARK  5 active torsions:
REMARK  status: ('A' for Active; 'I' for Inactive)
REMARK    1  A    between atoms: C_1  and  N_2
REMARK    2  A    between atoms: C_8  and  C_10
REMARK    3  A    between atoms: C_10  and  C_12
REMARK    4  A    between atoms: C_10  and  N_22
REMARK    5  A    between atoms: C_12  and  C_13
REMARK                            x       y       z     vdW  Elec       q    Type
REMARK                         _______ _______ _______ _____ _____    ______ ____
ROOT
ATOM      1  C   UNL     1       2.448  -4.184   1.173  0.00  0.00    +0.175 C 
ENDROOT
BRANCH   1   2
ATOM      2  N   UNL     1       3.699  -4.891   0.884  0.00  0.00    -0.211 N 
ATOM      3  C   UNL     1       4.841  -4.492   1.478  0.00  0.00    +0.236 C 
ATOM      4  O   UNL     1       4.863  -3.474   2.136  0.00  0.00    -0.274 OA
ATOM      5  C   UNL     1       6.085  -5.315   1.322  0.00  0.00    +0.144 C 
ATOM      6  C   UNL     1       7.321  -4.472   1.274  0.00  0.00    -0.008 C 
ATOM      7  C   UNL     1       8.359  -4.815   0.509  0.00  0.00    -0.003 C 
ATOM      8  C   UNL     1       8.326  -5.967  -0.309  0.00  0.00    +0.001 C 
ATOM      9  C   UNL     1       7.162  -6.636  -0.522  0.00  0.00    +0.022 C 
ATOM     10  C   UNL     1       5.995  -6.180   0.098  0.00  0.00    +0.051 C 
ATOM     11  N   UNL     1       4.825  -6.479  -0.422  0.00  0.00    -0.166 NA
ATOM     12  C   UNL     1       3.692  -5.932   0.035  0.00  0.00    +0.333 C 
ATOM     13  O   UNL     1       2.625  -6.388  -0.332  0.00  0.00    -0.250 OA
ENDBRANCH   1   2
BRANCH   1  21
ATOM     14  C   UNL     1      -0.018   1.465   0.010  0.00  0.00    +0.105 C 
ATOM     15  N   UNL     1       0.002  -0.004   0.002  0.00  0.00    -0.302 NA
ATOM     16  C   UNL     1       0.592  -0.516  -1.242  0.00  0.00    +0.103 C 
ATOM     17  C   UNL     1       0.430  -2.039  -1.292  0.00  0.00    +0.123 C 
ATOM     18  N   UNL     1       0.991  -2.608  -0.057  0.00  0.00    -0.297 N 
ATOM     19  C   UNL     1       0.549  -2.051   1.230  0.00  0.00    +0.123 C 
ATOM     20  C   UNL     1       0.706  -0.527   1.180  0.00  0.00    +0.103 C 
ATOM     21  C   UNL     1       1.886  -3.615  -0.104  0.00  0.00    +0.237 C 
ATOM     22  O   UNL     1       2.239  -4.063  -1.175  0.00  0.00    -0.274 OA
ENDBRANCH   1  21
BRANCH   1  23
ATOM     23  C   UNL     1       1.440  -5.160   1.784  0.00  0.00    +0.065 C 
BRANCH  23  24
ATOM     24  C   UNL     1       1.948  -5.635   3.121  0.00  0.00    -0.039 C 
ATOM     25  C   UNL     1       1.637  -5.127   4.335  0.00  0.00    -0.001 A 
ATOM     26  C   UNL     1       0.769  -4.022   4.759  0.00  0.00    +0.010 A 
ATOM     27  C   UNL     1       0.658  -3.744   6.078  0.00  0.00    +0.001 A 
ATOM     28  C   UNL     1       1.349  -4.482   7.048  0.00  0.00    +0.002 A 
ATOM     29  C   UNL     1       2.165  -5.511   6.736  0.00  0.00    +0.026 A 
ATOM     30  C   UNL     1       2.356  -5.892   5.379  0.00  0.00    +0.043 A 
ATOM     31  N   UNL     1       3.082  -6.836   4.832  0.00  0.00    -0.380 N 
ATOM     32  C   UNL     1       2.901  -6.780   3.377  0.00  0.00    +0.144 C 
ATOM     33  H   UNL     1       3.642  -7.468   5.309  0.00  0.00    +0.160 HD
ENDBRANCH  23  24
ENDBRANCH   1  23
TORSDOF 4
