REMARK  Name = ZINC15957016
REMARK  5 active torsions:
REMARK  status: ('A' for Active; 'I' for Inactive)
REMARK    1  A    between atoms: C_12  and  C_15
REMARK    2  A    between atoms: C_15  and  C_16
REMARK    3  A    between atoms: C_19  and  O_23
REMARK    4  A    between atoms: C_20  and  O_22
REMARK    5  A    between atoms: N_26  and  C_29
REMARK                            x       y       z     vdW  Elec       q    Type
REMARK                         _______ _______ _______ _____ _____    ______ ____
ROOT
ATOM      1  C   UNL     1      -0.025   1.440  -0.331  0.00  0.00    +0.000 A 
ATOM      2  C   UNL     1       1.110   2.173  -0.626  0.00  0.00    +0.002 A 
ATOM      3  C   UNL     1       2.320   1.538  -0.815  0.00  0.00    +0.023 A 
ATOM      4  C   UNL     1       2.407   0.152  -0.709  0.00  0.00    +0.039 A 
ATOM      5  C   UNL     1       1.259  -0.576  -0.412  0.00  0.00    +0.003 A 
ATOM      6  C   UNL     1       0.053   0.062  -0.224  0.00  0.00    +0.008 A 
ATOM      7  C   UNL     1       1.685  -2.016  -0.371  0.00  0.00    +0.136 C 
ATOM      8  C   UNL     1       0.918  -2.860  -1.397  0.00  0.00    +0.123 C 
ATOM      9  C   UNL     1      -0.212  -3.542  -0.577  0.00  0.00    +0.108 C 
ATOM     10  C   UNL     1      -0.032  -3.014   0.862  0.00  0.00    +0.072 C 
ATOM     11  N   UNL     1       1.408  -2.626   0.943  0.00  0.00    -0.295 NA
ATOM     12  C   UNL     1       0.151  -5.008  -0.635  0.00  0.00    +0.232 C 
ATOM     13  O   UNL     1      -0.472  -5.905  -0.108  0.00  0.00    -0.274 OA
ATOM     14  N   UNL     1       1.265  -5.162  -1.359  0.00  0.00    -0.210 N 
ATOM     15  C   UNL     1       1.784  -4.014  -1.851  0.00  0.00    +0.233 C 
ATOM     16  O   UNL     1       2.778  -3.916  -2.539  0.00  0.00    -0.274 OA
ATOM     17  C   UNL     1       3.159  -1.997  -0.668  0.00  0.00    +0.243 C 
ATOM     18  O   UNL     1       3.898  -2.957  -0.730  0.00  0.00    -0.273 OA
ATOM     19  N   UNL     1       3.499  -0.707  -0.853  0.00  0.00    -0.283 N 
ATOM     20  H   UNL     1       2.000  -3.428   1.101  0.00  0.00    +0.124 HD
ATOM     21  H   UNL     1       4.399  -0.409  -1.062  0.00  0.00    +0.155 HD
ENDROOT
BRANCH  14  22
ATOM     22  C   UNL     1       1.849  -6.416  -1.596  0.00  0.00    +0.044 A 
ATOM     23  C   UNL     1       3.083  -6.724  -1.040  0.00  0.00    +0.025 A 
ATOM     24  C   UNL     1       3.655  -7.959  -1.274  0.00  0.00    +0.022 A 
ATOM     25  C   UNL     1       3.000  -8.888  -2.063  0.00  0.00    +0.041 A 
ATOM     26  C   UNL     1       1.770  -8.582  -2.619  0.00  0.00    +0.022 A 
ATOM     27  C   UNL     1       1.191  -7.351  -2.382  0.00  0.00    +0.025 A 
ATOM     28 CL   UNL     1       3.722 -10.439  -2.357  0.00  0.00    -0.084 Cl
ENDBRANCH  14  22
BRANCH  10  29
ATOM     29  C   UNL     1      -0.330  -4.120   1.877  0.00  0.00    +0.054 C 
BRANCH  29  30
ATOM     30  C   UNL     1      -0.268  -3.552   3.271  0.00  0.00    -0.042 A 
ATOM     31  C   UNL     1       0.929  -3.550   3.963  0.00  0.00    +0.007 A 
ATOM     32  C   UNL     1       0.990  -3.030   5.243  0.00  0.00    +0.049 A 
ATOM     33  C   UNL     1      -0.150  -2.509   5.834  0.00  0.00    +0.158 A 
ATOM     34  C   UNL     1      -1.354  -2.511   5.138  0.00  0.00    +0.158 A 
ATOM     35  C   UNL     1      -1.408  -3.029   3.854  0.00  0.00    +0.052 A 
BRANCH  34  36
ATOM     36  O   UNL     1      -2.475  -2.001   5.714  0.00  0.00    -0.503 OA
ATOM     37  H   UNL     1      -2.609  -1.058   5.548  0.00  0.00    +0.292 HD
ENDBRANCH  34  36
BRANCH  33  38
ATOM     38  O   UNL     1      -0.091  -1.998   7.093  0.00  0.00    -0.503 OA
ATOM     39  H   UNL     1       0.117  -1.054   7.125  0.00  0.00    +0.292 HD
ENDBRANCH  33  38
ENDBRANCH  29  30
ENDBRANCH  10  29
TORSDOF 5
