REMARK  Name = ZINC03143665
REMARK  13 active torsions:
REMARK  status: ('A' for Active; 'I' for Inactive)
REMARK    1  A    between atoms: C_1  and  O_2
REMARK    2  A    between atoms: O_2  and  C_3
REMARK    3  A    between atoms: C_5  and  C_13
REMARK    4  A    between atoms: C_7  and  O_11
REMARK    5  A    between atoms: C_8  and  O_9
REMARK    6  A    between atoms: O_9  and  C_10
REMARK    7  A    between atoms: O_11  and  C_12
REMARK    8  A    between atoms: N_14  and  N_15
REMARK    9  A    between atoms: C_16  and  C_18
REMARK   10  A    between atoms: C_18  and  N_29
REMARK   11  A    between atoms: C_19  and  C_20
REMARK   12  A    between atoms: C_23  and  N_26
REMARK   13  A    between atoms: C_30  and  C_32
REMARK                            x       y       z     vdW  Elec       q    Type
REMARK                         _______ _______ _______ _____ _____    ______ ____
ROOT
ATOM      1  C   UNL     1       2.084   5.742  -0.165  0.00  0.00    +0.098 C 
ATOM      2  C   UNL     1       3.292   6.341  -0.284  0.00  0.00    +0.036 C 
ENDROOT
BRANCH   2   3
ATOM      3  C   UNL     1       3.373   7.789  -0.535  0.00  0.00    -0.023 A 
ATOM      4  C   UNL     1       2.298   8.461  -1.126  0.00  0.00    +0.010 A 
ATOM      5  C   UNL     1       2.379   9.818  -1.353  0.00  0.00    +0.033 A 
ATOM      6  C   UNL     1       3.525  10.514  -1.008  0.00  0.00    +0.126 A 
ATOM      7  C   UNL     1       4.595   9.855  -0.428  0.00  0.00    +0.033 A 
ATOM      8  C   UNL     1       4.527   8.499  -0.189  0.00  0.00    +0.010 A 
BRANCH   6   9
ATOM      9  N   UNL     1       3.607  11.970  -1.262  0.00  0.00    +0.056 N 
ATOM     10  O   UNL     1       4.614  12.585  -0.960  0.00  0.00    -0.126 OA
ATOM     11  O   UNL     1       2.667  12.553  -1.772  0.00  0.00    -0.126 OA
ENDBRANCH   6   9
ENDBRANCH   2   3
BRANCH   1  13
ATOM     12  N   UNL     1       0.795   3.681   0.056  0.00  0.00    -0.202 N 
ATOM     13  C   UNL     1       1.998   4.278  -0.064  0.00  0.00    +0.277 C 
ATOM     14  O   UNL     1       3.011   3.605  -0.088  0.00  0.00    -0.267 OA
ATOM     15  H   UNL     1      -0.007   4.219   0.143  0.00  0.00    +0.178 HD
BRANCH  12  17
ATOM     16  C   UNL     1      -0.454   1.708   0.171  0.00  0.00    +0.138 C 
ATOM     17  N   UNL     1       0.704   2.283   0.055  0.00  0.00    -0.187 NA
BRANCH  16  20
ATOM     18  C   UNL     1      -1.882  -1.764   0.293  0.00  0.00    +0.166 A 
ATOM     19  C   UNL     1      -1.795  -0.384   0.295  0.00  0.00    +0.059 A 
ATOM     20  C   UNL     1      -0.550   0.237   0.170  0.00  0.00    +0.002 A 
ATOM     21  C   UNL     1       0.605  -0.540   0.039  0.00  0.00    +0.059 A 
ATOM     22  C   UNL     1       0.512  -1.920   0.043  0.00  0.00    +0.166 A 
ATOM     23  C   UNL     1      -0.730  -2.535   0.167  0.00  0.00    +0.204 A 
BRANCH  18  25
ATOM     24  C   UNL     1      -4.234  -1.517   0.538  0.00  0.00    +0.277 C 
ATOM     25  O   UNL     1      -3.094  -2.369   0.413  0.00  0.00    -0.491 OA
ENDBRANCH  18  25
BRANCH  23  26
ATOM     26  O   UNL     1      -0.818  -3.892   0.166  0.00  0.00    -0.488 OA
ATOM     27  C   UNL     1      -0.992  -4.530  -1.101  0.00  0.00    +0.277 C 
ENDBRANCH  23  26
BRANCH  22  28
ATOM     28  O   UNL     1       1.635  -2.676  -0.080  0.00  0.00    -0.491 OA
ATOM     29  C   UNL     1       2.877  -1.979  -0.204  0.00  0.00    +0.277 C 
ENDBRANCH  22  28
ENDBRANCH  16  20
ENDBRANCH  12  17
ENDBRANCH   1  13
BRANCH   1  30
ATOM     30  N   UNL     1       0.920   6.514  -0.139  0.00  0.00    -0.277 N 
ATOM     31  C   UNL     1      -0.045   6.310  -1.057  0.00  0.00    +0.248 C 
ATOM     32  O   UNL     1       0.054   5.393  -1.849  0.00  0.00    -0.270 OA
ATOM     33  H   UNL     1       0.806   7.197   0.541  0.00  0.00    +0.155 HD
BRANCH  31  34
ATOM     34  C   UNL     1      -1.223   7.202  -1.102  0.00  0.00    +0.037 A 
ATOM     35  C   UNL     1      -1.342   8.252  -0.190  0.00  0.00    +0.013 A 
ATOM     36  C   UNL     1      -2.442   9.084  -0.241  0.00  0.00    +0.001 A 
ATOM     37  C   UNL     1      -3.430   8.872  -1.186  0.00  0.00    +0.000 A 
ATOM     38  C   UNL     1      -3.321   7.829  -2.088  0.00  0.00    +0.001 A 
ATOM     39  C   UNL     1      -2.224   6.993  -2.052  0.00  0.00    +0.013 A 
ENDBRANCH  31  34
ENDBRANCH   1  30
TORSDOF 10
