REMARK  Name = ZINC43218799
REMARK  10 active torsions:
REMARK  status: ('A' for Active; 'I' for Inactive)
REMARK    1  A    between atoms: C_1  and  C_2
REMARK    2  A    between atoms: C_2  and  C_3
REMARK    3  A    between atoms: C_3  and  O_4
REMARK    4  A    between atoms: O_4  and  C_5
REMARK    5  A    between atoms: C_8  and  C_11
REMARK    6  A    between atoms: N_19  and  C_22
REMARK    7  A    between atoms: C_25  and  C_28
REMARK    8  A    between atoms: C_28  and  C_30
REMARK    9  A    between atoms: C_31  and  C_33
REMARK   10  A    between atoms: C_31  and  C_39
REMARK                            x       y       z     vdW  Elec       q    Type
REMARK                         _______ _______ _______ _____ _____    ______ ____
ROOT
ATOM      1  C   UNL     1       3.240  -4.426  -5.648  0.00  0.00    -0.026 C 
ATOM      2  C   UNL     1       2.204  -5.053  -6.575  0.00  0.00    +0.078 C 
ATOM      3  C   UNL     1       1.852  -6.291  -5.665  0.00  0.00    +0.090 C 
ATOM      4  C   UNL     1       0.599  -6.731  -6.230  0.00  0.00    +0.229 C 
ATOM      5  O   UNL     1       0.185  -7.867  -6.312  0.00  0.00    -0.275 OA
ATOM      6  N   UNL     1      -0.022  -5.582  -6.653  0.00  0.00    -0.210 N 
ATOM      7  C   UNL     1       0.821  -4.490  -6.681  0.00  0.00    +0.229 C 
ATOM      8  O   UNL     1       0.515  -3.321  -6.766  0.00  0.00    -0.275 OA
ATOM      9  C   UNL     1       3.168  -6.825  -5.291  0.00  0.00    +0.074 C 
ATOM     10  N   UNL     1       4.052  -5.602  -5.195  0.00  0.00    +0.398 N 
ATOM     11  H   UNL     1       4.853  -5.718  -5.798  0.00  0.00    -0.083 HD
ATOM     12  H   UNL     1       4.357  -5.461  -4.243  0.00  0.00    -0.083 HD
ENDROOT
BRANCH   1  16
ATOM     13  C   UNL     1       1.342  -2.529  -2.322  0.00  0.00    +0.121 A 
ATOM     14  C   UNL     1       1.712  -3.864  -2.242  0.00  0.00    +0.046 A 
ATOM     15  C   UNL     1       2.326  -4.475  -3.319  0.00  0.00    +0.005 A 
ATOM     16  C   UNL     1       2.571  -3.757  -4.475  0.00  0.00    -0.060 A 
ATOM     17  C   UNL     1       2.203  -2.427  -4.557  0.00  0.00    +0.005 A 
ATOM     18  C   UNL     1       1.584  -1.813  -3.485  0.00  0.00    +0.046 A 
BRANCH  13  19
ATOM     19  O   UNL     1       0.738  -1.926  -1.264  0.00  0.00    -0.492 OA
BRANCH  19  20
ATOM     20  C   UNL     1       0.521  -2.725  -0.099  0.00  0.00    +0.229 C 
BRANCH  20  22
ATOM     21  C   UNL     1      -0.397  -2.736   2.224  0.00  0.00    +0.007 C 
ATOM     22  C   UNL     1      -0.164  -1.881   0.977  0.00  0.00    +0.038 C 
ENDBRANCH  20  22
ENDBRANCH  19  20
ENDBRANCH  13  19
ENDBRANCH   1  16
BRANCH   6  23
ATOM     23  C   UNL     1      -1.366  -5.523  -7.029  0.00  0.00    +0.044 A 
ATOM     24  C   UNL     1      -2.151  -6.671  -6.981  0.00  0.00    +0.024 A 
ATOM     25  C   UNL     1      -3.475  -6.618  -7.352  0.00  0.00    +0.013 A 
ATOM     26  C   UNL     1      -4.032  -5.406  -7.778  0.00  0.00    +0.017 A 
ATOM     27  C   UNL     1      -3.239  -4.254  -7.824  0.00  0.00    +0.013 A 
ATOM     28  C   UNL     1      -1.917  -4.316  -7.447  0.00  0.00    +0.024 A 
BRANCH  26  29
ATOM     29  C   UNL     1      -5.445  -5.345  -8.175  0.00  0.00    +0.160 C 
ATOM     30  O   UNL     1      -6.131  -6.344  -8.134  0.00  0.00    -0.292 OA
ATOM     31  C   UNL     1      -6.043  -4.039  -8.633  0.00  0.00    +0.091 C 
ENDBRANCH  26  29
ENDBRANCH   6  23
BRANCH   9  32
ATOM     32  C   UNL     1       3.094  -7.512  -3.952  0.00  0.00    -0.047 A 
ATOM     33  C   UNL     1       1.920  -8.121  -3.551  0.00  0.00    +0.003 A 
ATOM     34  C   UNL     1       1.853  -8.751  -2.322  0.00  0.00    +0.000 A 
ATOM     35  C   UNL     1       2.960  -8.772  -1.494  0.00  0.00    +0.000 A 
ATOM     36  C   UNL     1       4.134  -8.163  -1.896  0.00  0.00    +0.000 A 
ATOM     37  C   UNL     1       4.203  -7.537  -3.126  0.00  0.00    +0.003 A 
ENDBRANCH   9  32
BRANCH   9  38
ATOM     38  C   UNL     1       3.667  -7.779  -6.346  0.00  0.00    +0.350 C 
ATOM     39  O   UNL     1       4.714  -7.552  -6.927  0.00  0.00    -0.248 OA
ATOM     40  O   UNL     1       3.023  -8.779  -6.617  0.00  0.00    -0.248 OA
ENDBRANCH   9  38
TORSDOF 8
