REMARK  Name = ZINC63801455
REMARK  6 active torsions:
REMARK  status: ('A' for Active; 'I' for Inactive)
REMARK    1  A    between atoms: C_7  and  C_10
REMARK    2  A    between atoms: C_10  and  C_11
REMARK    3  A    between atoms: N_13  and  N_14
REMARK    4  A    between atoms: C_15  and  C_17
REMARK    5  A    between atoms: C_17  and  N_18
REMARK    6  A    between atoms: C_19  and  C_21
REMARK                            x       y       z     vdW  Elec       q    Type
REMARK                         _______ _______ _______ _____ _____    ______ ____
ROOT
ATOM      1  C   UNL     1       0.460  -3.646  -1.440  0.00  0.00    +0.233 C 
ATOM      2  O   UNL     1       1.006  -3.075  -2.360  0.00  0.00    -0.274 OA
ATOM      3  N   UNL     1      -0.353  -4.693  -1.684  0.00  0.00    -0.234 N 
ATOM      4  H   UNL     1      -0.790  -5.150  -0.948  0.00  0.00    +0.173 HD
ENDROOT
BRANCH   3   5
ATOM      5  N   UNL     1      -0.567  -5.122  -3.001  0.00  0.00    -0.233 N 
ATOM      6  C   UNL     1      -1.380  -6.168  -3.245  0.00  0.00    +0.246 C 
ATOM      7  O   UNL     1      -1.926  -6.740  -2.325  0.00  0.00    -0.273 OA
ATOM      8  H   UNL     1      -0.131  -4.665  -3.737  0.00  0.00    +0.173 HD
BRANCH   6   9
ATOM      9  C   UNL     1      -1.611  -6.629  -4.661  0.00  0.00    +0.201 C 
BRANCH   9  10
ATOM     10  N   UNL     1      -2.526  -7.774  -4.660  0.00  0.00    -0.306 N 
ATOM     11  C   UNL     1      -2.878  -8.356  -5.823  0.00  0.00    +0.227 C 
ATOM     12  O   UNL     1      -2.438  -7.933  -6.871  0.00  0.00    -0.275 OA
ATOM     13  H   UNL     1      -2.877  -8.112  -3.821  0.00  0.00    +0.149 HD
BRANCH  11  14
ATOM     14  C   UNL     1      -3.819  -9.533  -5.821  0.00  0.00    +0.140 C 
ATOM     15  C   UNL     1      -3.531 -10.493  -7.005  0.00  0.00    +0.051 C 
ATOM     16  C   UNL     1      -4.806 -11.023  -7.579  0.00  0.00    -0.019 C 
ATOM     17  C   UNL     1      -5.945 -10.407  -7.328  0.00  0.00    +0.037 C 
ATOM     18  S   UNL     1      -5.533  -9.029  -6.272  0.00  0.00    -0.120 S 
ENDBRANCH  11  14
ENDBRANCH   9  10
ENDBRANCH   6   9
ENDBRANCH   3   5
BRANCH   1  19
ATOM     19  C   UNL     1       0.691  -3.186  -0.024  0.00  0.00    +0.130 C 
BRANCH  19  26
ATOM     20  C   UNL     1      -0.016   1.348   0.009  0.00  0.00    +0.001 A 
ATOM     21  C   UNL     1       1.166   2.101   0.002  0.00  0.00    +0.002 A 
ATOM     22  C   UNL     1       2.391   1.535  -0.013  0.00  0.00    +0.026 A 
ATOM     23  C   UNL     1       2.529   0.120  -0.022  0.00  0.00    +0.043 A 
ATOM     24  N   UNL     1       3.587  -0.654  -0.037  0.00  0.00    -0.380 N 
ATOM     25  C   UNL     1       3.143  -2.053  -0.041  0.00  0.00    +0.145 C 
ATOM     26  C   UNL     1       1.631  -2.008  -0.025  0.00  0.00    -0.033 C 
ATOM     27  C   UNL     1       1.295  -0.698  -0.014  0.00  0.00    -0.001 A 
ATOM     28  C   UNL     1       0.002  -0.004   0.002  0.00  0.00    +0.010 A 
ATOM     29  H   UNL     1       4.509  -0.353  -0.045  0.00  0.00    +0.160 HD
ENDBRANCH  19  26
ENDBRANCH   1  19
TORSDOF 6
