REMARK  Name = ZINC58884434
REMARK  8 active torsions:
REMARK  status: ('A' for Active; 'I' for Inactive)
REMARK    1  A    between atoms: C_1  and  C_2
REMARK    2  A    between atoms: C_5  and  N_8
REMARK    3  A    between atoms: C_9  and  C_32
REMARK    4  A    between atoms: C_11  and  C_14
REMARK    5  A    between atoms: C_12  and  C_13
REMARK    6  A    between atoms: N_15  and  N_16
REMARK    7  A    between atoms: C_17  and  C_19
REMARK    8  A    between atoms: N_21  and  C_22
REMARK                            x       y       z     vdW  Elec       q    Type
REMARK                         _______ _______ _______ _____ _____    ______ ____
ROOT
ATOM      1  N   UNL     1       3.491  -8.394   1.509  0.00  0.00    -0.199 N 
ATOM      2  C   UNL     1       4.701  -8.231   2.079  0.00  0.00    +0.318 C 
ATOM      3  O   UNL     1       5.129  -7.113   2.287  0.00  0.00    -0.263 OA
ATOM      4  H   UNL     1       3.149  -9.287   1.343  0.00  0.00    +0.178 HD
ENDROOT
BRANCH   2   5
ATOM      5  C   UNL     1       5.514  -9.422   2.456  0.00  0.00    +0.305 C 
ATOM      6  O   UNL     1       5.086 -10.539   2.248  0.00  0.00    -0.265 OA
ATOM      7  N   UNL     1       6.723  -9.259   3.027  0.00  0.00    -0.277 N 
ATOM      8  H   UNL     1       7.094  -8.369   3.133  0.00  0.00    +0.155 HD
BRANCH   7   9
ATOM      9  C   UNL     1       7.443 -10.370   3.465  0.00  0.00    +0.042 A 
ATOM     10  C   UNL     1       7.374 -11.560   2.773  0.00  0.00    +0.024 A 
ATOM     11  C   UNL     1       8.088 -12.675   3.202  0.00  0.00    +0.002 A 
ATOM     12  C   UNL     1       8.873 -12.622   4.314  0.00  0.00    +0.008 A 
ATOM     13  C   UNL     1       8.970 -11.427   5.048  0.00  0.00    -0.016 A 
ATOM     14  C   UNL     1       8.252 -10.284   4.618  0.00  0.00    +0.003 A 
ATOM     15  C   UNL     1       8.355  -9.091   5.349  0.00  0.00    +0.010 A 
ATOM     16  C   UNL     1       9.145  -9.045   6.457  0.00  0.00    +0.001 A 
ATOM     17  C   UNL     1       9.857 -10.167   6.878  0.00  0.00    +0.001 A 
ATOM     18  C   UNL     1       9.772 -11.344   6.199  0.00  0.00    +0.008 A 
ENDBRANCH   7   9
ENDBRANCH   2   5
BRANCH   1  20
ATOM     19  C   UNL     1       1.560  -7.432   0.604  0.00  0.00    +0.140 C 
ATOM     20  N   UNL     1       2.727  -7.274   1.155  0.00  0.00    -0.187 NA
BRANCH  19  24
ATOM     21  N   UNL     1       0.082  -4.173  -0.074  0.00  0.00    -0.317 N 
ATOM     22  C   UNL     1      -0.922  -4.968  -0.551  0.00  0.00    +0.022 A 
ATOM     23  C   UNL     1      -0.570  -6.256  -0.393  0.00  0.00    +0.032 A 
ATOM     24  C   UNL     1       0.757  -6.255   0.232  0.00  0.00    +0.016 A 
ATOM     25  C   UNL     1       1.101  -4.942   0.395  0.00  0.00    +0.030 A 
ATOM     26  C   UNL     1       2.387  -4.434   0.995  0.00  0.00    +0.064 C 
ATOM     27  C   UNL     1      -2.213  -4.480  -1.156  0.00  0.00    +0.064 C 
BRANCH  21  32
ATOM     28  C   UNL     1       0.018   1.502  -0.074  0.00  0.00    +0.044 C 
ATOM     29  C   UNL     1       0.035  -0.005  -0.074  0.00  0.00    -0.050 A 
ATOM     30  C   UNL     1       0.042  -0.695  -1.272  0.00  0.00    +0.005 A 
ATOM     31  C   UNL     1       0.057  -2.076  -1.276  0.00  0.00    +0.026 A 
ATOM     32  C   UNL     1       0.067  -2.772  -0.074  0.00  0.00    +0.047 A 
ATOM     33  C   UNL     1       0.060  -2.076   1.128  0.00  0.00    +0.026 A 
ATOM     34  C   UNL     1       0.050  -0.695   1.124  0.00  0.00    +0.005 A 
ENDBRANCH  21  32
ENDBRANCH  19  24
ENDBRANCH   1  20
TORSDOF 5
