REMARK  Name = ZINC35424786
REMARK  9 active torsions:
REMARK  status: ('A' for Active; 'I' for Inactive)
REMARK    1  A    between atoms: C_1  and  O_2
REMARK    2  A    between atoms: O_2  and  C_3
REMARK    3  A    between atoms: C_3  and  C_4
REMARK    4  A    between atoms: C_4  and  O_5
REMARK    5  A    between atoms: O_5  and  C_6
REMARK    6  A    between atoms: C_8  and  C_12
REMARK    7  A    between atoms: C_14  and  C_17
REMARK    8  A    between atoms: N_22  and  C_23
REMARK    9  A    between atoms: C_23  and  C_24
REMARK                            x       y       z     vdW  Elec       q    Type
REMARK                         _______ _______ _______ _____ _____    ______ ____
ROOT
ATOM      1  C   UNL     1       4.268  -8.929  -4.952  0.00  0.00    +0.022 C 
ATOM      2  C   UNL     1       5.780  -9.226  -4.878  0.00  0.00    -0.008 C 
ATOM      3  C   UNL     1       6.075  -9.884  -6.251  0.00  0.00    -0.020 C 
ATOM      4  C   UNL     1       5.122  -9.099  -7.186  0.00  0.00    -0.077 C 
ATOM      5  N   UNL     1       3.899  -8.875  -6.379  0.00  0.00    +0.390 N 
ATOM      6  H   UNL     1       3.220  -9.594  -6.581  0.00  0.00    -0.080 HD
ENDROOT
BRANCH   1   9
ATOM      7  C   UNL     1       4.035  -5.492  -3.811  0.00  0.00    +0.202 A 
ATOM      8  N   UNL     1       4.534  -6.467  -4.591  0.00  0.00    -0.193 NA
ATOM      9  C   UNL     1       3.972  -7.605  -4.296  0.00  0.00    +0.214 A 
ATOM     10  O   UNL     1       3.088  -7.399  -3.312  0.00  0.00    -0.339 OA
ATOM     11  N   UNL     1       3.146  -6.014  -3.004  0.00  0.00    -0.056 NA
BRANCH   7  14
ATOM     12  C   UNL     1       4.248  -1.804  -3.067  0.00  0.00    +0.215 A 
ATOM     13  C   UNL     1       3.849  -3.131  -2.992  0.00  0.00    +0.079 A 
ATOM     14  C   UNL     1       4.430  -4.061  -3.855  0.00  0.00    +0.029 A 
ATOM     15  C   UNL     1       5.395  -3.610  -4.761  0.00  0.00    +0.031 A 
ATOM     16  C   UNL     1       5.736  -2.274  -4.770  0.00  0.00    +0.115 A 
ATOM     17  N   UNL     1       5.161  -1.421  -3.943  0.00  0.00    -0.221 NA
BRANCH  12  18
ATOM     18  O   UNL     1       3.691  -0.889  -2.234  0.00  0.00    -0.474 OA
BRANCH  18  19
ATOM     19  C   UNL     1       4.139   0.462  -2.363  0.00  0.00    +0.258 C 
BRANCH  19  20
ATOM     20  C   UNL     1       3.404   1.342  -1.349  0.00  0.00    +0.200 C 
BRANCH  20  22
ATOM     21  C   UNL     1       3.132   1.710   1.003  0.00  0.00    +0.194 C 
ATOM     22  O   UNL     1       3.767   0.947  -0.025  0.00  0.00    -0.380 OA
ENDBRANCH  20  22
ENDBRANCH  19  20
ENDBRANCH  18  19
ENDBRANCH  12  18
ENDBRANCH   7  14
ENDBRANCH   1   9
BRANCH   5  23
ATOM     23  C   UNL     1       3.332  -7.558  -6.693  0.00  0.00    -0.040 C 
BRANCH  23  24
ATOM     24  C   UNL     1       2.820  -7.557  -8.111  0.00  0.00    -0.039 A 
ATOM     25  C   UNL     1       3.448  -7.055  -9.186  0.00  0.00    +0.085 A 
ATOM     26  N   UNL     1       2.678  -7.235 -10.303  0.00  0.00    -0.360 N 
ATOM     27  H   UNL     1       2.922  -6.955 -11.199  0.00  0.00    +0.165 HD
ATOM     28  C   UNL     1       1.506  -7.873  -9.965  0.00  0.00    +0.047 A 
ATOM     29  C   UNL     1       1.546  -8.108  -8.578  0.00  0.00    +0.001 A 
ATOM     30  C   UNL     1       0.480  -8.754  -7.950  0.00  0.00    +0.010 A 
ATOM     31  C   UNL     1      -0.598  -9.158  -8.687  0.00  0.00    +0.001 A 
ATOM     32  C   UNL     1      -0.640  -8.932 -10.056  0.00  0.00    +0.002 A 
ATOM     33  C   UNL     1       0.397  -8.289 -10.694  0.00  0.00    +0.026 A 
ENDBRANCH  23  24
ENDBRANCH   5  23
TORSDOF 8
