REMARK  Name = ZINC14991245
REMARK  14 active torsions:
REMARK  status: ('A' for Active; 'I' for Inactive)
REMARK    1  A    between atoms: C_1  and  C_2
REMARK    2  A    between atoms: C_5  and  C_8
REMARK    3  A    between atoms: C_8  and  N_9
REMARK    4  A    between atoms: C_12  and  O_29
REMARK    5  A    between atoms: C_13  and  O_27
REMARK    6  A    between atoms: C_17  and  C_20
REMARK    7  A    between atoms: C_20  and  N_57
REMARK    8  A    between atoms: C_21  and  C_22
REMARK    9  A    between atoms: C_21  and  N_57
REMARK   10  A    between atoms: C_22  and  C_24
REMARK   11  A    between atoms: C_22  and  O_26
REMARK   12  A    between atoms: C_24  and  O_25
REMARK   13  A    between atoms: O_27  and  C_28
REMARK   14  A    between atoms: O_29  and  C_30
REMARK                            x       y       z     vdW  Elec       q    Type
REMARK                         _______ _______ _______ _____ _____    ______ ____
ROOT
ATOM      1  N   UNL     1       1.727  -4.054  -0.416  0.00  0.00    -0.303 N 
ATOM      2  C   UNL     1       0.770  -4.812  -1.059  0.00  0.00    +0.056 A 
ATOM      3  C   UNL     1       0.808  -6.200  -1.007  0.00  0.00    +0.076 A 
ATOM      4  C   UNL     1      -0.160  -6.942  -1.657  0.00  0.00    +0.163 A 
ATOM      5  C   UNL     1      -1.183  -6.307  -2.370  0.00  0.00    +0.162 A 
ATOM      6  C   UNL     1      -1.235  -4.932  -2.432  0.00  0.00    +0.059 A 
ATOM      7  C   UNL     1      -0.259  -4.171  -1.776  0.00  0.00    +0.003 A 
ATOM      8  C   UNL     1      -0.289  -2.710  -1.817  0.00  0.00    +0.017 A 
ATOM      9  C   UNL     1       0.684  -2.022  -1.168  0.00  0.00    +0.001 A 
ATOM     10  C   UNL     1       1.692  -2.711  -0.464  0.00  0.00    +0.253 A 
ATOM     11  O   UNL     1       2.554  -2.073   0.116  0.00  0.00    -0.267 OA
ENDROOT
BRANCH   5  12
ATOM     12  O   UNL     1      -2.129  -7.050  -3.004  0.00  0.00    -0.491 OA
ATOM     13  C   UNL     1      -3.144  -6.339  -3.714  0.00  0.00    +0.277 C 
ENDBRANCH   5  12
BRANCH   4  14
ATOM     14  O   UNL     1      -0.119  -8.299  -1.603  0.00  0.00    -0.491 OA
ATOM     15  C   UNL     1       0.950  -8.886  -0.858  0.00  0.00    +0.277 C 
ENDBRANCH   4  14
BRANCH   1  16
ATOM     16  C   UNL     1       2.797  -4.722   0.329  0.00  0.00    +0.160 C 
BRANCH  16  21
ATOM     17  C   UNL     1       1.121  -5.520   5.802  0.00  0.00    +0.044 C 
ATOM     18  C   UNL     1       1.558  -5.312   4.375  0.00  0.00    -0.050 A 
ATOM     19  C   UNL     1       1.299  -6.282   3.424  0.00  0.00    +0.004 A 
ATOM     20  C   UNL     1       1.700  -6.091   2.115  0.00  0.00    +0.005 A 
ATOM     21  C   UNL     1       2.360  -4.930   1.756  0.00  0.00    -0.028 A 
ATOM     22  C   UNL     1       2.623  -3.963   2.708  0.00  0.00    +0.005 A 
ATOM     23  C   UNL     1       2.219  -4.152   4.016  0.00  0.00    +0.004 A 
ENDBRANCH  16  21
ENDBRANCH   1  16
BRANCH   9  24
ATOM     24  C   UNL     1       0.683  -0.515  -1.195  0.00  0.00    -0.041 C 
BRANCH  24  25
ATOM     25  N   UNL     1      -0.002  -0.010   0.010  0.00  0.00    +0.384 N 
ATOM     26  H   UNL     1       0.492  -0.344   0.845  0.00  0.00    -0.085 HD
ATOM     27  H   UNL     1      -0.968  -0.359   0.021  0.00  0.00    -0.085 HD
BRANCH  25  28
ATOM     28  C   UNL     1      -0.018   1.465   0.010  0.00  0.00    -0.048 C 
BRANCH  28  29
ATOM     29  C   UNL     1      -0.734   1.958   1.269  0.00  0.00    +0.123 C 
BRANCH  29  30
ATOM     30  O   UNL     1       0.020   1.584   2.424  0.00  0.00    -0.391 OA
ATOM     31  H   UNL     1       0.916   1.948   2.443  0.00  0.00    +0.210 HD
ENDBRANCH  29  30
BRANCH  29  32
ATOM     32  C   UNL     1      -0.865   3.482   1.217  0.00  0.00    +0.185 C 
BRANCH  32  33
ATOM     33  O   UNL     1      -1.635   3.932   2.334  0.00  0.00    -0.393 OA
ATOM     34  H   UNL     1      -1.759   4.890   2.365  0.00  0.00    +0.210 HD
ENDBRANCH  32  33
ENDBRANCH  29  32
ENDBRANCH  28  29
ENDBRANCH  25  28
ENDBRANCH  24  25
ENDBRANCH   9  24
TORSDOF 11
