REMARK  Name = ZINC48629073
REMARK  4 active torsions:
REMARK  status: ('A' for Active; 'I' for Inactive)
REMARK    1  A    between atoms: C_1  and  C_2
REMARK    2  A    between atoms: C_4  and  C_8
REMARK    3  A    between atoms: C_5  and  C_7
REMARK    4  A    between atoms: C_11  and  C_12
REMARK                            x       y       z     vdW  Elec       q    Type
REMARK                         _______ _______ _______ _____ _____    ______ ____
ROOT
ATOM      1  C   UNL     1      -1.368  -3.419  -0.010  0.00  0.00    +0.235 C 
ATOM      2  N   UNL     1      -0.855  -4.619  -0.013  0.00  0.00    -0.205 NA
ATOM      3  C   UNL     1      -1.868  -5.536  -0.014  0.00  0.00    +0.152 C 
ATOM      4  C   UNL     1      -1.750  -6.912  -0.017  0.00  0.00    +0.043 C 
ATOM      5  C   UNL     1      -3.110  -4.749  -0.011  0.00  0.00    +0.364 C 
ATOM      6  O   UNL     1      -4.252  -5.171  -0.011  0.00  0.00    -0.243 OA
ATOM      7  O   UNL     1      -2.714  -3.458  -0.003  0.00  0.00    -0.402 OA
ENDROOT
BRANCH   1  11
ATOM      8  C   UNL     1      -0.018   1.503   0.010  0.00  0.00    +0.086 C 
ATOM      9  C   UNL     1       0.002  -0.004   0.002  0.00  0.00    +0.103 A 
ATOM     10  C   UNL     1      -1.081  -0.797   0.003  0.00  0.00    +0.058 A 
ATOM     11  C   UNL     1      -0.573  -2.176  -0.007  0.00  0.00    +0.078 A 
ATOM     12  C   UNL     1       0.786  -2.068  -0.013  0.00  0.00    +0.114 A 
ATOM     13  O   UNL     1       1.106  -0.767  -0.013  0.00  0.00    -0.464 OA
ATOM     14  C   UNL     1       1.762  -3.216  -0.023  0.00  0.00    +0.087 C 
ENDBRANCH   1  11
BRANCH   4  15
ATOM     15  C   UNL     1      -0.426  -7.532  -0.020  0.00  0.00    -0.016 A 
ATOM     16  C   UNL     1      -0.261  -8.968  -0.029  0.00  0.00    +0.015 A 
ATOM     17  C   UNL     1       1.011  -9.412  -0.031  0.00  0.00    +0.046 A 
ATOM     18  S   UNL     1       1.966  -7.910  -0.021  0.00  0.00    -0.104 S 
ATOM     19  C   UNL     1       0.730  -6.774  -0.020  0.00  0.00    +0.053 A 
ENDBRANCH   4  15
TORSDOF 2
