REMARK  Name = ZINC58848856
REMARK  9 active torsions:
REMARK  status: ('A' for Active; 'I' for Inactive)
REMARK    1  A    between atoms: C_1  and  O_2
REMARK    2  A    between atoms: O_2  and  C_3
REMARK    3  A    between atoms: C_7  and  N_9
REMARK    4  A    between atoms: N_9  and  S_10
REMARK    5  A    between atoms: S_10  and  C_13
REMARK    6  A    between atoms: C_26  and  C_29
REMARK    7  A    between atoms: C_32  and  O_38
REMARK    8  A    between atoms: C_33  and  N_35
REMARK    9  A    between atoms: O_38  and  C_39
REMARK                            x       y       z     vdW  Elec       q    Type
REMARK                         _______ _______ _______ _____ _____    ______ ____
ROOT
ATOM      1  C   UNL     1      -3.088  -4.509  -2.644  0.00  0.00    +0.109 A 
ATOM      2  C   UNL     1      -3.586  -3.403  -3.308  0.00  0.00    +0.030 A 
ATOM      3  C   UNL     1      -3.190  -3.147  -4.605  0.00  0.00    +0.025 A 
ATOM      4  C   UNL     1      -2.290  -3.996  -5.241  0.00  0.00    +0.031 A 
ATOM      5  C   UNL     1      -1.780  -5.098  -4.572  0.00  0.00    -0.018 A 
ATOM      6  C   UNL     1      -2.188  -5.347  -3.270  0.00  0.00    +0.034 A 
ATOM      7  C   UNL     1      -0.784  -6.008  -5.207  0.00  0.00    +0.049 C 
ATOM      8  C   UNL     1      -1.405  -7.307  -5.653  0.00  0.00    -0.023 C 
ATOM      9  C   UNL     1      -0.854  -7.713  -6.769  0.00  0.00    -0.030 C 
ATOM     10  C   UNL     1       0.209  -6.742  -7.231  0.00  0.00    +0.033 C 
ATOM     11  C   UNL     1      -0.115  -5.442  -6.458  0.00  0.00    +0.029 C 
ATOM     12  C   UNL     1      -1.038  -4.601  -7.315  0.00  0.00    +0.105 C 
ATOM     13  N   UNL     1      -1.915  -3.736  -6.553  0.00  0.00    -0.336 N 
ATOM     14  H   UNL     1      -2.276  -2.947  -6.988  0.00  0.00    +0.147 HD
ENDROOT
BRANCH  12  15
ATOM     15  C   UNL     1      -1.859  -5.521  -8.181  0.00  0.00    -0.025 A 
ATOM     16  C   UNL     1      -2.971  -6.153  -7.654  0.00  0.00    +0.009 A 
ATOM     17  C   UNL     1      -3.726  -6.997  -8.446  0.00  0.00    +0.048 A 
ATOM     18  C   UNL     1      -3.368  -7.209  -9.770  0.00  0.00    +0.150 A 
ATOM     19  C   UNL     1      -2.253  -6.573 -10.295  0.00  0.00    +0.168 A 
ATOM     20  C   UNL     1      -1.504  -5.726  -9.501  0.00  0.00    +0.042 A 
BRANCH  19  21
ATOM     21  N   UNL     1      -1.869  -6.797 -11.707  0.00  0.00    +0.060 N 
ATOM     22  O   UNL     1      -0.897  -6.242 -12.164  0.00  0.00    -0.126 OA
ATOM     23  O   UNL     1      -2.527  -7.535 -12.402  0.00  0.00    -0.126 OA
ENDBRANCH  19  21
BRANCH  18  24
ATOM     24  O   UNL     1      -4.109  -8.039 -10.550  0.00  0.00    -0.493 OA
ATOM     25  C   UNL     1      -5.243  -8.661  -9.942  0.00  0.00    +0.277 C 
ENDBRANCH  18  24
ENDBRANCH  12  15
BRANCH   1  26
ATOM     26  S   UNL     1      -3.599  -4.845  -0.991  0.00  0.00    +0.072 S 
ATOM     27  O   UNL     1      -3.404  -6.237  -0.781  0.00  0.00    -0.150 OA
ATOM     28  O   UNL     1      -4.863  -4.218  -0.822  0.00  0.00    -0.150 OA
BRANCH  26  29
ATOM     29  N   UNL     1      -2.543  -4.061   0.016  0.00  0.00    -0.216 N 
ATOM     30  H   UNL     1      -1.966  -4.572   0.605  0.00  0.00    +0.174 HD
BRANCH  29  35
ATOM     31  C   UNL     1      -1.200  -0.637   0.010  0.00  0.00    +0.122 A 
ATOM     32  C   UNL     1      -2.375   0.102   0.020  0.00  0.00    +0.046 A 
ATOM     33  C   UNL     1      -3.598  -0.540   0.028  0.00  0.00    +0.005 A 
ATOM     34  C   UNL     1      -3.657  -1.920   0.027  0.00  0.00    +0.025 A 
ATOM     35  C   UNL     1      -2.484  -2.666   0.017  0.00  0.00    +0.052 A 
ATOM     36  C   UNL     1      -1.254  -2.022   0.003  0.00  0.00    +0.070 A 
BRANCH  31  38
ATOM     37  C   UNL     1      -0.017   1.425   0.010  0.00  0.00    +0.277 C 
ATOM     38  O   UNL     1       0.002  -0.004   0.002  0.00  0.00    -0.495 OA
ENDBRANCH  31  38
ENDBRANCH  29  35
ENDBRANCH  26  29
ENDBRANCH   1  26
TORSDOF 7
