REMARK  Name = ZINC16902094
REMARK  7 active torsions:
REMARK  status: ('A' for Active; 'I' for Inactive)
REMARK    1  A    between atoms: C_1  and  C_2
REMARK    2  A    between atoms: C_2  and  C_3
REMARK    3  A    between atoms: C_8  and  N_9
REMARK    4  A    between atoms: N_9  and  C_10
REMARK    5  A    between atoms: N_15  and  C_18
REMARK    6  A    between atoms: C_20  and  C_27
REMARK    7  A    between atoms: C_22  and  C_24
REMARK                            x       y       z     vdW  Elec       q    Type
REMARK                         _______ _______ _______ _____ _____    ______ ____
ROOT
ATOM      1  C   UNL     1      -2.093  -0.458  -3.587  0.00  0.00    +0.166 C 
ATOM      2  C   UNL     1      -1.814   0.466  -4.790  0.00  0.00    +0.128 C 
ATOM      3  C   UNL     1      -1.423  -0.494  -5.891  0.00  0.00    +0.228 C 
ATOM      4  O   UNL     1      -1.119  -0.179  -7.022  0.00  0.00    -0.275 OA
ATOM      5  N   UNL     1      -1.464  -1.746  -5.420  0.00  0.00    -0.209 N 
ATOM      6  C   UNL     1      -1.832  -1.845  -4.132  0.00  0.00    +0.247 C 
ATOM      7  O   UNL     1      -1.937  -2.877  -3.506  0.00  0.00    -0.273 OA
ENDROOT
BRANCH   5   8
ATOM      8  C   UNL     1      -1.152  -2.865  -6.207  0.00  0.00    +0.045 A 
ATOM      9  C   UNL     1      -2.145  -3.771  -6.544  0.00  0.00    +0.039 A 
ATOM     10  C   UNL     1      -1.838  -4.887  -7.328  0.00  0.00    +0.066 A 
ATOM     11  C   UNL     1      -0.531  -5.088  -7.770  0.00  0.00    +0.030 A 
ATOM     12  C   UNL     1       0.465  -4.173  -7.428  0.00  0.00    +0.066 A 
ATOM     13  C   UNL     1       0.148  -3.057  -6.649  0.00  0.00    +0.039 A 
BRANCH  12  14
ATOM     14  C   UNL     1       1.850  -4.380  -7.894  0.00  0.00    +0.387 C 
ATOM     15  O   UNL     1       2.125  -5.354  -8.579  0.00  0.00    -0.241 OA
ATOM     16  O   UNL     1       2.722  -3.578  -7.593  0.00  0.00    -0.241 OA
ENDBRANCH  12  14
BRANCH  10  17
ATOM     17  C   UNL     1      -2.895  -5.852  -7.686  0.00  0.00    +0.387 C 
ATOM     18  O   UNL     1      -4.041  -5.676  -7.298  0.00  0.00    -0.241 OA
ATOM     19  O   UNL     1      -2.625  -6.828  -8.372  0.00  0.00    -0.241 OA
ENDBRANCH  10  17
ENDBRANCH   5   8
BRANCH   1  20
ATOM     20  N   UNL     1      -1.177  -0.157  -2.483  0.00  0.00    -0.332 N 
ATOM     21  H   UNL     1      -0.330   0.280  -2.661  0.00  0.00    +0.147 HD
BRANCH  20  27
ATOM     22  C   UNL     1      -0.658  -0.217  -0.127  0.00  0.00    -0.027 A 
ATOM     23  C   UNL     1      -1.007  -0.553   1.167  0.00  0.00    +0.005 A 
ATOM     24  C   UNL     1      -2.214  -1.177   1.419  0.00  0.00    +0.000 A 
ATOM     25  C   UNL     1      -3.077  -1.466   0.377  0.00  0.00    +0.002 A 
ATOM     26  C   UNL     1      -2.735  -1.133  -0.918  0.00  0.00    +0.023 A 
ATOM     27  C   UNL     1      -1.524  -0.501  -1.174  0.00  0.00    +0.031 A 
BRANCH  22  29
ATOM     28  C   UNL     1       0.452   1.978  -0.446  0.00  0.00    +0.009 C 
ATOM     29  C   UNL     1       0.659   0.463  -0.401  0.00  0.00    +0.033 C 
ENDBRANCH  22  29
ENDBRANCH  20  27
ENDBRANCH   1  20
TORSDOF 6
