REMARK  Name = ZINC40848311
REMARK  7 active torsions:
REMARK  status: ('A' for Active; 'I' for Inactive)
REMARK    1  A    between atoms: C_1  and  O_2
REMARK    2  A    between atoms: O_2  and  C_3
REMARK    3  A    between atoms: C_6  and  N_9
REMARK    4  A    between atoms: C_12  and  C_14
REMARK    5  A    between atoms: N_19  and  C_22
REMARK    6  A    between atoms: C_25  and  C_28
REMARK    7  A    between atoms: C_28  and  C_31
REMARK                            x       y       z     vdW  Elec       q    Type
REMARK                         _______ _______ _______ _____ _____    ______ ____
ROOT
ATOM      1  N   UNL     1      -4.885  -2.528  -0.032  0.00  0.00    -0.227 N 
ATOM      2  C   UNL     1      -5.180  -3.663  -0.705  0.00  0.00    +0.133 A 
ATOM      3  C   UNL     1      -6.473  -4.007  -0.363  0.00  0.00    +0.017 A 
ATOM      4  C   UNL     1      -6.907  -3.021   0.518  0.00  0.00    +0.151 A 
ATOM      5  N   UNL     1      -5.903  -2.168   0.676  0.00  0.00    -0.161 NA
ATOM      6  C   UNL     1      -7.140  -5.238  -0.908  0.00  0.00    +0.059 C 
ATOM      7  C   UNL     1      -6.539  -5.556  -2.280  0.00  0.00    +0.119 C 
ATOM      8  N   UNL     1      -5.083  -5.474  -2.285  0.00  0.00    -0.266 N 
ATOM      9  C   UNL     1      -4.406  -4.501  -1.632  0.00  0.00    +0.270 C 
ATOM     10  O   UNL     1      -3.215  -4.328  -1.805  0.00  0.00    -0.268 OA
ENDROOT
BRANCH   1  14
ATOM     11  C   UNL     1      -1.239  -0.513  -0.202  0.00  0.00    +0.120 A 
ATOM     12  C   UNL     1      -1.873  -0.699   1.019  0.00  0.00    +0.048 A 
ATOM     13  C   UNL     1      -3.080  -1.366   1.076  0.00  0.00    +0.031 A 
ATOM     14  C   UNL     1      -3.660  -1.851  -0.089  0.00  0.00    +0.066 A 
ATOM     15  C   UNL     1      -3.026  -1.665  -1.310  0.00  0.00    +0.031 A 
ATOM     16  C   UNL     1      -1.821  -0.993  -1.367  0.00  0.00    +0.048 A 
BRANCH  11  18
ATOM     17  C   UNL     1       0.491   0.611   0.980  0.00  0.00    +0.277 C 
ATOM     18  O   UNL     1      -0.051   0.144  -0.257  0.00  0.00    -0.495 OA
ENDBRANCH  11  18
ENDBRANCH   1  14
BRANCH   8  19
ATOM     19  C   UNL     1      -4.359  -6.439  -2.992  0.00  0.00    +0.037 A 
ATOM     20  C   UNL     1      -3.568  -7.354  -2.309  0.00  0.00    +0.024 A 
ATOM     21  C   UNL     1      -2.853  -8.306  -3.010  0.00  0.00    +0.006 A 
ATOM     22  C   UNL     1      -2.925  -8.348  -4.391  0.00  0.00    -0.032 A 
ATOM     23  C   UNL     1      -3.712  -7.438  -5.074  0.00  0.00    +0.006 A 
ATOM     24  C   UNL     1      -4.433  -6.488  -4.378  0.00  0.00    +0.024 A 
BRANCH  22  25
ATOM     25  C   UNL     1      -2.145  -9.388  -5.153  0.00  0.00    +0.071 C 
ATOM     26  C   UNL     1      -0.975  -8.904  -6.011  0.00  0.00    +0.022 C 
ATOM     27  C   UNL     1      -2.265  -9.384  -6.678  0.00  0.00    +0.022 C 
BRANCH  25  28
ATOM     28  C   UNL     1      -2.002 -10.723  -4.469  0.00  0.00    +0.196 C 
ATOM     29  N   UNL     1      -1.973 -11.838  -5.110  0.00  0.00    -0.251 NA
ATOM     30  C   UNL     1      -1.814 -12.936  -4.137  0.00  0.00    +0.186 C 
ATOM     31  C   UNL     1      -1.371 -12.172  -2.864  0.00  0.00    +0.253 C 
ATOM     32  O   UNL     1      -1.886 -10.854  -3.134  0.00  0.00    -0.477 OA
ENDBRANCH  25  28
ENDBRANCH  22  25
ENDBRANCH   8  19
BRANCH   4  33
ATOM     33  C   UNL     1      -8.235  -2.941   1.159  0.00  0.00    +0.262 C 
ATOM     34  O   UNL     1      -9.072  -3.793   0.933  0.00  0.00    -0.269 OA
ATOM     35  N   UNL     1      -8.519  -1.923   1.996  0.00  0.00    -0.324 N 
ATOM     36  H   UNL     1      -7.851  -1.243   2.177  0.00  0.00    +0.145 HD
ATOM     37  H   UNL     1      -9.391  -1.870   2.417  0.00  0.00    +0.145 HD
ENDBRANCH   4  33
TORSDOF 6
