REMARK  Name = ZINC53544063
REMARK  15 active torsions:
REMARK  status: ('A' for Active; 'I' for Inactive)
REMARK    1  A    between atoms: C_1  and  C_2
REMARK    2  A    between atoms: C_3  and  C_28
REMARK    3  A    between atoms: N_4  and  C_24
REMARK    4  A    between atoms: C_5  and  S_7
REMARK    5  A    between atoms: S_7  and  C_8
REMARK    6  A    between atoms: C_8  and  C_9
REMARK    7  A    between atoms: N_11  and  C_12
REMARK    8  A    between atoms: N_11  and  C_13
REMARK    9  A    between atoms: C_13  and  C_15
REMARK   10  A    between atoms: C_13  and  C_16
REMARK   11  A    between atoms: C_21  and  O_22
REMARK   12  A    between atoms: O_22  and  C_23
REMARK   13  A    between atoms: C_24  and  C_25
REMARK   14  A    between atoms: C_25  and  C_26
REMARK   15  A    between atoms: C_25  and  C_27
REMARK                            x       y       z     vdW  Elec       q    Type
REMARK                         _______ _______ _______ _____ _____    ______ ____
ROOT
ATOM      1  C   UNL     1       0.328  -2.806   3.377  0.00  0.00    +0.173 C 
ENDROOT
BRANCH   1   2
ATOM      2  C   UNL     1       0.327  -3.898   4.415  0.00  0.00    +0.226 C 
ATOM      3  O   UNL     1       0.578  -5.040   4.094  0.00  0.00    -0.275 OA
ATOM      4  N   UNL     1       0.046  -3.606   5.701  0.00  0.00    -0.297 N 
ATOM      5  C   UNL     1      -0.259  -2.227   6.089  0.00  0.00    +0.132 C 
BRANCH   4   6
ATOM      6  C   UNL     1       0.044  -4.668   6.710  0.00  0.00    +0.106 C 
ATOM      7  C   UNL     1       1.175  -4.422   7.711  0.00  0.00    +0.033 C 
BRANCH   6   8
ATOM      8  C   UNL     1      -1.277  -4.671   7.435  0.00  0.00    +0.014 A 
ATOM      9  C   UNL     1      -1.363  -4.162   8.716  0.00  0.00    +0.009 A 
ATOM     10  C   UNL     1      -2.575  -4.165   9.382  0.00  0.00    +0.001 A 
ATOM     11  C   UNL     1      -3.703  -4.676   8.768  0.00  0.00    +0.004 A 
ATOM     12  C   UNL     1      -3.622  -5.185   7.486  0.00  0.00    +0.046 A 
ATOM     13  C   UNL     1      -2.409  -5.179   6.814  0.00  0.00    +0.125 A 
BRANCH  13  14
ATOM     14  O   UNL     1      -2.328  -5.674   5.551  0.00  0.00    -0.495 OA
ATOM     15  C   UNL     1      -3.533  -6.181   4.974  0.00  0.00    +0.277 C 
ENDBRANCH  13  14
ENDBRANCH   6   8
ENDBRANCH   4   6
ENDBRANCH   1   2
BRANCH   1  16
ATOM     16  S   UNL     1       0.740  -3.511   1.758  0.00  0.00    -0.080 S 
BRANCH  16  21
ATOM     17  C   UNL     1       0.246   1.382  -0.113  0.00  0.00    +0.065 C 
ATOM     18  C   UNL     1       0.492  -0.105  -0.081  0.00  0.00    +0.034 A 
ATOM     19  C   UNL     1       0.812  -0.872  -1.137  0.00  0.00    +0.037 A 
ATOM     20  N   UNL     1       0.947  -2.160  -0.670  0.00  0.00    -0.324 N 
ATOM     21  C   UNL     1       0.701  -2.127   0.668  0.00  0.00    +0.148 A 
ATOM     22  N   UNL     1       0.434  -0.888   1.009  0.00  0.00    -0.338 N 
ATOM     23  C   UNL     1       0.990  -0.410  -2.560  0.00  0.00    +0.065 C 
ATOM     24  H   UNL     1       0.226  -0.586   1.907  0.00  0.00    +0.168 HD
BRANCH  20  25
ATOM     25  C   UNL     1       1.291  -3.343  -1.464  0.00  0.00    +0.127 C 
BRANCH  25  26
ATOM     26  C   UNL     1       2.811  -3.517  -1.489  0.00  0.00    +0.003 C 
ATOM     27  C   UNL     1       3.163  -4.818  -2.211  0.00  0.00    +0.009 C 
ATOM     28  C   UNL     1       3.447  -2.336  -2.225  0.00  0.00    +0.009 C 
ENDBRANCH  25  26
ENDBRANCH  20  25
ENDBRANCH  16  21
ENDBRANCH   1  16
TORSDOF 8
