REMARK  Name = ZINC35341350
REMARK  3 active torsions:
REMARK  status: ('A' for Active; 'I' for Inactive)
REMARK    1  A    between atoms: C_2  and  N_9
REMARK    2  A    between atoms: N_9  and  C_10
REMARK    3  A    between atoms: C_15  and  N_16
REMARK                            x       y       z     vdW  Elec       q    Type
REMARK                         _______ _______ _______ _____ _____    ______ ____
ROOT
ATOM      1  C   UNL     1       2.365   4.198   0.107  0.00  0.00    +0.053 A 
ATOM      2  C   UNL     1       3.576   3.523   0.087  0.00  0.00    +0.030 A 
ATOM      3  C   UNL     1       4.762   4.225   0.184  0.00  0.00    -0.024 A 
ATOM      4  C   UNL     1       4.745   5.609   0.302  0.00  0.00    +0.038 A 
ATOM      5  C   UNL     1       3.535   6.290   0.322  0.00  0.00    +0.048 A 
ATOM      6  C   UNL     1       2.344   5.588   0.220  0.00  0.00    +0.048 A 
ATOM      7  N   UNL     1       5.950   6.316   0.400  0.00  0.00    -0.285 N 
ATOM      8  C   UNL     1       7.107   5.748   0.016  0.00  0.00    +0.218 C 
ATOM      9  O   UNL     1       8.144   6.369   0.120  0.00  0.00    -0.275 OA
ATOM     10  C   UNL     1       7.130   4.350  -0.542  0.00  0.00    +0.101 C 
ATOM     11  C   UNL     1       6.078   3.492   0.162  0.00  0.00    +0.046 C 
ATOM     12  H   UNL     1       5.950   7.222   0.747  0.00  0.00    +0.155 HD
ENDROOT
BRANCH   6  13
ATOM     13  N   UNL     1       1.124   6.272   0.235  0.00  0.00    -0.356 N 
ATOM     14  H   UNL     1       0.291   5.780   0.167  0.00  0.00    +0.142 HD
ATOM     15  H   UNL     1       1.110   7.239   0.313  0.00  0.00    +0.142 HD
ENDBRANCH   6  13
BRANCH   1  16
ATOM     16  N   UNL     1       1.162   3.484   0.009  0.00  0.00    -0.313 N 
ATOM     17  H   UNL     1       0.315   3.941   0.134  0.00  0.00    +0.152 HD
BRANCH  16  19
ATOM     18  C   UNL     1       2.053   1.613  -1.228  0.00  0.00    +0.043 A 
ATOM     19  C   UNL     1       1.183   2.115  -0.269  0.00  0.00    +0.034 A 
ATOM     20  C   UNL     1       0.334   1.254   0.414  0.00  0.00    +0.043 A 
ATOM     21  C   UNL     1       0.357  -0.100   0.137  0.00  0.00    +0.044 A 
ATOM     22  C   UNL     1       1.225  -0.598  -0.819  0.00  0.00    +0.040 A 
ATOM     23  C   UNL     1       2.072   0.259  -1.501  0.00  0.00    +0.044 A 
ATOM     24 CL   UNL     1       3.159  -0.370  -2.700  0.00  0.00    -0.083 Cl
ATOM     25 CL   UNL     1      -0.704  -1.178   0.990  0.00  0.00    -0.083 Cl
ENDBRANCH  16  19
ENDBRANCH   1  16
TORSDOF 3
