REMARK  Name = ZINC02407633
REMARK  3 active torsions:
REMARK  status: ('A' for Active; 'I' for Inactive)
REMARK    1  A    between atoms: C_6  and  C_7
REMARK    2  A    between atoms: C_19  and  C_21
REMARK    3  A    between atoms: C_22  and  C_23
REMARK                            x       y       z     vdW  Elec       q    Type
REMARK                         _______ _______ _______ _____ _____    ______ ____
ROOT
ATOM      1  C   UNL     1      -1.293  -0.775   0.011  0.00  0.00    +0.140 C 
ATOM      2  C   UNL     1      -1.615  -1.262  -1.407  0.00  0.00    +0.127 C 
ATOM      3  C   UNL     1      -2.630  -2.372  -1.371  0.00  0.00    +0.241 C 
ATOM      4  O   UNL     1      -3.430  -2.468  -2.282  0.00  0.00    -0.274 OA
ATOM      5  N   UNL     1      -2.679  -3.249  -0.376  0.00  0.00    -0.148 NA
ATOM      6  C   UNL     1      -1.846  -3.101   0.655  0.00  0.00    +0.222 C 
ATOM      7  N   UNL     1      -1.164  -1.950   0.877  0.00  0.00    -0.184 N 
ATOM      8  N   UNL     1      -0.387  -2.131   2.016  0.00  0.00    -0.143 NA
ATOM      9  C   UNL     1      -0.613  -3.333   2.473  0.00  0.00    +0.229 C 
ATOM     10  N   UNL     1      -1.527  -3.956   1.651  0.00  0.00    -0.149 NA
ATOM     11  N   UNL     1      -0.028  -3.893   3.601  0.00  0.00    -0.252 N 
ATOM     12  C   UNL     1      -0.345  -5.149   3.972  0.00  0.00    +0.243 C 
ATOM     13  O   UNL     1      -1.144  -5.794   3.318  0.00  0.00    -0.270 OA
ATOM     14  H   UNL     1       0.609  -3.380   4.122  0.00  0.00    +0.158 HD
ENDROOT
BRANCH   1  20
ATOM     15  C   UNL     1      -0.017   1.378   0.010  0.00  0.00    +0.007 A 
ATOM     16  C   UNL     1       1.171   2.086   0.002  0.00  0.00    +0.020 A 
ATOM     17  C   UNL     1       2.378   1.410  -0.013  0.00  0.00    +0.041 A 
ATOM     18  C   UNL     1       2.396   0.027  -0.021  0.00  0.00    +0.020 A 
ATOM     19  C   UNL     1       1.208  -0.679  -0.013  0.00  0.00    +0.007 A 
ATOM     20  C   UNL     1       0.002  -0.004   0.002  0.00  0.00    -0.025 A 
ATOM     21 CL   UNL     1       3.870   2.298  -0.023  0.00  0.00    -0.084 Cl
ENDBRANCH   1  20
BRANCH  12  22
ATOM     22  C   UNL     1       0.272  -5.738   5.159  0.00  0.00    +0.068 C 
ATOM     23  C   UNL     1      -0.046  -6.997   5.531  0.00  0.00    +0.013 C 
BRANCH  23  24
ATOM     24  C   UNL     1       0.574  -7.590   6.725  0.00  0.00    -0.021 A 
ATOM     25  C   UNL     1       1.489  -6.849   7.482  0.00  0.00    +0.012 A 
ATOM     26  C   UNL     1       2.068  -7.407   8.600  0.00  0.00    +0.050 A 
ATOM     27  C   UNL     1       1.747  -8.703   8.981  0.00  0.00    +0.166 A 
ATOM     28  C   UNL     1       0.836  -9.448   8.231  0.00  0.00    +0.167 A 
ATOM     29  C   UNL     1       0.246  -8.894   7.112  0.00  0.00    +0.057 A 
ATOM     30  O   UNL     1       0.696 -10.676   8.811  0.00  0.00    -0.453 OA
ATOM     31  C   UNL     1       1.833 -10.821   9.681  0.00  0.00    +0.466 C 
ATOM     32  O   UNL     1       2.175  -9.466  10.027  0.00  0.00    -0.453 OA
ENDBRANCH  23  24
ENDBRANCH  12  22
TORSDOF 3
