REMARK  Name = ZINC39481843
REMARK  11 active torsions:
REMARK  status: ('A' for Active; 'I' for Inactive)
REMARK    1  A    between atoms: C_1  and  C_2
REMARK    2  A    between atoms: C_2  and  C_3
REMARK    3  A    between atoms: C_2  and  C_4
REMARK    4  A    between atoms: C_4  and  C_5
REMARK    5  A    between atoms: C_8  and  N_27
REMARK    6  A    between atoms: C_9  and  N_11
REMARK    7  A    between atoms: C_15  and  S_18
REMARK    8  A    between atoms: S_18  and  C_21
REMARK    9  A    between atoms: N_27  and  S_28
REMARK   10  A    between atoms: S_28  and  C_31
REMARK   11  A    between atoms: C_36  and  O_37
REMARK                            x       y       z     vdW  Elec       q    Type
REMARK                         _______ _______ _______ _____ _____    ______ ____
ROOT
ATOM      1  C   UNL     1      -0.195  -2.372   0.055  0.00  0.00    -0.045 A 
ATOM      2  C   UNL     1      -0.484  -2.821  -1.220  0.00  0.00    +0.005 A 
ATOM      3  C   UNL     1      -0.794  -4.152  -1.435  0.00  0.00    +0.026 A 
ATOM      4  C   UNL     1      -0.815  -5.040  -0.370  0.00  0.00    +0.069 A 
ATOM      5  C   UNL     1      -0.522  -4.586   0.916  0.00  0.00    +0.053 A 
ATOM      6  C   UNL     1      -0.208  -3.252   1.122  0.00  0.00    +0.028 A 
ENDROOT
BRANCH   5   7
ATOM      7  N   UNL     1      -0.542  -5.477   1.996  0.00  0.00    -0.324 N 
ATOM      8  C   UNL     1       0.670  -6.208   2.394  0.00  0.00    +0.120 C 
ATOM      9  C   UNL     1       0.886  -6.011   3.899  0.00  0.00    +0.101 C 
ATOM     10  N   UNL     1      -0.335  -6.395   4.619  0.00  0.00    -0.292 NA
ATOM     11  C   UNL     1      -1.465  -5.530   4.252  0.00  0.00    +0.220 C 
ATOM     12  C   UNL     1      -1.775  -5.703   2.766  0.00  0.00    +0.147 C 
ATOM     13  H   UNL     1      -0.558  -7.366   4.462  0.00  0.00    +0.124 HD
BRANCH  11  14
ATOM     14  S   UNL     1      -2.920  -5.986   5.234  0.00  0.00    +0.014 S 
ATOM     15  O   UNL     1      -3.967  -5.049   5.022  0.00  0.00    -0.168 OA
ATOM     16  O   UNL     1      -3.165  -7.382   5.128  0.00  0.00    -0.168 OA
BRANCH  14  17
ATOM     17  C   UNL     1      -2.431  -5.742   6.909  0.00  0.00    +0.090 A 
ATOM     18  C   UNL     1      -1.845  -6.776   7.616  0.00  0.00    +0.027 A 
ATOM     19  C   UNL     1      -1.461  -6.585   8.930  0.00  0.00    +0.002 A 
ATOM     20  C   UNL     1      -1.663  -5.359   9.537  0.00  0.00    +0.000 A 
ATOM     21  C   UNL     1      -2.248  -4.325   8.831  0.00  0.00    +0.002 A 
ATOM     22  C   UNL     1      -2.628  -4.515   7.515  0.00  0.00    +0.027 A 
ENDBRANCH  14  17
ENDBRANCH  11  14
ENDBRANCH   5   7
BRANCH   4  23
ATOM     23  N   UNL     1      -1.128  -6.387  -0.585  0.00  0.00    -0.214 N 
ATOM     24  H   UNL     1      -1.629  -6.881   0.083  0.00  0.00    +0.174 HD
BRANCH  23  25
ATOM     25  S   UNL     1      -0.645  -7.137  -1.980  0.00  0.00    +0.076 S 
ATOM     26  O   UNL     1       0.717  -6.785  -2.179  0.00  0.00    -0.150 OA
ATOM     27  O   UNL     1      -1.077  -8.488  -1.885  0.00  0.00    -0.150 OA
BRANCH  25  28
ATOM     28  C   UNL     1      -1.552  -6.410  -3.304  0.00  0.00    +0.150 A 
ATOM     29  C   UNL     1      -0.888  -5.716  -4.297  0.00  0.00    +0.032 A 
ATOM     30  C   UNL     1      -1.600  -5.145  -5.336  0.00  0.00    +0.002 A 
ATOM     31  C   UNL     1      -2.976  -5.267  -5.384  0.00  0.00    +0.004 A 
ATOM     32  C   UNL     1      -3.644  -5.961  -4.394  0.00  0.00    +0.047 A 
ATOM     33  C   UNL     1      -2.932  -6.539  -3.353  0.00  0.00    +0.143 A 
BRANCH  33  34
ATOM     34  O   UNL     1      -3.587  -7.227  -2.381  0.00  0.00    -0.505 OA
ATOM     35  H   UNL     1      -3.877  -6.679  -1.639  0.00  0.00    +0.292 HD
ENDBRANCH  33  34
ENDBRANCH  25  28
ENDBRANCH  23  25
ENDBRANCH   4  23
BRANCH   1  36
ATOM     36  C   UNL     1       0.142  -0.921   0.282  0.00  0.00    +0.038 C 
BRANCH  36  38
ATOM     37  C   UNL     1       1.980   0.772   0.244  0.00  0.00    +0.007 C 
ATOM     38  C   UNL     1       1.652  -0.719   0.138  0.00  0.00    -0.013 C 
ATOM     39  C   UNL     1       2.377  -1.481   1.249  0.00  0.00    +0.007 C 
ENDBRANCH  36  38
ENDBRANCH   1  36
TORSDOF 9
