REMARK  Name = ZINC45497462
REMARK  12 active torsions:
REMARK  status: ('A' for Active; 'I' for Inactive)
REMARK    1  A    between atoms: C_1  and  C_2
REMARK    2  A    between atoms: C_6  and  O_8
REMARK    3  A    between atoms: O_8  and  C_9
REMARK    4  A    between atoms: C_9  and  C_10
REMARK    5  A    between atoms: N_12  and  C_13
REMARK    6  A    between atoms: C_13  and  C_14
REMARK    7  A    between atoms: N_16  and  C_18
REMARK    8  A    between atoms: C_18  and  C_19
REMARK    9  A    between atoms: C_27  and  C_30
REMARK   10  A    between atoms: C_30  and  C_31
REMARK   11  A    between atoms: C_30  and  C_32
REMARK   12  A    between atoms: C_30  and  C_33
REMARK                            x       y       z     vdW  Elec       q    Type
REMARK                         _______ _______ _______ _____ _____    ______ ____
ROOT
ATOM      1  C   UNL     1       0.135  -8.221   5.089  0.00  0.00    -0.027 C 
ATOM      2  C   UNL     1      -1.266  -8.856   5.016  0.00  0.00    -0.075 C 
ATOM      3  N   UNL     1      -0.746  -9.872   5.957  0.00  0.00    +0.383 N 
ATOM      4  C   UNL     1       0.273  -8.921   6.453  0.00  0.00    -0.075 C 
ATOM      5  H   UNL     1      -0.344 -10.671   5.490  0.00  0.00    -0.081 HD
ENDROOT
BRANCH   1   6
ATOM      6  C   UNL     1       0.115  -6.694   5.179  0.00  0.00    +0.104 C 
BRANCH   6   9
ATOM      7  C   UNL     1       0.083  -4.787   3.662  0.00  0.00    +0.251 C 
ATOM      8  O   UNL     1       0.077  -4.055   4.629  0.00  0.00    -0.272 OA
ATOM      9  N   UNL     1       0.101  -6.125   3.830  0.00  0.00    -0.312 N 
ATOM     10  H   UNL     1       0.105  -6.710   3.056  0.00  0.00    +0.149 HD
BRANCH   7  11
ATOM     11  C   UNL     1       0.069  -4.202   2.274  0.00  0.00    +0.324 C 
BRANCH  11  12
ATOM     12  O   UNL     1       0.050  -2.776   2.358  0.00  0.00    -0.483 OA
BRANCH  12  18
ATOM     13  C   UNL     1      -0.018   1.503   0.010  0.00  0.00    +0.044 C 
ATOM     14  C   UNL     1       0.002  -0.004   0.002  0.00  0.00    -0.047 A 
ATOM     15  C   UNL     1       0.006  -0.688  -1.200  0.00  0.00    +0.003 A 
ATOM     16  C   UNL     1       0.024  -2.071  -1.211  0.00  0.00    +0.004 A 
ATOM     17  C   UNL     1       0.039  -2.772  -0.020  0.00  0.00    +0.045 A 
ATOM     18  C   UNL     1       0.035  -2.088   1.186  0.00  0.00    +0.121 A 
ATOM     19  C   UNL     1       0.023  -0.700   1.195  0.00  0.00    +0.049 A 
ENDBRANCH  12  18
ENDBRANCH  11  12
ENDBRANCH   7  11
ENDBRANCH   6   9
ENDBRANCH   1   6
BRANCH   3  20
ATOM     20  C   UNL     1      -1.722 -10.255   6.985  0.00  0.00    -0.041 C 
BRANCH  20  21
ATOM     21  C   UNL     1      -1.159 -11.376   7.821  0.00  0.00    -0.046 A 
ATOM     22  C   UNL     1      -1.297 -12.755   7.566  0.00  0.00    +0.021 A 
ATOM     23  C   UNL     1      -0.648 -13.415   8.546  0.00  0.00    +0.093 A 
ATOM     24  N   UNL     1      -0.113 -12.492   9.400  0.00  0.00    -0.308 N 
ATOM     25  C   UNL     1      -0.427 -11.242   8.945  0.00  0.00    +0.094 A 
ATOM     26  C   UNL     1       0.634 -12.778  10.546  0.00  0.00    +0.137 A 
ATOM     27  C   UNL     1       0.979 -14.093  10.832  0.00  0.00    +0.047 A 
ATOM     28  C   UNL     1       1.720 -14.363  11.969  0.00  0.00    +0.009 A 
ATOM     29  C   UNL     1       2.092 -13.302  12.784  0.00  0.00    -0.024 A 
ATOM     30  C   UNL     1       1.715 -12.020  12.438  0.00  0.00    +0.117 A 
ATOM     31  N   UNL     1       1.013 -11.793  11.344  0.00  0.00    -0.237 NA
BRANCH  29  32
ATOM     32  C   UNL     1       2.899 -13.548  14.033  0.00  0.00    -0.011 C 
ATOM     33  C   UNL     1       4.229 -14.206  13.659  0.00  0.00    +0.015 C 
ATOM     34  C   UNL     1       3.168 -12.216  14.736  0.00  0.00    +0.015 C 
ATOM     35  C   UNL     1       2.119 -14.471  14.970  0.00  0.00    +0.015 C 
ENDBRANCH  29  32
ENDBRANCH  20  21
ENDBRANCH   3  20
TORSDOF 8
