REMARK  Name = ZINC66703012
REMARK  7 active torsions:
REMARK  status: ('A' for Active; 'I' for Inactive)
REMARK    1  A    between atoms: C_1  and  C_2
REMARK    2  A    between atoms: C_7  and  C_8
REMARK    3  A    between atoms: C_8  and  C_11
REMARK    4  A    between atoms: C_11  and  N_12
REMARK    5  A    between atoms: N_15  and  C_16
REMARK    6  A    between atoms: C_16  and  C_17
REMARK    7  A    between atoms: C_21  and  C_23
REMARK                            x       y       z     vdW  Elec       q    Type
REMARK                         _______ _______ _______ _____ _____    ______ ____
ROOT
ATOM      1  N   UNL     1       0.131   2.027   1.454  0.00  0.00    -0.299 N 
ATOM      2  C   UNL     1       0.447   3.333   1.340  0.00  0.00    +0.300 C 
ATOM      3  O   UNL     1       1.039   3.896   2.239  0.00  0.00    -0.253 OA
ATOM      4  N   UNL     1       0.105   4.014   0.228  0.00  0.00    -0.292 N 
ATOM      5  H   UNL     1      -0.342   1.578   0.737  0.00  0.00    +0.150 HD
ATOM      6  H   UNL     1      -0.368   3.564  -0.490  0.00  0.00    +0.151 HD
ENDROOT
BRANCH   1   7
ATOM      7  C   UNL     1       0.503   1.288   2.663  0.00  0.00    +0.117 C 
BRANCH   7   8
ATOM      8  C   UNL     1      -0.062  -0.132   2.585  0.00  0.00    +0.012 C 
ATOM      9  C   UNL     1      -1.534  -0.329   2.952  0.00  0.00    +0.014 C 
ATOM     10  C   UNL     1      -0.438  -0.816   3.901  0.00  0.00    +0.014 C 
BRANCH   8  17
ATOM     11  C   UNL     1       2.432  -1.534   2.991  0.00  0.00    +0.044 C 
ATOM     12  C   UNL     1       1.697  -1.668   1.683  0.00  0.00    -0.047 A 
ATOM     13  C   UNL     1       2.212  -2.466   0.679  0.00  0.00    +0.003 A 
ATOM     14  C   UNL     1       1.538  -2.590  -0.521  0.00  0.00    +0.000 A 
ATOM     15  C   UNL     1       0.347  -1.915  -0.717  0.00  0.00    +0.000 A 
ATOM     16  C   UNL     1      -0.169  -1.118   0.287  0.00  0.00    +0.004 A 
ATOM     17  C   UNL     1       0.504  -0.998   1.489  0.00  0.00    -0.037 A 
ENDBRANCH   8  17
ENDBRANCH   7   8
ENDBRANCH   1   7
BRANCH   4  18
ATOM     18  C   UNL     1       0.447   5.433   0.103  0.00  0.00    +0.181 C 
BRANCH  18  19
ATOM     19  C   UNL     1      -0.043   5.953  -1.223  0.00  0.00    +0.143 A 
ATOM     20  N   UNL     1      -1.211   6.585  -1.438  0.00  0.00    -0.261 N 
ATOM     21  H   UNL     1      -1.890   6.790  -0.775  0.00  0.00    +0.190 HD
ATOM     22  N   UNL     1      -1.255   6.891  -2.807  0.00  0.00    -0.152 NA
ATOM     23  C   UNL     1      -0.136   6.436  -3.332  0.00  0.00    +0.188 A 
ATOM     24  N   UNL     1       0.596   5.873  -2.360  0.00  0.00    -0.209 NA
BRANCH  23  25
ATOM     25  C   UNL     1       0.251   6.536  -4.756  0.00  0.00    +0.058 A 
ATOM     26  C   UNL     1      -0.432   7.102  -5.798  0.00  0.00    +0.019 A 
ATOM     27  C   UNL     1       0.135   7.075  -7.054  0.00  0.00    +0.008 A 
ATOM     28  C   UNL     1       1.348   6.491  -7.220  0.00  0.00    +0.046 A 
ATOM     29  S   UNL     1       1.735   5.956  -5.561  0.00  0.00    -0.093 S 
ENDBRANCH  23  25
ENDBRANCH  18  19
ENDBRANCH   4  18
TORSDOF 6
