REMARK  Name = ZINC01281440
REMARK  3 active torsions:
REMARK  status: ('A' for Active; 'I' for Inactive)
REMARK    1  A    between atoms: C_1  and  C_2
REMARK    2  A    between atoms: C_2  and  C_3
REMARK    3  A    between atoms: C_3  and  C_4
REMARK                            x       y       z     vdW  Elec       q    Type
REMARK                         _______ _______ _______ _____ _____    ______ ____
ROOT
ATOM      1  C   UNL     1       1.395   2.047  -0.000  0.00  0.00    +0.050 A 
ATOM      2  C   UNL     1       1.989   2.381  -1.183  0.00  0.00    +0.093 A 
ATOM      3  C   UNL     1       3.307   2.871  -1.166  0.00  0.00    +0.253 A 
ATOM      4  O   UNL     1       3.867   3.183  -2.204  0.00  0.00    -0.268 OA
ATOM      5  N   UNL     1       3.943   2.984   0.019  0.00  0.00    -0.295 N 
ATOM      6  H   UNL     1       4.882   3.326   0.055  0.00  0.00    +0.172 HD
ATOM      7  C   UNL     1       3.302   2.630   1.166  0.00  0.00    +0.199 A 
ATOM      8  N   UNL     1       2.064   2.177   1.143  0.00  0.00    -0.221 NA
ATOM      9  N   UNL     1       3.953   2.748   2.364  0.00  0.00    -0.296 N 
ATOM     10  C   UNL     1       3.049   2.452   3.487  0.00  0.00    +0.113 C 
ATOM     11  C   UNL     1       3.891   2.237   4.745  0.00  0.00    +0.054 C 
ATOM     12  C   UNL     1       4.859   3.380   4.917  0.00  0.00    -0.041 A 
ATOM     13  C   UNL     1       5.456   3.560   6.156  0.00  0.00    +0.004 A 
ATOM     14  C   UNL     1       6.354   4.588   6.354  0.00  0.00    +0.000 A 
ATOM     15  C   UNL     1       6.660   5.444   5.313  0.00  0.00    +0.000 A 
ATOM     16  C   UNL     1       6.065   5.268   4.080  0.00  0.00    +0.005 A 
ATOM     17  C   UNL     1       5.161   4.235   3.880  0.00  0.00    -0.027 A 
ATOM     18  C   UNL     1       4.534   4.085   2.518  0.00  0.00    +0.143 C 
ENDROOT
BRANCH   1  19
ATOM     19  C   UNL     1      -0.019   1.526   0.010  0.00  0.00    +0.055 C 
BRANCH  19  21
ATOM     20  C   UNL     1      -1.433  -0.534   0.013  0.00  0.00    +0.004 C 
ATOM     21  C   UNL     1       0.002  -0.004   0.002  0.00  0.00    +0.003 C 
ENDBRANCH  19  21
ENDBRANCH   1  19
TORSDOF 2
