REMARK  Name = ZINC11439480
REMARK  10 active torsions:
REMARK  status: ('A' for Active; 'I' for Inactive)
REMARK    1  A    between atoms: C_1  and  C_2
REMARK    2  A    between atoms: C_5  and  N_31
REMARK    3  A    between atoms: C_7  and  N_8
REMARK    4  A    between atoms: C_9  and  C_11
REMARK    5  A    between atoms: C_11  and  O_12
REMARK    6  A    between atoms: O_12  and  C_13
REMARK    7  A    between atoms: C_13  and  C_15
REMARK    8  A    between atoms: C_15  and  C_16
REMARK    9  A    between atoms: C_16  and  N_17
REMARK   10  A    between atoms: N_20  and  C_21
REMARK                            x       y       z     vdW  Elec       q    Type
REMARK                         _______ _______ _______ _____ _____    ______ ____
ROOT
ATOM      1  C   UNL     1      -9.559   0.945   3.084  0.00  0.00    +0.309 C 
ATOM      2  O   UNL     1      -9.167   1.646   3.986  0.00  0.00    -0.251 OA
ENDROOT
BRANCH   1   3
ATOM      3  O   UNL     1     -10.815   0.471   3.098  0.00  0.00    -0.455 OA
BRANCH   3   4
ATOM      4  C   UNL     1     -11.646   0.843   4.229  0.00  0.00    +0.328 C 
BRANCH   4   6
ATOM      5  N   UNL     1     -13.957   0.434   5.011  0.00  0.00    -0.282 N 
ATOM      6  C   UNL     1     -13.012   0.224   4.073  0.00  0.00    +0.255 C 
ATOM      7  O   UNL     1     -13.260  -0.462   3.105  0.00  0.00    -0.272 OA
ATOM      8  H   UNL     1     -13.736   0.915   5.824  0.00  0.00    +0.155 HD
BRANCH   5  15
ATOM      9  C   UNL     1     -15.571  -0.065   7.300  0.00  0.00    +0.045 C 
ATOM     10  C   UNL     1     -16.079  -0.299   5.901  0.00  0.00    -0.029 A 
ATOM     11  C   UNL     1     -17.362  -0.770   5.701  0.00  0.00    +0.007 A 
ATOM     12  C   UNL     1     -17.829  -0.986   4.417  0.00  0.00    +0.033 A 
ATOM     13  C   UNL     1     -17.013  -0.731   3.330  0.00  0.00    +0.128 A 
ATOM     14  C   UNL     1     -15.731  -0.255   3.523  0.00  0.00    +0.056 A 
ATOM     15  C   UNL     1     -15.258  -0.043   4.811  0.00  0.00    +0.039 A 
BRANCH  13  16
ATOM     16  N   UNL     1     -17.517  -0.962   1.958  0.00  0.00    +0.056 N 
ATOM     17  O   UNL     1     -18.649  -1.377   1.786  0.00  0.00    -0.126 OA
ATOM     18  O   UNL     1     -16.799  -0.738   0.999  0.00  0.00    -0.126 OA
ENDBRANCH  13  16
ENDBRANCH   5  15
ENDBRANCH   4   6
ENDBRANCH   3   4
ENDBRANCH   1   3
BRANCH   1  19
ATOM     19  C   UNL     1      -8.637   0.601   1.942  0.00  0.00    +0.139 C 
BRANCH  19  20
ATOM     20  C   UNL     1      -7.276   1.262   2.169  0.00  0.00    +0.117 C 
BRANCH  20  21
ATOM     21  N   UNL     1      -6.380   0.928   1.059  0.00  0.00    -0.299 N 
ATOM     22  C   UNL     1      -5.119   1.403   1.044  0.00  0.00    +0.300 C 
ATOM     23  O   UNL     1      -4.725   2.108   1.953  0.00  0.00    -0.253 OA
ATOM     24  N   UNL     1      -4.295   1.095   0.023  0.00  0.00    -0.294 N 
ATOM     25  H   UNL     1      -6.695   0.365   0.334  0.00  0.00    +0.150 HD
ATOM     26  H   UNL     1      -4.609   0.533  -0.702  0.00  0.00    +0.151 HD
BRANCH  24  27
ATOM     27  C   UNL     1      -2.924   1.612   0.008  0.00  0.00    +0.037 C 
ATOM     28  C   UNL     1      -2.207   1.118  -1.251  0.00  0.00    +0.029 C 
ATOM     29  C   UNL     1      -0.776   1.657  -1.267  0.00  0.00    -0.008 C 
ATOM     30  C   UNL     1      -0.029   1.160  -0.028  0.00  0.00    +0.007 C 
ATOM     31  C   UNL     1      -0.746   1.654   1.231  0.00  0.00    -0.008 C 
ATOM     32  C   UNL     1      -2.178   1.115   1.247  0.00  0.00    +0.029 C 
ATOM     33  C   UNL     1      -0.777   3.183   1.234  0.00  0.00    +0.007 C 
ATOM     34  C   UNL     1      -1.523   3.681  -0.006  0.00  0.00    -0.008 C 
ATOM     35  C   UNL     1      -0.807   3.187  -1.265  0.00  0.00    +0.007 C 
ATOM     36  C   UNL     1      -2.955   3.141   0.010  0.00  0.00    +0.029 C 
ENDBRANCH  24  27
ENDBRANCH  20  21
ENDBRANCH  19  20
ENDBRANCH   1  19
TORSDOF 9
