REMARK  Name = ZINC20835275
REMARK  8 active torsions:
REMARK  status: ('A' for Active; 'I' for Inactive)
REMARK    1  A    between atoms: C_1  and  C_2
REMARK    2  A    between atoms: C_2  and  C_3
REMARK    3  A    between atoms: C_3  and  C_27
REMARK    4  A    between atoms: N_4  and  N_5
REMARK    5  A    between atoms: C_8  and  S_11
REMARK    6  A    between atoms: S_11  and  C_12
REMARK    7  A    between atoms: C_12  and  C_13
REMARK    8  A    between atoms: N_15  and  C_16
REMARK                            x       y       z     vdW  Elec       q    Type
REMARK                         _______ _______ _______ _____ _____    ______ ____
ROOT
ATOM      1  N   UNL     1       1.754  -1.723  -0.025  0.00  0.00    -0.205 N 
ATOM      2  C   UNL     1       1.308  -0.409  -0.013  0.00  0.00    +0.232 A 
ATOM      3  N   UNL     1       0.002  -0.004   0.002  0.00  0.00    -0.186 NA
ATOM      4  C   UNL     1      -0.016   1.362   0.009  0.00  0.00    +0.211 A 
ATOM      5  N   UNL     1       1.225   1.784  -0.000  0.00  0.00    -0.144 NA
ATOM      6  N   UNL     1       2.064   0.662  -0.014  0.00  0.00    -0.245 N 
ATOM      7  H   UNL     1       1.029  -2.550  -0.023  0.00  0.00    +0.177 HD
ATOM      8  H   UNL     1       3.159   0.562  -0.025  0.00  0.00    +0.192 HD
ENDROOT
BRANCH   1  10
ATOM      9  C   UNL     1       3.546  -3.225  -0.050  0.00  0.00    +0.066 C 
ATOM     10  N   UNL     1       3.128  -1.995  -0.039  0.00  0.00    -0.184 NA
BRANCH   9  11
ATOM     11  C   UNL     1       4.992  -3.512  -0.066  0.00  0.00    -0.002 A 
ATOM     12  C   UNL     1       5.446  -4.833  -0.072  0.00  0.00    +0.010 A 
ATOM     13  C   UNL     1       6.800  -5.094  -0.091  0.00  0.00    +0.001 A 
ATOM     14  C   UNL     1       7.709  -4.051  -0.093  0.00  0.00    +0.000 A 
ATOM     15  C   UNL     1       7.267  -2.740  -0.082  0.00  0.00    +0.001 A 
ATOM     16  C   UNL     1       5.916  -2.464  -0.068  0.00  0.00    +0.010 A 
ENDBRANCH   9  11
BRANCH   9  18
ATOM     17  C   UNL     1       2.204  -4.733  -1.489  0.00  0.00    +0.010 C 
ATOM     18  C   UNL     1       2.553  -4.358  -0.048  0.00  0.00    +0.054 C 
ENDBRANCH   9  18
ENDBRANCH   1  10
BRANCH   4  19
ATOM     19  S   UNL     1      -1.456   2.378   0.022  0.00  0.00    -0.075 S 
BRANCH  19  20
ATOM     20  C   UNL     1      -0.799   4.069   0.028  0.00  0.00    +0.173 C 
BRANCH  20  21
ATOM     21  C   UNL     1      -1.942   5.051   0.039  0.00  0.00    +0.224 C 
ATOM     22  O   UNL     1      -3.087   4.650   0.043  0.00  0.00    -0.275 OA
ATOM     23  N   UNL     1      -1.692   6.376   0.045  0.00  0.00    -0.308 N 
ATOM     24  H   UNL     1      -0.654   6.739   0.042  0.00  0.00    +0.149 HD
BRANCH  23  25
ATOM     25  C   UNL     1      -2.803   7.331   0.056  0.00  0.00    +0.103 C 
ATOM     26  C   UNL     1      -2.336   8.653  -0.549  0.00  0.00    +0.027 C 
ATOM     27  C   UNL     1      -3.436   9.699  -0.333  0.00  0.00    +0.007 C 
ATOM     28  C   UNL     1      -3.498  10.032   1.157  0.00  0.00    +0.035 C 
ATOM     29  C   UNL     1      -3.594   8.773   1.978  0.00  0.00    -0.042 A 
ATOM     30  C   UNL     1      -3.271   7.533   1.473  0.00  0.00    -0.024 A 
ATOM     31  C   UNL     1      -3.374   6.411   2.286  0.00  0.00    +0.006 A 
ATOM     32  C   UNL     1      -3.801   6.529   3.593  0.00  0.00    +0.000 A 
ATOM     33  C   UNL     1      -4.129   7.773   4.098  0.00  0.00    +0.000 A 
ATOM     34  C   UNL     1      -4.026   8.889   3.292  0.00  0.00    +0.004 A 
ENDBRANCH  23  25
ENDBRANCH  20  21
ENDBRANCH  19  20
ENDBRANCH   4  19
TORSDOF 7
