REMARK  Name = ZINC62037395
REMARK  5 active torsions:
REMARK  status: ('A' for Active; 'I' for Inactive)
REMARK    1  A    between atoms: C_1  and  C_2
REMARK    2  A    between atoms: C_6  and  C_10
REMARK    3  A    between atoms: C_10  and  N_11
REMARK    4  A    between atoms: N_11  and  S_12
REMARK    5  A    between atoms: S_12  and  C_15
REMARK                            x       y       z     vdW  Elec       q    Type
REMARK                         _______ _______ _______ _____ _____    ______ ____
ROOT
ATOM      1  N   UNL     1      -1.329  -0.459   4.950  0.00  0.00    -0.190 NA
ATOM      2  H   UNL     1      -0.731  -1.218   4.865  0.00  0.00    +0.148 HD
ENDROOT
BRANCH   1   3
ATOM      3  S   UNL     1      -1.573   0.242   6.430  0.00  0.00    +0.061 S 
ATOM      4  O   UNL     1      -0.801  -0.501   7.364  0.00  0.00    -0.153 OA
ATOM      5  O   UNL     1      -1.409   1.642   6.249  0.00  0.00    -0.153 OA
BRANCH   3   6
ATOM      6  C   UNL     1      -3.263  -0.016   6.856  0.00  0.00    +0.142 A 
ATOM      7  C   UNL     1      -4.295   0.806   6.554  0.00  0.00    +0.133 A 
ATOM      8  N   UNL     1      -5.420   0.255   7.055  0.00  0.00    -0.283 N 
ATOM      9  H   UNL     1      -6.315   0.625   6.990  0.00  0.00    +0.188 HD
ATOM     10  N   UNL     1      -5.069  -0.945   7.686  0.00  0.00    -0.180 NA
ATOM     11  C   UNL     1      -3.777  -1.110   7.561  0.00  0.00    +0.162 A 
ENDBRANCH   3   6
ENDBRANCH   1   3
BRANCH   1  12
ATOM     12  C   UNL     1      -2.015   0.068   3.768  0.00  0.00    +0.107 C 
BRANCH  12  17
ATOM     13  C   UNL     1      -0.019   1.526   0.010  0.00  0.00    -0.014 C 
ATOM     14  C   UNL     1       0.002  -0.004   0.002  0.00  0.00    -0.075 C 
ATOM     15  C   UNL     1      -1.434  -0.533   0.011  0.00  0.00    -0.016 C 
ATOM     16  C   UNL     1      -2.146  -0.038   1.273  0.00  0.00    +0.001 C 
ATOM     17  C   UNL     1      -1.354  -0.487   2.504  0.00  0.00    -0.013 C 
ATOM     18  C   UNL     1       0.079   0.040   2.403  0.00  0.00    -0.078 C 
ATOM     19  N   UNL     1       0.713  -0.490   1.191  0.00  0.00    +0.381 N 
ATOM     20  H   UNL     1       0.684  -1.498   1.210  0.00  0.00    -0.086 HD
ATOM     21  H   UNL     1       1.674  -0.184   1.155  0.00  0.00    -0.086 HD
ENDBRANCH  12  17
ENDBRANCH   1  12
TORSDOF 4
