REMARK  Name = ZINC13499494
REMARK  12 active torsions:
REMARK  status: ('A' for Active; 'I' for Inactive)
REMARK    1  A    between atoms: C_1  and  C_2
REMARK    2  A    between atoms: C_2  and  C_3
REMARK    3  A    between atoms: C_3  and  C_4
REMARK    4  A    between atoms: C_4  and  C_6
REMARK    5  A    between atoms: C_4  and  N_72
REMARK    6  A    between atoms: N_10  and  C_11
REMARK    7  A    between atoms: C_11  and  C_12
REMARK    8  A    between atoms: C_18  and  C_19
REMARK    9  A    between atoms: C_18  and  N_72
REMARK   10  A    between atoms: C_23  and  C_32
REMARK   11  A    between atoms: C_24  and  C_31
REMARK   12  A    between atoms: C_33  and  N_72
REMARK                            x       y       z     vdW  Elec       q    Type
REMARK                         _______ _______ _______ _____ _____    ______ ____
ROOT
ATOM      1  N   UNL     1      -5.475   4.089  -1.109  0.00  0.00    +0.391 N 
ATOM      2  H   UNL     1      -4.597   4.151  -1.637  0.00  0.00    -0.080 HD
ENDROOT
BRANCH   1   3
ATOM      3  C   UNL     1      -6.042   2.735  -1.276  0.00  0.00    -0.067 C 
ATOM      4  C   UNL     1      -7.008   2.393  -0.123  0.00  0.00    -0.015 C 
ATOM      5  C   UNL     1      -6.751   0.890   0.154  0.00  0.00    -0.002 C 
ATOM      6  C   UNL     1      -5.219   0.764  -0.035  0.00  0.00    -0.002 C 
ATOM      7  C   UNL     1      -4.905   1.699  -1.221  0.00  0.00    -0.015 C 
ENDBRANCH   1   3
BRANCH   1   8
ATOM      8  C   UNL     1      -6.420   5.100  -1.629  0.00  0.00    +0.003 C 
BRANCH   8   9
ATOM      9  C   UNL     1      -7.525   5.349  -0.635  0.00  0.00    +0.138 A 
ATOM     10  N   UNL     1      -8.235   4.442  -0.011  0.00  0.00    -0.115 NA
ATOM     11  N   UNL     1      -9.075   5.050   0.753  0.00  0.00    -0.023 NA
ATOM     12  N   UNL     1      -8.925   6.323   0.626  0.00  0.00    -0.044 NA
ATOM     13  N   UNL     1      -7.979   6.547  -0.222  0.00  0.00    -0.226 N 
BRANCH  13  14
ATOM     14  C   UNL     1      -7.490   7.859  -0.653  0.00  0.00    +0.182 C 
BRANCH  14  15
ATOM     15  C   UNL     1      -8.271   8.315  -1.859  0.00  0.00    -0.026 A 
ATOM     16  C   UNL     1      -7.830   7.996  -3.129  0.00  0.00    +0.005 A 
ATOM     17  C   UNL     1      -8.549   8.410  -4.235  0.00  0.00    +0.000 A 
ATOM     18  C   UNL     1      -9.704   9.151  -4.070  0.00  0.00    +0.000 A 
ATOM     19  C   UNL     1     -10.143   9.475  -2.799  0.00  0.00    +0.000 A 
ATOM     20  C   UNL     1      -9.426   9.056  -1.694  0.00  0.00    +0.005 A 
ENDBRANCH  14  15
ENDBRANCH  13  14
ENDBRANCH   8   9
BRANCH   8  21
ATOM     21  C   UNL     1      -7.020   4.600  -2.945  0.00  0.00    -0.008 C 
BRANCH  21  23
ATOM     22  C   UNL     1      -6.504   3.947  -5.301  0.00  0.00    +0.004 C 
ATOM     23  C   UNL     1      -5.898   4.352  -3.955  0.00  0.00    -0.005 C 
ENDBRANCH  21  23
ENDBRANCH   8  21
ENDBRANCH   1   8
BRANCH   1  24
ATOM     24  C   UNL     1      -5.195   4.347   0.319  0.00  0.00    -0.036 C 
BRANCH  24  25
ATOM     25  C   UNL     1      -4.267   5.529   0.425  0.00  0.00    +0.001 A 
ATOM     26  C   UNL     1      -4.763   6.752   0.735  0.00  0.00    +0.017 A 
ATOM     27  C   UNL     1      -3.835   7.880   0.831  0.00  0.00    -0.001 A 
ATOM     28  C   UNL     1      -4.288   9.166   1.147  0.00  0.00    +0.013 A 
ATOM     29  C   UNL     1      -3.396  10.197   1.228  0.00  0.00    -0.047 A 
ATOM     30  C   UNL     1      -2.044   9.981   0.998  0.00  0.00    -0.046 A 
ATOM     31  C   UNL     1      -1.575   8.724   0.685  0.00  0.00    +0.030 A 
ATOM     32  C   UNL     1      -2.466   7.659   0.591  0.00  0.00    +0.049 A 
ATOM     33  N   UNL     1      -2.024   6.390   0.285  0.00  0.00    -0.322 N 
ATOM     34  H   UNL     1      -1.079   6.238   0.125  0.00  0.00    +0.169 HD
ATOM     35  C   UNL     1      -2.884   5.360   0.200  0.00  0.00    +0.251 A 
ATOM     36  O   UNL     1      -2.459   4.252  -0.079  0.00  0.00    -0.268 OA
ATOM     37  C   UNL     1      -1.078  11.135   1.093  0.00  0.00    +0.044 C 
ATOM     38  C   UNL     1      -3.884  11.582   1.569  0.00  0.00    +0.044 C 
ENDBRANCH  24  25
ENDBRANCH   1  24
TORSDOF 9
