REMARK  Name = ZINC39948324
REMARK  9 active torsions:
REMARK  status: ('A' for Active; 'I' for Inactive)
REMARK    1  A    between atoms: C_1  and  C_2
REMARK    2  A    between atoms: C_4  and  C_12
REMARK    3  A    between atoms: C_12  and  C_14
REMARK    4  A    between atoms: C_14  and  C_35
REMARK    5  A    between atoms: C_15  and  C_16
REMARK    6  A    between atoms: C_17  and  C_27
REMARK    7  A    between atoms: N_19  and  C_21
REMARK    8  A    between atoms: C_30  and  O_33
REMARK    9  A    between atoms: O_33  and  C_34
REMARK                            x       y       z     vdW  Elec       q    Type
REMARK                         _______ _______ _______ _____ _____    ______ ____
ROOT
ATOM      1  C   UNL     1       1.647  -1.081  -6.101  0.00  0.00    -0.004 C 
ATOM      2  C   UNL     1       1.685  -0.576  -7.395  0.00  0.00    +0.056 C 
ATOM      3  N   UNL     1       2.805  -1.000  -8.046  0.00  0.00    -0.263 N 
ATOM      4  N   UNL     1       3.589  -1.819  -7.226  0.00  0.00    -0.249 N 
ATOM      5  C   UNL     1       2.898  -1.916  -5.931  0.00  0.00    +0.164 C 
ATOM      6  H   UNL     1       3.030  -0.764  -8.960  0.00  0.00    +0.170 HD
ENDROOT
BRANCH   4   7
ATOM      7  C   UNL     1       4.799  -2.425  -7.570  0.00  0.00    +0.048 A 
ATOM      8  C   UNL     1       5.466  -3.221  -6.647  0.00  0.00    +0.025 A 
ATOM      9  C   UNL     1       6.662  -3.819  -6.990  0.00  0.00    +0.002 A 
ATOM     10  C   UNL     1       7.197  -3.626  -8.251  0.00  0.00    +0.000 A 
ATOM     11  C   UNL     1       6.537  -2.833  -9.172  0.00  0.00    +0.002 A 
ATOM     12  C   UNL     1       5.337  -2.237  -8.837  0.00  0.00    +0.025 A 
ENDBRANCH   4   7
BRANCH   2  13
ATOM     13  C   UNL     1       0.657   0.298  -7.982  0.00  0.00    -0.002 A 
ATOM     14  C   UNL     1       0.188   1.407  -7.269  0.00  0.00    +0.013 A 
ATOM     15  C   UNL     1      -0.774   2.221  -7.822  0.00  0.00    +0.046 A 
ATOM     16  C   UNL     1      -1.280   1.943  -9.088  0.00  0.00    +0.120 A 
ATOM     17  C   UNL     1      -0.817   0.842  -9.800  0.00  0.00    +0.046 A 
ATOM     18  C   UNL     1       0.149   0.025  -9.258  0.00  0.00    +0.013 A 
BRANCH  16  19
ATOM     19  O   UNL     1      -2.228   2.749  -9.629  0.00  0.00    -0.495 OA
ATOM     20  C   UNL     1      -2.704   2.405 -10.932  0.00  0.00    +0.277 C 
ENDBRANCH  16  19
ENDBRANCH   2  13
BRANCH   1  22
ATOM     21  C   UNL     1       0.818  -1.353  -3.852  0.00  0.00    +0.099 C 
ATOM     22  C   UNL     1       0.661  -0.860  -5.153  0.00  0.00    +0.029 C 
BRANCH  21  23
ATOM     23  C   UNL     1      -0.222  -1.120  -2.851  0.00  0.00    +0.202 C 
ATOM     24  O   UNL     1      -1.269  -0.583  -3.174  0.00  0.00    -0.286 OA
BRANCH  23  27
ATOM     25  C   UNL     1      -2.024  -2.855  -0.830  0.00  0.00    +0.035 C 
ATOM     26  C   UNL     1      -0.495  -2.799  -0.798  0.00  0.00    +0.111 C 
ATOM     27  C   UNL     1      -0.007  -1.530  -1.462  0.00  0.00    +0.031 C 
ATOM     28  C   UNL     1       0.684  -0.841  -0.486  0.00  0.00    +0.007 A 
ATOM     29  C   UNL     1       1.369   0.399  -0.486  0.00  0.00    +0.010 A 
ATOM     30  C   UNL     1       1.973   0.844   0.639  0.00  0.00    +0.001 A 
ATOM     31  C   UNL     1       1.955   0.118   1.839  0.00  0.00    +0.002 A 
ATOM     32  C   UNL     1       1.329  -1.076   1.944  0.00  0.00    +0.026 A 
ATOM     33  C   UNL     1       0.647  -1.631   0.767  0.00  0.00    +0.043 A 
ATOM     34  N   UNL     1      -0.021  -2.741   0.589  0.00  0.00    -0.377 N 
ATOM     35  H   UNL     1      -0.179  -3.418   1.265  0.00  0.00    +0.160 HD
ENDBRANCH  23  27
ENDBRANCH  21  23
BRANCH  21  36
ATOM     36  C   UNL     1       1.998  -2.085  -3.501  0.00  0.00    +0.103 C 
ATOM     37  N   UNL     1       2.934  -2.666  -3.223  0.00  0.00    -0.191 NA
ENDBRANCH  21  36
ENDBRANCH   1  22
TORSDOF 7
