REMARK  Name = ZINC13148321
REMARK  9 active torsions:
REMARK  status: ('A' for Active; 'I' for Inactive)
REMARK    1  A    between atoms: C_4  and  C_7
REMARK    2  A    between atoms: C_7  and  N_8
REMARK    3  A    between atoms: C_9  and  N_35
REMARK    4  A    between atoms: C_10  and  N_17
REMARK    5  A    between atoms: N_17  and  C_18
REMARK    6  A    between atoms: C_18  and  C_19
REMARK    7  A    between atoms: C_19  and  C_20
REMARK    8  A    between atoms: C_26  and  C_28
REMARK    9  A    between atoms: C_29  and  C_30
REMARK                            x       y       z     vdW  Elec       q    Type
REMARK                         _______ _______ _______ _____ _____    ______ ____
ROOT
ATOM      1  N   UNL     1       0.352   0.031  -0.986  0.00  0.00    -0.276 N 
ATOM      2  C   UNL     1       0.450   1.402  -1.020  0.00  0.00    +0.128 A 
ATOM      3  C   UNL     1       1.087   2.059   0.013  0.00  0.00    +0.140 A 
ATOM      4  C   UNL     1       1.618   1.301   1.074  0.00  0.00    +0.277 A 
ATOM      5  O   UNL     1       2.181   1.856   2.003  0.00  0.00    -0.266 OA
ATOM      6  N   UNL     1       1.494  -0.040   1.060  0.00  0.00    -0.273 N 
ATOM      7  H   UNL     1       1.871  -0.579   1.813  0.00  0.00    +0.173 HD
ATOM      8  C   UNL     1       0.871  -0.663   0.044  0.00  0.00    +0.331 A 
ATOM      9  O   UNL     1       0.774  -1.875   0.056  0.00  0.00    -0.246 OA
ENDROOT
BRANCH   3  10
ATOM     10  N   UNL     1       1.203   3.464   0.006  0.00  0.00    -0.260 N 
ATOM     11  C   UNL     1       2.418   4.040  -0.096  0.00  0.00    +0.244 C 
ATOM     12  O   UNL     1       3.421   3.348  -0.098  0.00  0.00    -0.270 OA
BRANCH  11  13
ATOM     13  C   UNL     1       2.528   5.446  -0.201  0.00  0.00    +0.069 C 
ATOM     14  C   UNL     1       3.750   6.025  -0.304  0.00  0.00    +0.020 C 
BRANCH  14  15
ATOM     15  C   UNL     1       3.860   7.433  -0.409  0.00  0.00    +0.012 A 
ATOM     16  C   UNL     1       5.002   8.217  -0.522  0.00  0.00    +0.015 A 
ATOM     17  C   UNL     1       4.821   9.574  -0.609  0.00  0.00    +0.008 A 
ATOM     18  C   UNL     1       3.559  10.079  -0.581  0.00  0.00    +0.046 A 
ATOM     19  S   UNL     1       2.568   8.663  -0.439  0.00  0.00    -0.097 S 
ENDBRANCH  14  15
ENDBRANCH  11  13
BRANCH  10  20
ATOM     20  C   UNL     1       0.004   4.299   0.111  0.00  0.00    +0.118 C 
BRANCH  20  21
ATOM     21  C   UNL     1      -0.213   4.700   1.571  0.00  0.00    +0.050 C 
BRANCH  21  22
ATOM     22  C   UNL     1      -1.447   5.559   1.679  0.00  0.00    -0.072 C 
ATOM     23  C   UNL     1      -2.564   4.981   1.982  0.00  0.00    -0.028 C 
ATOM     24  C   UNL     1      -3.874   5.700   2.115  0.00  0.00    +0.027 C 
ATOM     25  C   UNL     1      -3.637   7.204   2.267  0.00  0.00    +0.004 C 
ATOM     26  C   UNL     1      -2.674   7.657   1.161  0.00  0.00    +0.005 C 
ATOM     27  C   UNL     1      -1.302   7.032   1.433  0.00  0.00    +0.030 C 
ENDBRANCH  21  22
ENDBRANCH  20  21
ENDBRANCH  10  20
ENDBRANCH   3  10
BRANCH   2  28
ATOM     28  N   UNL     1      -0.080   2.111  -2.072  0.00  0.00    -0.343 N 
ATOM     29  H   UNL     1      -0.461   1.641  -2.830  0.00  0.00    +0.144 HD
ATOM     30  H   UNL     1      -0.072   3.081  -2.057  0.00  0.00    +0.144 HD
ENDBRANCH   2  28
BRANCH   1  31
ATOM     31  C   UNL     1      -0.322  -0.679  -2.076  0.00  0.00    +0.163 C 
BRANCH  31  35
ATOM     32  C   UNL     1      -4.478  -1.068  -1.168  0.00  0.00    +0.000 A 
ATOM     33  C   UNL     1      -4.022   0.039  -1.860  0.00  0.00    +0.000 A 
ATOM     34  C   UNL     1      -2.677   0.165  -2.154  0.00  0.00    +0.005 A 
ATOM     35  C   UNL     1      -1.788  -0.816  -1.755  0.00  0.00    -0.028 A 
ATOM     36  C   UNL     1      -2.245  -1.925  -1.068  0.00  0.00    +0.005 A 
ATOM     37  C   UNL     1      -3.589  -2.048  -0.769  0.00  0.00    +0.000 A 
ENDBRANCH  31  35
ENDBRANCH   1  31
TORSDOF 9
