REMARK  Name = ZINC67451964
REMARK  4 active torsions:
REMARK  status: ('A' for Active; 'I' for Inactive)
REMARK    1  A    between atoms: C_13  and  C_15
REMARK    2  A    between atoms: C_15  and  C_16
REMARK    3  A    between atoms: N_18  and  C_19
REMARK    4  A    between atoms: C_19  and  C_20
REMARK                            x       y       z     vdW  Elec       q    Type
REMARK                         _______ _______ _______ _____ _____    ______ ____
ROOT
ATOM      1  C   UNL     1      -0.017   1.380   0.010  0.00  0.00    +0.000 A 
ATOM      2  C   UNL     1       1.164   2.101   0.002  0.00  0.00    +0.001 A 
ATOM      3  C   UNL     1       2.378   1.441  -0.049  0.00  0.00    +0.010 A 
ATOM      4  C   UNL     1       2.395   0.056  -0.072  0.00  0.00    +0.004 A 
ATOM      5  C   UNL     1       1.208  -0.673  -0.003  0.00  0.00    -0.038 A 
ATOM      6  C   UNL     1       0.002  -0.004   0.002  0.00  0.00    +0.004 A 
ATOM      7  C   UNL     1       1.273  -2.162   0.164  0.00  0.00    +0.036 C 
ATOM      8  C   UNL     1       1.479  -2.914  -1.154  0.00  0.00    +0.010 C 
ATOM      9  C   UNL     1       2.554  -2.186  -1.984  0.00  0.00    +0.045 C 
ATOM     10  C   UNL     1       3.680  -1.767  -1.107  0.00  0.00    +0.017 A 
ATOM     11  C   UNL     1       3.667  -0.713  -0.224  0.00  0.00    +0.082 A 
ATOM     12  N   UNL     1       4.817  -0.505   0.408  0.00  0.00    -0.243 NA
ATOM     13  C   UNL     1       5.858  -1.278   0.222  0.00  0.00    +0.088 A 
ATOM     14  S   UNL     1       5.313  -2.409  -0.904  0.00  0.00    -0.076 S 
ENDROOT
BRANCH  13  15
ATOM     15  C   UNL     1       7.219  -1.179   0.861  0.00  0.00    +0.158 C 
BRANCH  15  16
ATOM     16  C   UNL     1       7.237  -1.989   2.132  0.00  0.00    +0.220 C 
ATOM     17  O   UNL     1       6.242  -2.587   2.484  0.00  0.00    -0.275 OA
ATOM     18  N   UNL     1       8.358  -2.048   2.877  0.00  0.00    -0.308 N 
ATOM     19  H   UNL     1       9.153  -1.570   2.596  0.00  0.00    +0.149 HD
BRANCH  18  20
ATOM     20  C   UNL     1       8.375  -2.835   4.113  0.00  0.00    +0.178 C 
BRANCH  20  21
ATOM     21  C   UNL     1       9.736  -2.737   4.752  0.00  0.00    +0.122 A 
ATOM     22  C   UNL     1      10.117  -1.813   5.652  0.00  0.00    +0.046 A 
ATOM     23  C   UNL     1      11.464  -2.092   5.981  0.00  0.00    +0.041 A 
ATOM     24  C   UNL     1      11.825  -3.171   5.263  0.00  0.00    +0.195 A 
ATOM     25  O   UNL     1      10.773  -3.560   4.524  0.00  0.00    -0.466 OA
ENDBRANCH  20  21
ENDBRANCH  18  20
ENDBRANCH  15  16
ENDBRANCH  13  15
TORSDOF 4
