REMARK  Name = ZINC64045365
REMARK  9 active torsions:
REMARK  status: ('A' for Active; 'I' for Inactive)
REMARK    1  A    between atoms: C_1  and  N_2
REMARK    2  A    between atoms: N_2  and  C_3
REMARK    3  A    between atoms: C_3  and  C_4
REMARK    4  A    between atoms: C_13  and  C_15
REMARK    5  A    between atoms: C_18  and  C_21
REMARK    6  A    between atoms: C_21  and  O_22
REMARK    7  A    between atoms: O_22  and  C_23
REMARK    8  A    between atoms: C_28  and  O_29
REMARK    9  A    between atoms: O_29  and  C_30
REMARK                            x       y       z     vdW  Elec       q    Type
REMARK                         _______ _______ _______ _____ _____    ______ ____
ROOT
ATOM      1  C   UNL     1      -0.018   1.461   0.010  0.00  0.00    +0.132 C 
ATOM      2  N   UNL     1       0.002  -0.004   0.002  0.00  0.00    -0.299 N 
ATOM      3  C   UNL     1       0.000  -0.672  -1.169  0.00  0.00    +0.246 C 
ATOM      4  O   UNL     1       0.017  -1.884  -1.175  0.00  0.00    -0.273 OA
ENDROOT
BRANCH   3   5
ATOM      5  C   UNL     1      -0.023   0.089  -2.470  0.00  0.00    +0.238 C 
ATOM      6  C   UNL     1      -1.440   0.502  -2.825  0.00  0.00    +0.039 C 
ATOM      7  C   UNL     1      -1.675  -0.119  -3.983  0.00  0.00    +0.099 C 
ATOM      8  N   UNL     1      -0.600  -0.843  -4.367  0.00  0.00    -0.155 NA
ATOM      9  N   UNL     1       0.363  -0.785  -3.591  0.00  0.00    -0.170 NA
BRANCH   7  10
ATOM     10  C   UNL     1      -2.964  -0.026  -4.758  0.00  0.00    +0.286 C 
BRANCH  10  11
ATOM     11  O   UNL     1      -2.723   0.624  -6.008  0.00  0.00    -0.482 OA
BRANCH  11  12
ATOM     12  C   UNL     1      -3.791   0.789  -6.834  0.00  0.00    +0.162 A 
ATOM     13  C   UNL     1      -5.043   0.341  -6.447  0.00  0.00    +0.049 A 
ATOM     14  C   UNL     1      -6.128   0.510  -7.288  0.00  0.00    +0.004 A 
ATOM     15  C   UNL     1      -5.965   1.126  -8.515  0.00  0.00    +0.004 A 
ATOM     16  C   UNL     1      -4.718   1.575  -8.907  0.00  0.00    +0.049 A 
ATOM     17  C   UNL     1      -3.628   1.414  -8.066  0.00  0.00    +0.162 A 
BRANCH  17  18
ATOM     18  O   UNL     1      -2.402   1.861  -8.448  0.00  0.00    -0.491 OA
ATOM     19  C   UNL     1      -2.310   2.492  -9.726  0.00  0.00    +0.277 C 
ENDBRANCH  17  18
ENDBRANCH  11  12
ENDBRANCH  10  11
ENDBRANCH   7  10
ENDBRANCH   3   5
BRANCH   2  20
ATOM     20  C   UNL     1       0.024  -0.743   1.267  0.00  0.00    +0.154 C 
BRANCH  20  21
ATOM     21  C   UNL     1      -1.411  -1.020   1.720  0.00  0.00    +0.192 C 
ATOM     22  N   UNL     1      -2.136  -1.755   0.677  0.00  0.00    -0.362 N 
ATOM     23  C   UNL     1      -3.145  -1.018   0.310  0.00  0.00    +0.060 A 
ATOM     24  C   UNL     1      -4.215  -1.210  -0.679  0.00  0.00    +0.027 A 
ATOM     25  C   UNL     1      -5.146  -0.250  -0.845  0.00  0.00    +0.002 A 
ATOM     26  C   UNL     1      -5.143   0.946  -0.105  0.00  0.00    +0.002 A 
ATOM     27  C   UNL     1      -4.208   1.222   0.825  0.00  0.00    +0.027 A 
ATOM     28  C   UNL     1      -3.142   0.248   1.093  0.00  0.00    +0.060 A 
ATOM     29  N   UNL     1      -2.131   0.244   1.914  0.00  0.00    -0.362 N 
ATOM     30  H   UNL     1      -1.906  -2.629   0.325  0.00  0.00    +0.162 HD
ATOM     31  H   UNL     1      -1.897   0.949   2.539  0.00  0.00    +0.162 HD
ENDBRANCH  20  21
ENDBRANCH   2  20
TORSDOF 7
