REMARK  Name = ZINC06188432
REMARK  6 active torsions:
REMARK  status: ('A' for Active; 'I' for Inactive)
REMARK    1  A    between atoms: C_9  and  O_30
REMARK    2  A    between atoms: C_10  and  C_11
REMARK    3  A    between atoms: N_12  and  N_13
REMARK    4  A    between atoms: C_14  and  C_16
REMARK    5  A    between atoms: C_16  and  N_17
REMARK    6  A    between atoms: C_25  and  C_26
REMARK                            x       y       z     vdW  Elec       q    Type
REMARK                         _______ _______ _______ _____ _____    ______ ____
ROOT
ATOM      1  N   UNL     1       7.321   0.148  -0.067  0.00  0.00    -0.206 N 
ATOM      2  C   UNL     1       8.489  -0.523  -0.081  0.00  0.00    +0.252 C 
ATOM      3  O   UNL     1       8.492  -1.736  -0.087  0.00  0.00    -0.272 OA
ATOM      4  H   UNL     1       7.319   1.118  -0.062  0.00  0.00    +0.177 HD
ENDROOT
BRANCH   1   6
ATOM      5  C   UNL     1       4.982   0.092  -0.045  0.00  0.00    +0.142 C 
ATOM      6  N   UNL     1       6.109  -0.555  -0.059  0.00  0.00    -0.188 NA
BRANCH   5  16
ATOM      7  C   UNL     1      -0.016   1.357   0.009  0.00  0.00    +0.001 A 
ATOM      8  C   UNL     1       1.167   2.091   0.002  0.00  0.00    +0.001 A 
ATOM      9  C   UNL     1       2.379   1.466  -0.013  0.00  0.00    +0.009 A 
ATOM     10  C   UNL     1       2.435   0.067  -0.021  0.00  0.00    -0.006 A 
ATOM     11  C   UNL     1       1.233  -0.683  -0.013  0.00  0.00    -0.017 A 
ATOM     12  C   UNL     1       0.002  -0.004   0.002  0.00  0.00    +0.008 A 
ATOM     13  C   UNL     1       1.291  -2.087  -0.021  0.00  0.00    +0.012 A 
ATOM     14  C   UNL     1       2.487  -2.733  -0.035  0.00  0.00    +0.046 A 
ATOM     15  C   UNL     1       3.696  -2.040  -0.042  0.00  0.00    +0.126 A 
ATOM     16  C   UNL     1       3.711  -0.645  -0.036  0.00  0.00    +0.044 A 
BRANCH  15  17
ATOM     17  O   UNL     1       4.868  -2.727  -0.056  0.00  0.00    -0.506 OA
ATOM     18  H   UNL     1       5.199  -2.922  -0.943  0.00  0.00    +0.292 HD
ENDBRANCH  15  17
ENDBRANCH   5  16
ENDBRANCH   1   6
BRANCH   2  19
ATOM     19  C   UNL     1       9.793   0.233  -0.090  0.00  0.00    +0.221 C 
BRANCH  19  20
ATOM     20  N   UNL     1      10.908  -0.716  -0.105  0.00  0.00    -0.311 N 
ATOM     21  C   UNL     1      11.539  -1.256   0.998  0.00  0.00    +0.069 A 
ATOM     22  C   UNL     1      11.372  -1.119   2.370  0.00  0.00    +0.028 A 
ATOM     23  C   UNL     1      12.191  -1.819   3.230  0.00  0.00    +0.002 A 
ATOM     24  C   UNL     1      13.179  -2.658   2.734  0.00  0.00    +0.002 A 
ATOM     25  C   UNL     1      13.358  -2.805   1.387  0.00  0.00    +0.030 A 
ATOM     26  C   UNL     1      12.539  -2.106   0.496  0.00  0.00    +0.090 A 
ATOM     27  N   UNL     1      12.469  -2.042  -0.858  0.00  0.00    -0.224 NA
ATOM     28  C   UNL     1      11.512  -1.234  -1.209  0.00  0.00    +0.216 A 
BRANCH  28  29
ATOM     29  C   UNL     1      11.129  -0.915  -2.632  0.00  0.00    +0.451 C 
ATOM     30  F   UNL     1      11.705  -1.857  -3.491  0.00  0.00    -0.163 F 
ATOM     31  F   UNL     1       9.737  -0.956  -2.760  0.00  0.00    -0.163 F 
ATOM     32  F   UNL     1      11.591   0.363  -2.963  0.00  0.00    -0.163 F 
ENDBRANCH  28  29
ENDBRANCH  19  20
ENDBRANCH   2  19
TORSDOF 6
