REMARK  Name = ZINC21081854
REMARK  8 active torsions:
REMARK  status: ('A' for Active; 'I' for Inactive)
REMARK    1  A    between atoms: C_1  and  C_2
REMARK    2  A    between atoms: C_2  and  C_23
REMARK    3  A    between atoms: N_3  and  N_4
REMARK    4  A    between atoms: C_7  and  S_10
REMARK    5  A    between atoms: S_10  and  C_11
REMARK    6  A    between atoms: C_11  and  C_12
REMARK    7  A    between atoms: C_12  and  C_13
REMARK    8  A    between atoms: N_15  and  C_16
REMARK                            x       y       z     vdW  Elec       q    Type
REMARK                         _______ _______ _______ _____ _____    ______ ____
ROOT
ATOM      1  N   UNL     1       1.758  -1.720  -0.088  0.00  0.00    -0.205 N 
ATOM      2  C   UNL     1       1.311  -0.407  -0.067  0.00  0.00    +0.232 A 
ATOM      3  N   UNL     1       0.005  -0.003  -0.051  0.00  0.00    -0.186 NA
ATOM      4  C   UNL     1      -0.014   1.363  -0.034  0.00  0.00    +0.210 A 
ATOM      5  N   UNL     1       1.228   1.786  -0.037  0.00  0.00    -0.144 NA
ATOM      6  N   UNL     1       2.067   0.664  -0.059  0.00  0.00    -0.245 N 
ATOM      7  H   UNL     1       1.033  -2.548  -0.094  0.00  0.00    +0.177 HD
ATOM      8  H   UNL     1       3.162   0.565  -0.068  0.00  0.00    +0.192 HD
ENDROOT
BRANCH   1  11
ATOM      9  C   UNL     1       2.558  -4.356  -0.130  0.00  0.00    +0.068 C 
ATOM     10  C   UNL     1       3.550  -3.222  -0.122  0.00  0.00    +0.063 C 
ATOM     11  N   UNL     1       3.132  -1.992  -0.102  0.00  0.00    -0.184 NA
BRANCH  10  12
ATOM     12  C   UNL     1       4.997  -3.508  -0.136  0.00  0.00    -0.002 A 
ATOM     13  C   UNL     1       5.450  -4.830  -0.152  0.00  0.00    +0.011 A 
ATOM     14  C   UNL     1       6.804  -5.090  -0.172  0.00  0.00    +0.016 A 
ATOM     15  C   UNL     1       7.713  -4.046  -0.165  0.00  0.00    +0.018 A 
ATOM     16  C   UNL     1       7.271  -2.734  -0.143  0.00  0.00    +0.016 A 
ATOM     17  C   UNL     1       5.920  -2.459  -0.129  0.00  0.00    +0.011 A 
ATOM     18 BR   UNL     1       9.568  -4.413  -0.184  0.00  0.00    -0.050 Br
ENDBRANCH  10  12
ENDBRANCH   1  11
BRANCH   4  19
ATOM     19  S   UNL     1      -1.454   2.378  -0.016  0.00  0.00    -0.084 S 
BRANCH  19  20
ATOM     20  C   UNL     1      -0.798   4.070   0.004  0.00  0.00    +0.086 C 
BRANCH  20  21
ATOM     21  C   UNL     1      -1.958   5.067   0.021  0.00  0.00    +0.107 C 
BRANCH  21  22
ATOM     22  C   UNL     1      -1.413   6.471   0.038  0.00  0.00    +0.218 C 
ATOM     23  O   UNL     1      -0.215   6.657   0.037  0.00  0.00    -0.275 OA
ATOM     24  N   UNL     1      -2.258   7.522   0.054  0.00  0.00    -0.284 N 
ATOM     25  H   UNL     1      -3.343   7.356  -0.019  0.00  0.00    +0.155 HD
BRANCH  24  26
ATOM     26  C   UNL     1      -1.754   8.823   0.164  0.00  0.00    +0.052 A 
ATOM     27  C   UNL     1      -0.544   9.154  -0.431  0.00  0.00    +0.025 A 
ATOM     28  C   UNL     1      -0.053  10.440  -0.325  0.00  0.00    +0.002 A 
ATOM     29  C   UNL     1      -0.759  11.396   0.382  0.00  0.00    +0.002 A 
ATOM     30  C   UNL     1      -1.961  11.070   0.981  0.00  0.00    +0.022 A 
ATOM     31  C   UNL     1      -2.462   9.786   0.875  0.00  0.00    +0.062 A 
ATOM     32 CL   UNL     1      -3.971   9.376   1.627  0.00  0.00    -0.082 Cl
ENDBRANCH  24  26
ENDBRANCH  21  22
ENDBRANCH  20  21
ENDBRANCH  19  20
ENDBRANCH   4  19
TORSDOF 7
