REMARK  Name = ZINC39942546
REMARK  9 active torsions:
REMARK  status: ('A' for Active; 'I' for Inactive)
REMARK    1  A    between atoms: C_1  and  C_2
REMARK    2  A    between atoms: C_2  and  C_3
REMARK    3  A    between atoms: C_3  and  N_4
REMARK    4  A    between atoms: N_4  and  C_5
REMARK    5  A    between atoms: C_13  and  C_15
REMARK    6  A    between atoms: C_15  and  S_16
REMARK    7  A    between atoms: S_16  and  C_17
REMARK    8  A    between atoms: C_21  and  C_26
REMARK    9  A    between atoms: N_22  and  C_23
REMARK                            x       y       z     vdW  Elec       q    Type
REMARK                         _______ _______ _______ _____ _____    ______ ____
ROOT
ATOM      1  C   UNL     1       5.426  -1.957   1.411  0.00  0.00    +0.237 C 
ATOM      2  N   UNL     1       6.116  -1.038   0.491  0.00  0.00    -0.237 N 
ATOM      3  N   UNL     1       5.694   0.253   0.827  0.00  0.00    -0.169 NA
ATOM      4  C   UNL     1       4.847   0.232   1.822  0.00  0.00    +0.147 C 
ATOM      5  N   UNL     1       4.609  -1.076   2.262  0.00  0.00    -0.282 N 
ATOM      6  H   UNL     1       6.741  -1.280  -0.211  0.00  0.00    +0.171 HD
ENDROOT
BRANCH   4   7
ATOM      7  C   UNL     1       4.252   1.374   2.380  0.00  0.00    +0.022 C 
ATOM      8  C   UNL     1       4.367   2.689   1.931  0.00  0.00    +0.006 A 
ATOM      9  C   UNL     1       5.064   3.270   0.849  0.00  0.00    +0.010 A 
ATOM     10  C   UNL     1       4.994   4.611   0.645  0.00  0.00    +0.001 A 
ATOM     11  C   UNL     1       4.245   5.440   1.483  0.00  0.00    +0.002 A 
ATOM     12  C   UNL     1       3.551   4.950   2.540  0.00  0.00    +0.026 A 
ATOM     13  C   UNL     1       3.576   3.559   2.817  0.00  0.00    +0.043 A 
ATOM     14  N   UNL     1       2.998   2.848   3.765  0.00  0.00    -0.380 N 
ATOM     15  C   UNL     1       3.347   1.435   3.591  0.00  0.00    +0.152 C 
ATOM     16  H   UNL     1       2.428   3.203   4.464  0.00  0.00    +0.160 HD
ENDBRANCH   4   7
BRANCH   5  17
ATOM     17  C   UNL     1       3.723  -1.489   3.353  0.00  0.00    +0.078 C 
ATOM     18  C   UNL     1       3.695  -2.975   3.717  0.00  0.00    +0.024 C 
ATOM     19  C   UNL     1       2.506  -2.342   2.991  0.00  0.00    +0.024 C 
ENDBRANCH   5  17
BRANCH   1  20
ATOM     20  S   UNL     1       4.369  -3.105   0.487  0.00  0.00    -0.109 S 
BRANCH  20  21
ATOM     21  C   UNL     1       3.264  -2.020  -0.458  0.00  0.00    +0.168 C 
BRANCH  21  23
ATOM     22  N   UNL     1       1.402  -2.263  -2.069  0.00  0.00    -0.296 N 
ATOM     23  C   UNL     1       2.320  -2.858  -1.281  0.00  0.00    +0.226 C 
ATOM     24  O   UNL     1       2.386  -4.069  -1.235  0.00  0.00    -0.275 OA
BRANCH  22  25
ATOM     25  C   UNL     1       0.485  -3.078  -2.869  0.00  0.00    +0.098 C 
ATOM     26  C   UNL     1      -0.329  -4.002  -1.947  0.00  0.00    +0.046 C 
ATOM     27  C   UNL     1      -1.057  -5.078  -2.787  0.00  0.00    +0.168 C 
ATOM     28  S   UNL     1       0.042  -5.259  -4.251  0.00  0.00    -0.029 S 
ATOM     29  O   UNL     1       0.663  -6.536  -4.208  0.00  0.00    -0.174 OA
ATOM     30  O   UNL     1      -0.672  -4.868  -5.416  0.00  0.00    -0.174 OA
ATOM     31  C   UNL     1       1.296  -3.969  -3.853  0.00  0.00    +0.188 C 
ENDBRANCH  22  25
BRANCH  22  32
ATOM     32  C   UNL     1       1.322  -0.802  -2.124  0.00  0.00    +0.108 C 
BRANCH  32  34
ATOM     33  C   UNL     1       0.268   1.224  -1.110  0.00  0.00    +0.005 C 
ATOM     34  C   UNL     1       0.351  -0.303  -1.052  0.00  0.00    +0.016 C 
ENDBRANCH  32  34
ENDBRANCH  22  32
ENDBRANCH  21  23
ENDBRANCH  20  21
ENDBRANCH   1  20
TORSDOF 8
