REMARK  Name = ZINC00706395
REMARK  8 active torsions:
REMARK  status: ('A' for Active; 'I' for Inactive)
REMARK    1  A    between atoms: C_1  and  C_2
REMARK    2  A    between atoms: C_3  and  C_20
REMARK    3  A    between atoms: C_4  and  C_10
REMARK    4  A    between atoms: C_12  and  O_18
REMARK    5  A    between atoms: C_13  and  O_17
REMARK    6  A    between atoms: O_18  and  C_19
REMARK    7  A    between atoms: C_20  and  O_22
REMARK    8  A    between atoms: O_22  and  C_23
REMARK                            x       y       z     vdW  Elec       q    Type
REMARK                         _______ _______ _______ _____ _____    ______ ____
ROOT
ATOM      1  C   UNL     1      -7.788  -0.875  -1.543  0.00  0.00    +0.061 C 
ATOM      2  C   UNL     1      -7.021  -1.814  -2.439  0.00  0.00    +0.021 C 
ATOM      3  C   UNL     1      -5.684  -1.674  -2.558  0.00  0.00    +0.078 C 
ATOM      4  C   UNL     1      -4.953  -2.634  -3.475  0.00  0.00    +0.144 C 
ATOM      5  N   UNL     1      -5.766  -3.655  -4.156  0.00  0.00    -0.288 N 
ATOM      6  C   UNL     1      -7.095  -3.668  -3.936  0.00  0.00    +0.304 C 
ATOM      7  O   UNL     1      -7.776  -4.504  -4.497  0.00  0.00    -0.252 OA
ATOM      8  N   UNL     1      -7.691  -2.791  -3.118  0.00  0.00    -0.273 N 
ATOM      9  H   UNL     1      -5.355  -4.300  -4.753  0.00  0.00    +0.151 HD
ATOM     10  H   UNL     1      -8.652  -2.854  -3.001  0.00  0.00    +0.156 HD
ENDROOT
BRANCH   4  11
ATOM     11  C   UNL     1      -4.242  -1.822  -4.526  0.00  0.00    -0.018 A 
ATOM     12  C   UNL     1      -4.971  -1.159  -5.496  0.00  0.00    +0.055 A 
ATOM     13  C   UNL     1      -4.320  -0.407  -6.460  0.00  0.00    +0.163 A 
ATOM     14  C   UNL     1      -2.930  -0.330  -6.457  0.00  0.00    +0.173 A 
ATOM     15  C   UNL     1      -2.204  -1.002  -5.486  0.00  0.00    +0.063 A 
ATOM     16  C   UNL     1      -2.862  -1.747  -4.523  0.00  0.00    +0.025 A 
ATOM     17 BR   UNL     1      -0.316  -0.900  -5.478  0.00  0.00    -0.046 Br
BRANCH  14  18
ATOM     18  O   UNL     1      -2.286   0.403  -7.405  0.00  0.00    -0.503 OA
ATOM     19  H   UNL     1      -2.059  -0.097  -8.201  0.00  0.00    +0.292 HD
ENDBRANCH  14  18
BRANCH  13  20
ATOM     20  O   UNL     1      -5.036   0.251  -7.411  0.00  0.00    -0.491 OA
ATOM     21  C   UNL     1      -6.460   0.203  -7.298  0.00  0.00    +0.277 C 
ENDBRANCH  13  20
ENDBRANCH   4  11
BRANCH   3  22
ATOM     22  C   UNL     1      -4.989  -0.661  -1.855  0.00  0.00    +0.339 C 
ATOM     23  O   UNL     1      -5.607   0.175  -1.224  0.00  0.00    -0.245 OA
BRANCH  22  24
ATOM     24  O   UNL     1      -3.640  -0.624  -1.885  0.00  0.00    -0.458 OA
BRANCH  24  25
ATOM     25  C   UNL     1      -3.000   0.347  -1.054  0.00  0.00    +0.177 C 
ATOM     26  C   UNL     1      -1.634   0.703  -1.645  0.00  0.00    +0.044 C 
ATOM     27  C   UNL     1      -1.126   1.998  -1.008  0.00  0.00    +0.004 C 
ATOM     28  C   UNL     1      -0.618   1.705   0.405  0.00  0.00    +0.000 C 
ATOM     29  C   UNL     1      -1.529   2.388   1.427  0.00  0.00    +0.000 C 
ATOM     30  C   UNL     1      -2.991   2.168   1.032  0.00  0.00    +0.000 C 
ATOM     31  C   UNL     1      -3.404   0.737   1.381  0.00  0.00    +0.004 C 
ATOM     32  C   UNL     1      -2.813  -0.229   0.351  0.00  0.00    +0.044 C 
ENDBRANCH  24  25
ENDBRANCH  22  24
ENDBRANCH   3  22
TORSDOF 6
