REMARK  Name = ZINC49468511
REMARK  5 active torsions:
REMARK  status: ('A' for Active; 'I' for Inactive)
REMARK    1  A    between atoms: C_1  and  C_2
REMARK    2  A    between atoms: C_2  and  C_3
REMARK    3  A    between atoms: C_2  and  N_4
REMARK    4  A    between atoms: N_7  and  N_8
REMARK    5  A    between atoms: C_9  and  C_11
REMARK                            x       y       z     vdW  Elec       q    Type
REMARK                         _______ _______ _______ _____ _____    ______ ____
ROOT
ATOM      1  N   UNL     1      -3.940  -1.414   0.052  0.00  0.00    -0.230 N 
ATOM      2  C   UNL     1      -5.205  -1.881   0.061  0.00  0.00    +0.270 C 
ATOM      3  O   UNL     1      -5.449  -2.981  -0.386  0.00  0.00    -0.270 OA
ATOM      4  H   UNL     1      -3.745  -0.534   0.409  0.00  0.00    +0.173 HD
ENDROOT
BRANCH   2   5
ATOM      5  C   UNL     1      -6.316  -1.035   0.628  0.00  0.00    +0.264 C 
ATOM      6  C   UNL     1      -6.563   0.210  -0.257  0.00  0.00    +0.093 C 
ATOM      7  C   UNL     1      -7.659  -0.278  -1.185  0.00  0.00    -0.000 A 
ATOM      8  C   UNL     1      -8.149   0.213  -2.375  0.00  0.00    +0.027 A 
ATOM      9  C   UNL     1      -9.172  -0.453  -3.029  0.00  0.00    +0.041 A 
ATOM     10  C   UNL     1      -9.697  -1.611  -2.482  0.00  0.00    +0.023 A 
ATOM     11  C   UNL     1      -9.209  -2.101  -1.289  0.00  0.00    +0.047 A 
ATOM     12  C   UNL     1      -8.182  -1.435  -0.624  0.00  0.00    +0.125 A 
ATOM     13  O   UNL     1      -7.571  -1.732   0.561  0.00  0.00    -0.479 OA
ATOM     14 CL   UNL     1      -9.793   0.163  -4.529  0.00  0.00    -0.084 Cl
ENDBRANCH   2   5
BRANCH   1  18
ATOM     15  N   UNL     1      -1.372  -0.511   0.012  0.00  0.00    -0.296 N 
ATOM     16  C   UNL     1      -1.643  -1.734  -0.485  0.00  0.00    +0.316 C 
ATOM     17  O   UNL     1      -0.747  -2.417  -0.942  0.00  0.00    -0.251 OA
ATOM     18  N   UNL     1      -2.908  -2.201  -0.475  0.00  0.00    -0.218 N 
ATOM     19  H   UNL     1      -2.087   0.033   0.377  0.00  0.00    +0.151 HD
ATOM     20  H   UNL     1      -3.103  -3.081  -0.833  0.00  0.00    +0.174 HD
BRANCH  15  22
ATOM     21  C   UNL     1      -0.019   1.526   0.010  0.00  0.00    +0.027 C 
ATOM     22  C   UNL     1       0.002  -0.004   0.002  0.00  0.00    +0.068 C 
ATOM     23  C   UNL     1       0.742  -0.511   1.242  0.00  0.00    +0.027 C 
ENDBRANCH  15  22
ENDBRANCH   1  18
TORSDOF 3
