REMARK  Name = ZINC23359224
REMARK  10 active torsions:
REMARK  status: ('A' for Active; 'I' for Inactive)
REMARK    1  A    between atoms: C_1  and  C_2
REMARK    2  A    between atoms: C_2  and  N_3
REMARK    3  A    between atoms: N_3  and  C_4
REMARK    4  A    between atoms: N_3  and  C_6
REMARK    5  A    between atoms: C_4  and  C_5
REMARK    6  A    between atoms: N_10  and  C_12
REMARK    7  A    between atoms: C_12  and  C_13
REMARK    8  A    between atoms: C_15  and  C_18
REMARK    9  A    between atoms: C_18  and  C_23
REMARK   10  A    between atoms: C_26  and  C_29
REMARK                            x       y       z     vdW  Elec       q    Type
REMARK                         _______ _______ _______ _____ _____    ______ ____
ROOT
ATOM      1  C   UNL     1       0.835   0.444  -6.827  0.00  0.00    +0.211 A 
ATOM      2  N   UNL     1       1.683   0.532  -7.815  0.00  0.00    -0.197 NA
ATOM      3  C   UNL     1       1.285   1.474  -8.678  0.00  0.00    +0.182 A 
ATOM      4  N   UNL     1       0.174   1.999  -8.247  0.00  0.00    -0.060 NA
ATOM      5  O   UNL     1      -0.144   1.333  -7.034  0.00  0.00    -0.340 OA
ENDROOT
BRANCH   3   6
ATOM      6  C   UNL     1       2.006   1.864  -9.942  0.00  0.00    +0.059 C 
ATOM      7  C   UNL     1       3.398   2.436  -9.602  0.00  0.00    +0.019 C 
ATOM      8  C   UNL     1       3.602   3.576 -10.629  0.00  0.00    +0.001 C 
ATOM      9  C   UNL     1       2.187   4.197 -10.737  0.00  0.00    +0.001 C 
ATOM     10  C   UNL     1       1.236   2.984 -10.664  0.00  0.00    +0.019 C 
BRANCH   6  11
ATOM     11  C   UNL     1       2.145   0.667 -10.847  0.00  0.00    -0.034 A 
ATOM     12  C   UNL     1       1.562  -0.536 -10.496  0.00  0.00    +0.005 A 
ATOM     13  C   UNL     1       1.690  -1.634 -11.326  0.00  0.00    +0.003 A 
ATOM     14  C   UNL     1       2.400  -1.529 -12.507  0.00  0.00    -0.050 A 
ATOM     15  C   UNL     1       2.983  -0.325 -12.859  0.00  0.00    +0.003 A 
ATOM     16  C   UNL     1       2.851   0.774 -12.031  0.00  0.00    +0.005 A 
ATOM     17  C   UNL     1       2.540  -2.726 -13.412  0.00  0.00    +0.044 C 
ENDBRANCH   6  11
ENDBRANCH   3   6
BRANCH   1  18
ATOM     18  C   UNL     1       0.938  -0.501  -5.657  0.00  0.00    +0.022 C 
BRANCH  18  22
ATOM     19  C   UNL     1       1.253  -0.230  -2.210  0.00  0.00    +0.038 C 
ATOM     20  C   UNL     1       1.197   1.289  -2.520  0.00  0.00    -0.002 C 
ATOM     21  C   UNL     1       0.912   1.287  -4.043  0.00  0.00    -0.077 C 
ATOM     22  N   UNL     1       1.687   0.144  -4.571  0.00  0.00    +0.387 N 
ATOM     23  C   UNL     1       1.903  -0.824  -3.477  0.00  0.00    -0.059 C 
ATOM     24  H   UNL     1       2.576   0.470  -4.919  0.00  0.00    -0.081 HD
BRANCH  19  25
ATOM     25  N   UNL     1       2.086  -0.488  -1.028  0.00  0.00    -0.302 NA
BRANCH  25  27
ATOM     26  C   UNL     1       0.164  -0.169   0.455  0.00  0.00    +0.020 C 
ATOM     27  C   UNL     1       1.597   0.262   0.136  0.00  0.00    +0.081 C 
ENDBRANCH  25  27
BRANCH  25  28
ATOM     28  C   UNL     1       2.154  -1.927  -0.736  0.00  0.00    +0.081 C 
ATOM     29  C   UNL     1       3.217  -2.180   0.334  0.00  0.00    +0.020 C 
ENDBRANCH  25  28
ENDBRANCH  19  25
ENDBRANCH  18  22
ENDBRANCH   1  18
TORSDOF 7
