REMARK  Name = ZINC09389824
REMARK  8 active torsions:
REMARK  status: ('A' for Active; 'I' for Inactive)
REMARK    1  A    between atoms: C_1  and  O_2
REMARK    2  A    between atoms: O_2  and  C_3
REMARK    3  A    between atoms: C_3  and  C_4
REMARK    4  A    between atoms: C_4  and  C_5
REMARK    5  A    between atoms: C_5  and  N_6
REMARK    6  A    between atoms: C_7  and  C_9
REMARK    7  A    between atoms: C_9  and  N_66
REMARK    8  A    between atoms: C_22  and  C_24
REMARK                            x       y       z     vdW  Elec       q    Type
REMARK                         _______ _______ _______ _____ _____    ______ ____
ROOT
ATOM      1  C   UNL     1       0.768   1.461   0.054  0.00  0.00    -0.059 C 
ATOM      2  C   UNL     1       0.281   2.011  -1.288  0.00  0.00    +0.088 C 
ATOM      3  N   UNL     1      -0.247   3.369  -1.095  0.00  0.00    -0.318 N 
ATOM      4  C   UNL     1      -1.360   3.368  -0.136  0.00  0.00    +0.088 C 
ATOM      5  C   UNL     1      -0.872   2.817   1.206  0.00  0.00    -0.059 C 
ATOM      6  C   UNL     1      -0.632   3.927  -2.301  0.00  0.00    +0.134 A 
ATOM      7  C   UNL     1      -0.434   5.315  -2.548  0.00  0.00    +0.051 A 
ATOM      8  C   UNL     1       0.167   6.323  -1.673  0.00  0.00    -0.025 A 
ATOM      9  C   UNL     1       0.244   7.582  -2.152  0.00  0.00    -0.004 A 
ATOM     10  S   UNL     1      -0.462   7.503  -3.776  0.00  0.00    -0.073 S 
ATOM     11  C   UNL     1      -0.861   5.776  -3.811  0.00  0.00    +0.114 A 
ATOM     12  N   UNL     1      -1.413   4.965  -4.691  0.00  0.00    -0.220 NA
ATOM     13  C   UNL     1      -1.577   3.680  -4.404  0.00  0.00    +0.164 A 
ATOM     14  N   UNL     1      -1.193   3.179  -3.234  0.00  0.00    -0.212 NA
ATOM     15  C   UNL     1       0.807   8.784  -1.456  0.00  0.00    +0.043 C 
ATOM     16  C   UNL     1       0.952   8.456   0.037  0.00  0.00    +0.005 C 
ATOM     17  C   UNL     1       1.635   7.093   0.177  0.00  0.00    +0.005 C 
ATOM     18  C   UNL     1       0.683   5.986  -0.277  0.00  0.00    +0.037 C 
ATOM     19  N   UNL     1      -0.365   1.444   1.003  0.00  0.00    +0.387 N 
ATOM     20  H   UNL     1      -1.118   0.864   0.613  0.00  0.00    -0.081 HD
ENDROOT
BRANCH  13  21
ATOM     21  C   UNL     1      -2.201   2.785  -5.409  0.00  0.00    +0.037 A 
ATOM     22  C   UNL     1      -2.619   3.287  -6.645  0.00  0.00    +0.014 A 
ATOM     23  C   UNL     1      -3.191   2.410  -7.550  0.00  0.00    +0.020 A 
ATOM     24  C   UNL     1      -3.339   1.079  -7.202  0.00  0.00    +0.111 A 
ATOM     25  N   UNL     1      -2.940   0.636  -6.026  0.00  0.00    -0.263 NA
ATOM     26  C   UNL     1      -2.386   1.431  -5.134  0.00  0.00    +0.122 A 
ENDBRANCH  13  21
BRANCH  19  27
ATOM     27  C   UNL     1       0.065   0.867   2.295  0.00  0.00    +0.019 C 
BRANCH  27  29
ATOM     28  N   UNL     1       0.909  -1.312   3.107  0.00  0.00    -0.317 N 
ATOM     29  C   UNL     1       0.399  -0.589   2.091  0.00  0.00    +0.196 C 
ATOM     30  O   UNL     1       0.208  -1.109   1.012  0.00  0.00    -0.278 OA
ATOM     31  H   UNL     1       1.062  -0.895   3.970  0.00  0.00    +0.149 HD
BRANCH  28  32
ATOM     32  C   UNL     1       1.233  -2.726   2.909  0.00  0.00    +0.106 C 
BRANCH  32  33
ATOM     33  C   UNL     1       1.792  -3.308   4.209  0.00  0.00    +0.047 C 
BRANCH  33  34
ATOM     34  C   UNL     1       2.131  -4.786   4.003  0.00  0.00    +0.161 C 
BRANCH  34  36
ATOM     35  C   UNL     1       3.003  -6.712   5.131  0.00  0.00    +0.193 C 
ATOM     36  O   UNL     1       2.653  -5.329   5.217  0.00  0.00    -0.383 OA
ENDBRANCH  34  36
ENDBRANCH  33  34
ENDBRANCH  32  33
ENDBRANCH  28  32
ENDBRANCH  27  29
ENDBRANCH  19  27
TORSDOF 7
