REMARK  Name = ZINC14475938
REMARK  7 active torsions:
REMARK  status: ('A' for Active; 'I' for Inactive)
REMARK    1  A    between atoms: C_4  and  C_7
REMARK    2  A    between atoms: C_7  and  C_8
REMARK    3  A    between atoms: C_8  and  N_9
REMARK    4  A    between atoms: C_10  and  C_12
REMARK    5  A    between atoms: C_19  and  C_28
REMARK    6  A    between atoms: C_30  and  N_35
REMARK    7  A    between atoms: C_33  and  O_34
REMARK                            x       y       z     vdW  Elec       q    Type
REMARK                         _______ _______ _______ _____ _____    ______ ____
ROOT
ATOM      1  C   UNL     1       7.337  -2.733   2.524  0.00  0.00    +0.058 A 
ATOM      2  C   UNL     1       7.885  -3.155   1.311  0.00  0.00    +0.015 A 
ATOM      3  C   UNL     1       9.086  -3.828   1.296  0.00  0.00    +0.001 A 
ATOM      4  C   UNL     1       9.750  -4.097   2.483  0.00  0.00    +0.006 A 
ATOM      5  C   UNL     1       9.224  -3.693   3.689  0.00  0.00    -0.019 A 
ATOM      6  C   UNL     1       8.014  -2.989   3.727  0.00  0.00    +0.044 A 
ATOM      7  N   UNL     1       7.476  -2.525   4.924  0.00  0.00    -0.336 N 
ATOM      8  C   UNL     1       8.146  -2.781   6.218  0.00  0.00    +0.108 C 
ATOM      9  C   UNL     1       9.635  -2.752   5.922  0.00  0.00    +0.029 C 
ATOM     10  C   UNL     1       9.886  -3.978   4.980  0.00  0.00    +0.049 C 
ATOM     11  C   UNL     1      11.354  -4.182   5.084  0.00  0.00    -0.023 C 
ATOM     12  C   UNL     1      11.757  -3.758   6.276  0.00  0.00    -0.030 C 
ATOM     13  C   UNL     1      10.583  -3.147   7.062  0.00  0.00    +0.033 C 
ATOM     14  H   UNL     1       6.646  -2.024   4.909  0.00  0.00    +0.147 HD
ENDROOT
BRANCH   8  15
ATOM     15  C   UNL     1       7.789  -1.704   7.210  0.00  0.00    +0.017 A 
ATOM     16  C   UNL     1       7.302  -0.489   6.766  0.00  0.00    +0.041 A 
ATOM     17  C   UNL     1       6.975   0.499   7.676  0.00  0.00    +0.127 A 
ATOM     18  C   UNL     1       7.134   0.275   9.031  0.00  0.00    +0.036 A 
ATOM     19  C   UNL     1       7.620  -0.937   9.479  0.00  0.00    +0.048 A 
ATOM     20  C   UNL     1       7.944  -1.933   8.569  0.00  0.00    +0.122 A 
BRANCH  17  21
ATOM     21  N   UNL     1       6.454   1.800   7.198  0.00  0.00    +0.056 N 
ATOM     22  O   UNL     1       6.315   1.997   6.013  0.00  0.00    -0.126 OA
ATOM     23  O   UNL     1       6.167   2.665   7.992  0.00  0.00    -0.126 OA
ENDBRANCH  17  21
BRANCH  20  24
ATOM     24  O   UNL     1       8.418  -3.129   9.008  0.00  0.00    -0.506 OA
ATOM     25  H   UNL     1       9.381  -3.163   9.093  0.00  0.00    +0.292 HD
ENDBRANCH  20  24
ENDBRANCH   8  15
BRANCH   1  27
ATOM     26  N   UNL     1       5.466  -1.650   1.382  0.00  0.00    -0.311 N 
ATOM     27  C   UNL     1       6.050  -2.013   2.541  0.00  0.00    +0.246 C 
ATOM     28  O   UNL     1       5.516  -1.747   3.601  0.00  0.00    -0.270 OA
ATOM     29  H   UNL     1       5.891  -1.863   0.537  0.00  0.00    +0.149 HD
BRANCH  26  30
ATOM     30  C   UNL     1       4.187  -0.935   1.399  0.00  0.00    +0.109 C 
BRANCH  30  31
ATOM     31  C   UNL     1       3.746  -0.644  -0.037  0.00  0.00    +0.054 C 
BRANCH  31  35
ATOM     32  C   UNL     1       0.018   1.441   0.011  0.00  0.00    +0.000 A 
ATOM     33  C   UNL     1       1.206   2.148   0.036  0.00  0.00    +0.000 A 
ATOM     34  C   UNL     1       2.413   1.473   0.021  0.00  0.00    +0.004 A 
ATOM     35  C   UNL     1       2.431   0.091  -0.019  0.00  0.00    -0.046 A 
ATOM     36  C   UNL     1       1.244  -0.616  -0.044  0.00  0.00    +0.004 A 
ATOM     37  C   UNL     1       0.037   0.059  -0.030  0.00  0.00    +0.000 A 
ENDBRANCH  31  35
ENDBRANCH  30  31
ENDBRANCH  26  30
ENDBRANCH   1  27
TORSDOF 7
