REMARK  Name = ZINC39422367
REMARK  5 active torsions:
REMARK  status: ('A' for Active; 'I' for Inactive)
REMARK    1  A    between atoms: C_4  and  C_7
REMARK    2  A    between atoms: C_7  and  C_9
REMARK    3  A    between atoms: C_14  and  C_19
REMARK    4  A    between atoms: C_19  and  S_20
REMARK    5  A    between atoms: S_20  and  C_21
REMARK                            x       y       z     vdW  Elec       q    Type
REMARK                         _______ _______ _______ _____ _____    ______ ____
ROOT
ATOM      1  C   UNL     1       3.778  -2.156   0.049  0.00  0.00    +0.024 A 
ATOM      2  C   UNL     1       2.546  -2.940   0.043  0.00  0.00    +0.014 A 
ATOM      3  C   UNL     1       2.557  -4.283   0.119  0.00  0.00    +0.028 A 
ATOM      4  C   UNL     1       3.834  -5.003   0.211  0.00  0.00    +0.060 A 
ATOM      5  N   UNL     1       4.120  -6.272   0.295  0.00  0.00    -0.363 N 
ATOM      6  C   UNL     1       5.582  -6.391   0.360  0.00  0.00    +0.184 C 
ATOM      7  N   UNL     1       6.111  -5.023   0.304  0.00  0.00    -0.363 N 
ATOM      8  C   UNL     1       5.095  -4.213   0.217  0.00  0.00    +0.061 A 
ATOM      9  C   UNL     1       5.002  -2.749   0.126  0.00  0.00    +0.039 A 
ATOM     10  H   UNL     1       7.047  -4.768   0.327  0.00  0.00    +0.162 HD
ATOM     11  H   UNL     1       3.484  -7.004   0.311  0.00  0.00    +0.162 HD
ENDROOT
BRANCH   1  12
ATOM     12  C   UNL     1       3.695  -0.683  -0.038  0.00  0.00    +0.193 C 
ATOM     13  O   UNL     1       4.548  -0.061  -0.641  0.00  0.00    -0.287 OA
BRANCH  12  17
ATOM     14  C   UNL     1       0.479   1.376   1.820  0.00  0.00    +0.000 A 
ATOM     15  C   UNL     1       0.644   0.019   2.035  0.00  0.00    +0.001 A 
ATOM     16  C   UNL     1       1.686  -0.656   1.435  0.00  0.00    +0.012 A 
ATOM     17  C   UNL     1       2.576   0.033   0.608  0.00  0.00    +0.022 A 
ATOM     18  C   UNL     1       2.404   1.403   0.395  0.00  0.00    +0.012 A 
ATOM     19  C   UNL     1       1.358   2.065   1.003  0.00  0.00    +0.001 A 
ENDBRANCH  12  17
ENDBRANCH   1  12
BRANCH   6  20
ATOM     20  C   UNL     1       5.996  -7.062   1.671  0.00  0.00    +0.121 C 
BRANCH  20  21
ATOM     21  S   UNL     1       5.380  -6.087   3.071  0.00  0.00    -0.094 S 
BRANCH  21  22
ATOM     22  C   UNL     1       5.948  -7.005   4.529  0.00  0.00    +0.322 C 
ATOM     23  N   UNL     1       5.408  -8.371   4.509  0.00  0.00    -0.298 N 
ATOM     24  C   UNL     1       6.515  -9.230   4.470  0.00  0.00    +0.073 A 
ATOM     25  C   UNL     1       6.593 -10.616   4.438  0.00  0.00    +0.027 A 
ATOM     26  C   UNL     1       7.826 -11.239   4.402  0.00  0.00    +0.002 A 
ATOM     27  C   UNL     1       8.983 -10.482   4.399  0.00  0.00    +0.004 A 
ATOM     28  C   UNL     1       8.913  -9.103   4.430  0.00  0.00    +0.047 A 
ATOM     29  C   UNL     1       7.678  -8.467   4.466  0.00  0.00    +0.145 A 
ATOM     30  O   UNL     1       7.371  -7.141   4.501  0.00  0.00    -0.460 OA
ATOM     31  H   UNL     1       4.472  -8.627   4.520  0.00  0.00    +0.150 HD
ENDBRANCH  21  22
ENDBRANCH  20  21
ENDBRANCH   6  20
TORSDOF 5
