REMARK  Name = ZINC09477206
REMARK  11 active torsions:
REMARK  status: ('A' for Active; 'I' for Inactive)
REMARK    1  A    between atoms: C_1  and  C_2
REMARK    2  A    between atoms: C_5  and  C_27
REMARK    3  A    between atoms: C_6  and  C_8
REMARK    4  A    between atoms: C_8  and  S_9
REMARK    5  A    between atoms: S_9  and  C_10
REMARK    6  A    between atoms: C_13  and  C_22
REMARK    7  A    between atoms: N_14  and  C_15
REMARK    8  A    between atoms: C_22  and  C_24
REMARK    9  A    between atoms: C_22  and  N_52
REMARK   10  A    between atoms: C_25  and  N_52
REMARK   11  A    between atoms: C_26  and  N_52
REMARK                            x       y       z     vdW  Elec       q    Type
REMARK                         _______ _______ _______ _____ _____    ______ ____
ROOT
ATOM      1  C   UNL     1      -3.318  -1.966  -1.392  0.00  0.00    +0.196 A 
ATOM      2  N   UNL     1      -3.816  -2.282  -0.219  0.00  0.00    -0.122 NA
ATOM      3  N   UNL     1      -4.916  -2.930  -0.371  0.00  0.00    -0.135 NA
ATOM      4  C   UNL     1      -5.181  -3.073  -1.639  0.00  0.00    +0.125 A 
ATOM      5  N   UNL     1      -4.173  -2.464  -2.337  0.00  0.00    -0.275 N 
ENDROOT
BRANCH   5   6
ATOM      6  C   UNL     1      -4.043  -2.370  -3.731  0.00  0.00    +0.050 A 
ATOM      7  C   UNL     1      -4.973  -1.652  -4.469  0.00  0.00    +0.029 A 
ATOM      8  C   UNL     1      -4.841  -1.556  -5.840  0.00  0.00    +0.040 A 
ATOM      9  C   UNL     1      -3.787  -2.187  -6.481  0.00  0.00    +0.124 A 
ATOM     10  C   UNL     1      -2.861  -2.909  -5.747  0.00  0.00    +0.040 A 
ATOM     11  C   UNL     1      -2.987  -3.002  -4.374  0.00  0.00    +0.029 A 
ATOM     12  F   UNL     1      -3.662  -2.097  -7.823  0.00  0.00    -0.205 F 
ENDBRANCH   5   6
BRANCH   4  13
ATOM     13  C   UNL     1      -6.376  -3.779  -2.227  0.00  0.00    -0.003 C 
ATOM     14  C   UNL     1      -7.617  -2.898  -2.069  0.00  0.00    -0.005 C 
BRANCH  13  17
ATOM     15  C   UNL     1      -6.969  -4.827  -0.127  0.00  0.00    -0.096 C 
ATOM     16  C   UNL     1      -7.587  -5.875  -2.220  0.00  0.00    -0.096 C 
ATOM     17  N   UNL     1      -6.561  -5.067  -1.527  0.00  0.00    +0.382 N 
ATOM     18  H   UNL     1      -5.672  -5.581  -1.532  0.00  0.00    -0.082 HD
ENDBRANCH  13  17
ENDBRANCH   4  13
BRANCH   1  19
ATOM     19  S   UNL     1      -1.828  -1.075  -1.692  0.00  0.00    -0.081 S 
BRANCH  19  20
ATOM     20  C   UNL     1      -1.293  -0.775   0.011  0.00  0.00    +0.112 C 
BRANCH  20  26
ATOM     21  C   UNL     1       1.150   3.592   0.010  0.00  0.00    +0.044 C 
ATOM     22  C   UNL     1       1.171   2.086   0.002  0.00  0.00    -0.050 A 
ATOM     23  C   UNL     1       2.377   1.411  -0.015  0.00  0.00    +0.003 A 
ATOM     24  C   UNL     1       2.396   0.029  -0.022  0.00  0.00    +0.004 A 
ATOM     25  C   UNL     1       1.208  -0.679  -0.013  0.00  0.00    -0.046 A 
ATOM     26  C   UNL     1       0.002  -0.004   0.002  0.00  0.00    -0.034 A 
ATOM     27  C   UNL     1      -0.017   1.378   0.010  0.00  0.00    +0.008 A 
ATOM     28  C   UNL     1       1.229  -2.186  -0.021  0.00  0.00    +0.044 C 
ENDBRANCH  20  26
ENDBRANCH  19  20
ENDBRANCH   1  19
TORSDOF 6
