REMARK  Name = ZINC39356966
REMARK  8 active torsions:
REMARK  status: ('A' for Active; 'I' for Inactive)
REMARK    1  A    between atoms: C_4  and  C_7
REMARK    2  A    between atoms: C_10  and  C_13
REMARK    3  A    between atoms: C_13  and  N_14
REMARK    4  A    between atoms: C_15  and  C_17
REMARK    5  A    between atoms: C_17  and  C_18
REMARK    6  A    between atoms: C_18  and  C_19
REMARK    7  A    between atoms: C_19  and  C_25
REMARK    8  A    between atoms: C_25  and  C_26
REMARK                            x       y       z     vdW  Elec       q    Type
REMARK                         _______ _______ _______ _____ _____    ______ ____
ROOT
ATOM      1  N   UNL     1       5.826  -4.439  -1.083  0.00  0.00    -0.310 N 
ATOM      2  C   UNL     1       6.166  -5.263  -2.094  0.00  0.00    +0.213 C 
ATOM      3  O   UNL     1       5.393  -5.450  -3.010  0.00  0.00    -0.276 OA
ATOM      4  H   UNL     1       6.444  -4.289  -0.350  0.00  0.00    +0.149 HD
ENDROOT
BRANCH   1   5
ATOM      5  C   UNL     1       4.522  -3.771  -1.090  0.00  0.00    +0.161 C 
BRANCH   5   8
ATOM      6  C   UNL     1       4.187  -1.213   1.602  0.00  0.00    +0.153 C 
ATOM      7  C   UNL     1       4.298  -1.582   0.133  0.00  0.00    +0.030 C 
ATOM      8  C   UNL     1       4.391  -2.913   0.143  0.00  0.00    +0.076 C 
ATOM      9  N   UNL     1       4.351  -3.389   1.407  0.00  0.00    -0.181 NA
ATOM     10  N   UNL     1       4.242  -2.519   2.281  0.00  0.00    -0.297 N 
ATOM     11  H   UNL     1       4.199  -2.668   3.238  0.00  0.00    +0.183 HD
BRANCH   6  15
ATOM     12  C   UNL     1       0.473   0.746   2.390  0.00  0.00    +0.000 A 
ATOM     13  C   UNL     1       1.637   1.485   2.289  0.00  0.00    +0.000 A 
ATOM     14  C   UNL     1       2.839   0.851   2.034  0.00  0.00    +0.006 A 
ATOM     15  C   UNL     1       2.877  -0.522   1.881  0.00  0.00    -0.020 A 
ATOM     16  C   UNL     1       1.713  -1.262   1.982  0.00  0.00    +0.006 A 
ATOM     17  C   UNL     1       0.511  -0.627   2.236  0.00  0.00    +0.000 A 
ENDBRANCH   6  15
ENDBRANCH   5   8
ENDBRANCH   1   5
BRANCH   2  18
ATOM     18  C   UNL     1       7.507  -5.950  -2.087  0.00  0.00    +0.098 C 
BRANCH  18  19
ATOM     19  C   UNL     1       7.640  -6.821  -3.338  0.00  0.00    +0.035 C 
BRANCH  19  20
ATOM     20  C   UNL     1       9.031  -7.458  -3.370  0.00  0.00    +0.039 C 
ATOM     21  C   UNL     1       9.122  -8.486  -4.520  0.00  0.00    +0.035 C 
ATOM     22  C   UNL     1       8.753  -9.802  -3.796  0.00  0.00    +0.098 C 
ATOM     23  C   UNL     1       9.113  -9.542  -2.350  0.00  0.00    +0.214 C 
ATOM     24  O   UNL     1       9.243 -10.400  -1.502  0.00  0.00    -0.276 OA
ATOM     25  N   UNL     1       9.267  -8.224  -2.141  0.00  0.00    -0.309 N 
ATOM     26  H   UNL     1       9.505  -7.829  -1.287  0.00  0.00    +0.149 HD
BRANCH  20  27
ATOM     27  C   UNL     1      10.103  -6.379  -3.537  0.00  0.00    +0.061 C 
BRANCH  27  28
ATOM     28  C   UNL     1      11.469  -7.011  -3.458  0.00  0.00    -0.038 A 
ATOM     29  C   UNL     1      12.064  -7.244  -2.232  0.00  0.00    +0.011 A 
ATOM     30  C   UNL     1      13.293  -7.815  -2.196  0.00  0.00    +0.045 A 
ATOM     31  S   UNL     1      13.646  -8.041  -3.932  0.00  0.00    -0.105 S 
ATOM     32  C   UNL     1      12.129  -7.365  -4.587  0.00  0.00    +0.049 A 
ENDBRANCH  27  28
ENDBRANCH  20  27
ENDBRANCH  19  20
ENDBRANCH  18  19
ENDBRANCH   2  18
TORSDOF 8
