REMARK  Name = ZINC63138991
REMARK  7 active torsions:
REMARK  status: ('A' for Active; 'I' for Inactive)
REMARK    1  A    between atoms: C_1  and  C_2
REMARK    2  A    between atoms: C_2  and  C_3
REMARK    3  A    between atoms: C_3  and  C_4
REMARK    4  A    between atoms: C_4  and  N_5
REMARK    5  A    between atoms: C_25  and  C_27
REMARK    6  A    between atoms: C_27  and  C_28
REMARK    7  A    between atoms: C_28  and  C_29
REMARK                            x       y       z     vdW  Elec       q    Type
REMARK                         _______ _______ _______ _____ _____    ______ ____
ROOT
ATOM      1  N   UNL     1       1.425  -2.500  -2.470  0.00  0.00    -0.291 N 
ATOM      2  C   UNL     1       0.695  -2.755  -3.726  0.00  0.00    +0.203 C 
ATOM      3  C   UNL     1       1.473  -2.136  -4.868  0.00  0.00    +0.234 C 
ATOM      4  O   UNL     1       0.920  -1.501  -5.742  0.00  0.00    -0.274 OA
ATOM      5  N   UNL     1       2.833  -2.326  -4.869  0.00  0.00    -0.283 N 
ATOM      6  C   UNL     1       3.343  -3.171  -3.809  0.00  0.00    +0.167 C 
ATOM      7  C   UNL     1       2.773  -2.720  -2.489  0.00  0.00    +0.237 C 
ATOM      8  O   UNL     1       3.465  -2.567  -1.505  0.00  0.00    -0.274 OA
ATOM      9  C   UNL     1       4.829  -3.411  -3.740  0.00  0.00    +0.065 C 
ATOM     10  C   UNL     1       5.540  -2.503  -4.704  0.00  0.00    -0.034 C 
ATOM     11  C   UNL     1       6.665  -1.807  -4.607  0.00  0.00    -0.001 A 
ATOM     12  C   UNL     1       7.661  -1.699  -3.528  0.00  0.00    +0.010 A 
ATOM     13  C   UNL     1       8.711  -0.869  -3.762  0.00  0.00    +0.001 A 
ATOM     14  C   UNL     1       8.869  -0.143  -4.947  0.00  0.00    +0.002 A 
ATOM     15  C   UNL     1       8.005  -0.185  -5.992  0.00  0.00    +0.026 A 
ATOM     16  C   UNL     1       6.862  -1.027  -5.866  0.00  0.00    +0.043 A 
ATOM     17  N   UNL     1       5.895  -1.261  -6.702  0.00  0.00    -0.376 N 
ATOM     18  C   UNL     1       4.976  -2.235  -6.098  0.00  0.00    +0.127 C 
ATOM     19  C   UNL     1       3.598  -1.626  -5.891  0.00  0.00    +0.104 C 
ATOM     20  H   UNL     1       5.796  -0.859  -7.579  0.00  0.00    +0.160 HD
ENDROOT
BRANCH   1  21
ATOM     21  C   UNL     1       0.739  -2.027  -1.265  0.00  0.00    +0.108 C 
BRANCH  21  22
ATOM     22  C   UNL     1       0.718  -0.497  -1.257  0.00  0.00    +0.019 C 
BRANCH  22  24
ATOM     23  C   UNL     1      -0.019   1.526   0.010  0.00  0.00    +0.004 C 
ATOM     24  C   UNL     1       0.002  -0.004   0.002  0.00  0.00    -0.002 C 
ENDBRANCH  22  24
ENDBRANCH  21  22
ENDBRANCH   1  21
BRANCH  19  25
ATOM     25  C   UNL     1       3.799  -0.173  -5.455  0.00  0.00    +0.029 C 
BRANCH  25  26
ATOM     26  C   UNL     1       2.443   0.534  -5.400  0.00  0.00    +0.037 C 
BRANCH  26  27
ATOM     27  C   UNL     1       2.641   1.965  -4.970  0.00  0.00    -0.047 A 
ATOM     28  C   UNL     1       2.613   2.294  -3.628  0.00  0.00    +0.003 A 
ATOM     29  C   UNL     1       2.795   3.607  -3.234  0.00  0.00    +0.000 A 
ATOM     30  C   UNL     1       3.004   4.591  -4.183  0.00  0.00    +0.000 A 
ATOM     31  C   UNL     1       3.032   4.261  -5.525  0.00  0.00    +0.000 A 
ATOM     32  C   UNL     1       2.855   2.948  -5.919  0.00  0.00    +0.003 A 
ENDBRANCH  26  27
ENDBRANCH  25  26
ENDBRANCH  19  25
TORSDOF 6
