REMARK  Name = ZINC65127858
REMARK  7 active torsions:
REMARK  status: ('A' for Active; 'I' for Inactive)
REMARK    1  A    between atoms: C_1  and  C_2
REMARK    2  A    between atoms: C_2  and  C_3
REMARK    3  A    between atoms: C_3  and  C_4
REMARK    4  A    between atoms: C_4  and  C_5
REMARK    5  A    between atoms: C_5  and  N_6
REMARK    6  A    between atoms: N_9  and  N_10
REMARK    7  A    between atoms: C_11  and  C_13
REMARK                            x       y       z     vdW  Elec       q    Type
REMARK                         _______ _______ _______ _____ _____    ______ ____
ROOT
ATOM      1  N   UNL     1      -2.745  -6.779  -0.008  0.00  0.00    -0.228 N 
ATOM      2  C   UNL     1      -2.727  -8.127  -0.015  0.00  0.00    +0.278 C 
ATOM      3  O   UNL     1      -3.772  -8.749  -0.009  0.00  0.00    -0.267 OA
ATOM      4  H   UNL     1      -1.912  -6.283  -0.013  0.00  0.00    +0.173 HD
ENDROOT
BRANCH   2   5
ATOM      5  C   UNL     1      -1.445  -8.844  -0.032  0.00  0.00    +0.118 A 
ATOM      6  C   UNL     1      -1.297 -10.196  -0.046  0.00  0.00    +0.055 A 
ATOM      7  C   UNL     1       0.091 -10.478  -0.060  0.00  0.00    +0.014 A 
ATOM      8  C   UNL     1       0.831 -11.667  -0.077  0.00  0.00    +0.011 A 
ATOM      9  C   UNL     1       2.194 -11.619  -0.086  0.00  0.00    +0.001 A 
ATOM     10  C   UNL     1       2.859 -10.399  -0.078  0.00  0.00    +0.002 A 
ATOM     11  C   UNL     1       2.155  -9.216  -0.062  0.00  0.00    +0.026 A 
ATOM     12  C   UNL     1       0.762  -9.239  -0.052  0.00  0.00    +0.048 A 
ATOM     13  N   UNL     1      -0.195  -8.252  -0.040  0.00  0.00    -0.350 N 
ATOM     14  H   UNL     1      -0.022  -7.298  -0.036  0.00  0.00    +0.166 HD
ATOM     15 BR   UNL     1      -2.694 -11.470  -0.048  0.00  0.00    -0.047 Br
ENDBRANCH   2   5
BRANCH   1  19
ATOM     16  N   UNL     1      -2.828  -4.058   0.007  0.00  0.00    -0.298 N 
ATOM     17  C   UNL     1      -3.986  -4.748   0.015  0.00  0.00    +0.316 C 
ATOM     18  O   UNL     1      -5.047  -4.154   0.028  0.00  0.00    -0.251 OA
ATOM     19  N   UNL     1      -3.968  -6.095   0.007  0.00  0.00    -0.218 N 
ATOM     20  H   UNL     1      -1.982  -4.531  -0.003  0.00  0.00    +0.150 HD
ATOM     21  H   UNL     1      -4.801  -6.592   0.013  0.00  0.00    +0.174 HD
BRANCH  16  22
ATOM     22  C   UNL     1      -2.848  -2.593   0.015  0.00  0.00    +0.106 C 
BRANCH  22  23
ATOM     23  C   UNL     1      -1.413  -2.063   0.004  0.00  0.00    +0.019 C 
BRANCH  23  24
ATOM     24  C   UNL     1      -1.433  -0.534   0.013  0.00  0.00    +0.001 C 
BRANCH  24  26
ATOM     25  C   UNL     1      -0.019   1.526   0.010  0.00  0.00    +0.004 C 
ATOM     26  C   UNL     1       0.002  -0.004   0.002  0.00  0.00    -0.003 C 
ENDBRANCH  24  26
ENDBRANCH  23  24
ENDBRANCH  22  23
ENDBRANCH  16  22
ENDBRANCH   1  19
TORSDOF 6
