REMARK  Name = ZINC16161827
REMARK  9 active torsions:
REMARK  status: ('A' for Active; 'I' for Inactive)
REMARK    1  A    between atoms: C_1  and  C_2
REMARK    2  A    between atoms: C_2  and  C_3
REMARK    3  A    between atoms: C_6  and  N_9
REMARK    4  A    between atoms: N_9  and  C_10
REMARK    5  A    between atoms: C_16  and  C_17
REMARK    6  A    between atoms: C_19  and  O_25
REMARK    7  A    between atoms: C_20  and  O_24
REMARK    8  A    between atoms: O_25  and  C_26
REMARK    9  A    between atoms: C_26  and  C_27
REMARK                            x       y       z     vdW  Elec       q    Type
REMARK                         _______ _______ _______ _____ _____    ______ ____
ROOT
ATOM      1  C   UNL     1      -5.352   4.465   8.322  0.00  0.00    +0.224 C 
ATOM      2  N   UNL     1      -4.028   5.088   8.482  0.00  0.00    -0.284 N 
ATOM      3  C   UNL     1      -3.091   4.795   7.598  0.00  0.00    +0.252 C 
ATOM      4  O   UNL     1      -1.982   5.286   7.692  0.00  0.00    -0.270 OA
ATOM      5  C   UNL     1      -3.402   3.866   6.497  0.00  0.00    +0.073 C 
ATOM      6  C   UNL     1      -2.595   3.438   5.497  0.00  0.00    +0.028 C 
ATOM      7  S   UNL     1      -5.112   3.452   6.806  0.00  0.00    -0.078 S 
ATOM      8  H   UNL     1      -3.848   5.696   9.216  0.00  0.00    +0.152 HD
ENDROOT
BRANCH   6   9
ATOM      9  C   UNL     1      -3.053   2.382   4.583  0.00  0.00    -0.019 A 
ATOM     10  C   UNL     1      -2.430   2.209   3.342  0.00  0.00    +0.057 A 
ATOM     11  C   UNL     1      -2.869   1.218   2.485  0.00  0.00    +0.163 A 
ATOM     12  C   UNL     1      -3.922   0.386   2.862  0.00  0.00    +0.173 A 
ATOM     13  C   UNL     1      -4.537   0.553   4.095  0.00  0.00    +0.063 A 
ATOM     14  C   UNL     1      -4.109   1.543   4.955  0.00  0.00    +0.027 A 
ATOM     15 BR   UNL     1      -5.965  -0.581   4.599  0.00  0.00    -0.046 Br
BRANCH  12  16
ATOM     16  O   UNL     1      -4.348  -0.591   2.019  0.00  0.00    -0.503 OA
ATOM     17  H   UNL     1      -3.897  -1.438   2.138  0.00  0.00    +0.292 HD
ENDBRANCH  12  16
BRANCH  11  18
ATOM     18  O   UNL     1      -2.270   1.051   1.276  0.00  0.00    -0.489 OA
BRANCH  18  19
ATOM     19  C   UNL     1      -1.197   1.938   0.955  0.00  0.00    +0.226 C 
ATOM     20  C   UNL     1      -0.652   1.599  -0.434  0.00  0.00    +0.048 C 
ENDBRANCH  18  19
ENDBRANCH  11  18
ENDBRANCH   6   9
BRANCH   1  21
ATOM     21  N   UNL     1      -6.386   5.481   8.108  0.00  0.00    -0.317 N 
ATOM     22  H   UNL     1      -6.134   6.387   7.873  0.00  0.00    +0.149 HD
BRANCH  21  26
ATOM     23  C   UNL     1     -10.406   4.476   8.514  0.00  0.00    -0.048 A 
ATOM     24  C   UNL     1     -10.049   5.769   8.178  0.00  0.00    +0.005 A 
ATOM     25  C   UNL     1      -8.716   6.106   8.043  0.00  0.00    +0.023 A 
ATOM     26  C   UNL     1      -7.734   5.144   8.245  0.00  0.00    +0.029 A 
ATOM     27  C   UNL     1      -8.097   3.845   8.577  0.00  0.00    +0.023 A 
ATOM     28  C   UNL     1      -9.432   3.516   8.715  0.00  0.00    +0.005 A 
BRANCH  23  30
ATOM     29  C   UNL     1     -12.407   3.641   7.311  0.00  0.00    +0.009 C 
ATOM     30  C   UNL     1     -11.861   4.112   8.660  0.00  0.00    +0.032 C 
ENDBRANCH  23  30
ENDBRANCH  21  26
ENDBRANCH   1  21
TORSDOF 7
