REMARK  Name = ZINC01869696
REMARK  5 active torsions:
REMARK  status: ('A' for Active; 'I' for Inactive)
REMARK    1  A    between atoms: N_11  and  C_12
REMARK    2  A    between atoms: C_17  and  C_18
REMARK    3  A    between atoms: C_17  and  N_54
REMARK    4  A    between atoms: C_18  and  C_20
REMARK    5  A    between atoms: C_18  and  O_31
REMARK                            x       y       z     vdW  Elec       q    Type
REMARK                         _______ _______ _______ _____ _____    ______ ____
ROOT
ATOM      1  C   UNL     1       0.251   0.748   0.104  0.00  0.00    +0.089 C 
ATOM      2  C   UNL     1      -0.556   1.395  -1.025  0.00  0.00    +0.006 C 
ATOM      3  C   UNL     1       0.098   1.063  -2.368  0.00  0.00    -0.077 C 
ATOM      4  C   UNL     1       2.285   0.923  -1.333  0.00  0.00    -0.077 C 
ATOM      5  C   UNL     1       1.696   1.251   0.041  0.00  0.00    +0.006 C 
ATOM      6  N   UNL     1       1.478   1.595  -2.374  0.00  0.00    +0.382 N 
ATOM      7  H   UNL     1       1.448   2.601  -2.174  0.00  0.00    -0.082 HD
ENDROOT
BRANCH   1  18
ATOM      8  C   UNL     1      -1.962  -1.018   4.551  0.00  0.00    +0.002 A 
ATOM      9  C   UNL     1      -1.509  -1.777   3.485  0.00  0.00    +0.002 A 
ATOM     10  C   UNL     1      -0.948  -1.164   2.382  0.00  0.00    +0.028 A 
ATOM     11  C   UNL     1      -0.840   0.218   2.341  0.00  0.00    +0.070 A 
ATOM     12  C   UNL     1      -1.297   0.984   3.416  0.00  0.00    +0.067 A 
ATOM     13  C   UNL     1      -1.858   0.359   4.519  0.00  0.00    +0.028 A 
ATOM     14  N   UNL     1      -1.057   2.317   3.091  0.00  0.00    -0.306 N 
ATOM     15  H   UNL     1      -1.270   3.083   3.646  0.00  0.00    +0.170 HD
ATOM     16  C   UNL     1      -0.476   2.360   1.877  0.00  0.00    +0.328 A 
ATOM     17  O   UNL     1      -0.132   3.374   1.300  0.00  0.00    -0.247 OA
ATOM     18  N   UNL     1      -0.336   1.110   1.397  0.00  0.00    -0.289 N 
ENDBRANCH   1  18
BRANCH   6  19
ATOM     19  C   UNL     1       2.093   1.387  -3.701  0.00  0.00    -0.043 C 
BRANCH  19  20
ATOM     20  C   UNL     1       3.290   2.329  -3.838  0.00  0.00    +0.142 C 
BRANCH  20  21
ATOM     21  C   UNL     1       3.960   2.109  -5.196  0.00  0.00    +0.237 C 
ATOM     22  C   UNL     1       5.180   3.031  -5.327  0.00  0.00    +0.276 C 
ATOM     23  O   UNL     1       5.789   2.790  -6.600  0.00  0.00    -0.485 OA
ATOM     24  C   UNL     1       5.970   1.488  -6.955  0.00  0.00    +0.162 A 
ATOM     25  C   UNL     1       6.856   1.178  -7.976  0.00  0.00    +0.049 A 
ATOM     26  C   UNL     1       7.048  -0.139  -8.350  0.00  0.00    +0.004 A 
ATOM     27  C   UNL     1       6.358  -1.150  -7.707  0.00  0.00    +0.004 A 
ATOM     28  C   UNL     1       5.476  -0.848  -6.687  0.00  0.00    +0.049 A 
ATOM     29  C   UNL     1       5.279   0.471  -6.307  0.00  0.00    +0.163 A 
ATOM     30  O   UNL     1       4.409   0.753  -5.299  0.00  0.00    -0.479 OA
ENDBRANCH  20  21
BRANCH  20  31
ATOM     31  O   UNL     1       2.844   3.684  -3.741  0.00  0.00    -0.390 OA
ATOM     32  H   UNL     1       2.203   3.936  -4.420  0.00  0.00    +0.210 HD
ENDBRANCH  20  31
ENDBRANCH  19  20
ENDBRANCH   6  19
TORSDOF 5
