REMARK  Name = ZINC20533992
REMARK  7 active torsions:
REMARK  status: ('A' for Active; 'I' for Inactive)
REMARK    1  A    between atoms: C_10  and  C_11
REMARK    2  A    between atoms: C_11  and  O_12
REMARK    3  A    between atoms: O_12  and  C_13
REMARK    4  A    between atoms: C_16  and  C_19
REMARK    5  A    between atoms: C_22  and  C_33
REMARK    6  A    between atoms: C_28  and  N_32
REMARK    7  A    between atoms: C_29  and  C_30
REMARK                            x       y       z     vdW  Elec       q    Type
REMARK                         _______ _______ _______ _____ _____    ______ ____
ROOT
ATOM      1  C   UNL     1       4.154   1.879   0.202  0.00  0.00    +0.102 C 
ATOM      2  C   UNL     1       3.758   3.328   0.083  0.00  0.00    +0.054 A 
ATOM      3  C   UNL     1       2.481   3.893  -0.003  0.00  0.00    +0.101 A 
ATOM      4  N   UNL     1       2.622   5.203  -0.097  0.00  0.00    -0.171 NA
ATOM      5  N   UNL     1       3.993   5.503  -0.064  0.00  0.00    -0.246 N 
ATOM      6  H   UNL     1       4.329   6.549  -0.123  0.00  0.00    +0.192 HD
ATOM      7  C   UNL     1       4.672   4.341   0.042  0.00  0.00    +0.223 A 
ATOM      8  O   UNL     1       6.009   4.124   0.101  0.00  0.00    -0.423 OA
ATOM      9  C   UNL     1       6.445   2.860  -0.073  0.00  0.00    +0.200 C 
ATOM     10  C   UNL     1       5.639   1.775  -0.040  0.00  0.00    +0.098 C 
ENDROOT
BRANCH   3  11
ATOM     11  C   UNL     1       1.198   3.152   0.004  0.00  0.00    +0.010 A 
ATOM     12  C   UNL     1       1.021   2.053  -0.817  0.00  0.00    +0.011 A 
ATOM     13  C   UNL     1      -0.180   1.353  -0.816  0.00  0.00    +0.001 A 
ATOM     14  C   UNL     1      -1.215   1.730  -0.013  0.00  0.00    +0.008 A 
ATOM     15  C   UNL     1      -1.076   2.837   0.840  0.00  0.00    -0.017 A 
ATOM     16  C   UNL     1       0.141   3.562   0.851  0.00  0.00    -0.009 A 
ATOM     17  C   UNL     1       0.276   4.670   1.700  0.00  0.00    +0.009 A 
ATOM     18  C   UNL     1      -0.762   5.036   2.501  0.00  0.00    +0.001 A 
ATOM     19  C   UNL     1      -1.960   4.325   2.492  0.00  0.00    +0.001 A 
ATOM     20  C   UNL     1      -2.127   3.244   1.681  0.00  0.00    +0.008 A 
ENDBRANCH   3  11
BRANCH   1  24
ATOM     21  C   UNL     1       3.228   0.449   4.121  0.00  0.00    +0.121 A 
ATOM     22  C   UNL     1       2.728  -0.207   3.006  0.00  0.00    +0.046 A 
ATOM     23  C   UNL     1       3.029   0.257   1.740  0.00  0.00    +0.008 A 
ATOM     24  C   UNL     1       3.828   1.375   1.584  0.00  0.00    -0.034 A 
ATOM     25  C   UNL     1       4.332   2.028   2.694  0.00  0.00    +0.008 A 
ATOM     26  C   UNL     1       4.029   1.571   3.962  0.00  0.00    +0.046 A 
BRANCH  21  27
ATOM     27  O   UNL     1       2.935  -0.006   5.367  0.00  0.00    -0.487 OA
BRANCH  27  28
ATOM     28  C   UNL     1       3.484   0.720   6.469  0.00  0.00    +0.265 C 
BRANCH  28  38
ATOM     29  C   UNL     1       4.264   1.629  11.446  0.00  0.00    +0.001 A 
ATOM     30  C   UNL     1       4.672   2.240  10.262  0.00  0.00    +0.001 A 
ATOM     31  C   UNL     1       4.289   1.749   9.052  0.00  0.00    +0.009 A 
ATOM     32  C   UNL     1       3.470   0.608   8.991  0.00  0.00    -0.011 A 
ATOM     33  C   UNL     1       3.056  -0.014  10.196  0.00  0.00    -0.018 A 
ATOM     34  C   UNL     1       3.471   0.522  11.427  0.00  0.00    +0.008 A 
ATOM     35  C   UNL     1       2.237  -1.154  10.136  0.00  0.00    +0.008 A 
ATOM     36  C   UNL     1       1.854  -1.645   8.925  0.00  0.00    +0.001 A 
ATOM     37  C   UNL     1       2.256  -1.030   7.742  0.00  0.00    +0.007 A 
ATOM     38  C   UNL     1       3.054   0.073   7.761  0.00  0.00    -0.003 A 
ENDBRANCH  28  38
ENDBRANCH  27  28
ENDBRANCH  21  27
ENDBRANCH   1  24
BRANCH   9  39
ATOM     39  N   UNL     1       7.785   2.663  -0.296  0.00  0.00    -0.328 N 
ATOM     40  H   UNL     1       8.175   1.644  -0.442  0.00  0.00    +0.145 HD
ATOM     41  H   UNL     1       8.470   3.523  -0.329  0.00  0.00    +0.145 HD
ENDBRANCH   9  39
BRANCH  10  42
ATOM     42  C   UNL     1       6.216   0.480  -0.242  0.00  0.00    +0.101 C 
ATOM     43  N   UNL     1       6.674  -0.547  -0.403  0.00  0.00    -0.191 NA
ENDBRANCH  10  42
TORSDOF 7
