REMARK  Name = ZINC36543704
REMARK  14 active torsions:
REMARK  status: ('A' for Active; 'I' for Inactive)
REMARK    1  A    between atoms: C_1  and  C_2
REMARK    2  A    between atoms: C_2  and  C_3
REMARK    3  A    between atoms: C_3  and  C_4
REMARK    4  A    between atoms: C_4  and  N_5
REMARK    5  A    between atoms: C_6  and  C_8
REMARK    6  A    between atoms: C_8  and  C_10
REMARK    7  A    between atoms: C_8  and  N_19
REMARK    8  A    between atoms: C_11  and  O_18
REMARK    9  A    between atoms: C_13  and  O_17
REMARK   10  A    between atoms: C_15  and  O_16
REMARK   11  A    between atoms: N_19  and  C_20
REMARK   12  A    between atoms: C_27  and  C_29
REMARK   13  A    between atoms: C_32  and  O_35
REMARK   14  A    between atoms: O_35  and  C_36
REMARK                            x       y       z     vdW  Elec       q    Type
REMARK                         _______ _______ _______ _____ _____    ______ ____
ROOT
ATOM      1  C   UNL     1       2.127  -4.538  -3.685  0.00  0.00    +0.204 C 
ENDROOT
BRANCH   1   2
ATOM      2  C   UNL     1       1.266  -3.987  -4.793  0.00  0.00    +0.065 A 
ATOM      3  C   UNL     1       0.117  -4.662  -5.179  0.00  0.00    +0.129 A 
ATOM      4  C   UNL     1      -0.674  -4.155  -6.199  0.00  0.00    +0.091 A 
ATOM      5  C   UNL     1      -0.319  -2.973  -6.831  0.00  0.00    +0.124 A 
ATOM      6  C   UNL     1       0.829  -2.298  -6.444  0.00  0.00    +0.091 A 
ATOM      7  C   UNL     1       1.619  -2.803  -5.422  0.00  0.00    +0.129 A 
BRANCH   7   8
ATOM      8  O   UNL     1       2.741  -2.139  -5.039  0.00  0.00    -0.506 OA
ATOM      9  H   UNL     1       3.537  -2.401  -5.521  0.00  0.00    +0.292 HD
ENDBRANCH   7   8
BRANCH   5  10
ATOM     10  O   UNL     1      -1.094  -2.477  -7.830  0.00  0.00    -0.507 OA
ATOM     11  H   UNL     1      -1.788  -1.875  -7.528  0.00  0.00    +0.292 HD
ENDBRANCH   5  10
BRANCH   3  12
ATOM     12  O   UNL     1      -0.231  -5.820  -4.560  0.00  0.00    -0.506 OA
ATOM     13  H   UNL     1      -0.801  -5.697  -3.788  0.00  0.00    +0.292 HD
ENDBRANCH   3  12
ENDBRANCH   1   2
BRANCH   1  15
ATOM     14  N   UNL     1       0.962  -3.477  -1.778  0.00  0.00    -0.313 N 
ATOM     15  C   UNL     1       1.322  -4.610  -2.413  0.00  0.00    +0.239 C 
ATOM     16  O   UNL     1       1.000  -5.688  -1.960  0.00  0.00    -0.273 OA
ATOM     17  H   UNL     1       1.220  -2.615  -2.140  0.00  0.00    +0.149 HD
BRANCH  14  18
ATOM     18  C   UNL     1       0.180  -3.548  -0.541  0.00  0.00    +0.104 C 
BRANCH  18  19
ATOM     19  C   UNL     1      -0.094  -2.132  -0.029  0.00  0.00    +0.018 C 
BRANCH  19  21
ATOM     20  C   UNL     1      -1.184  -0.790   1.774  0.00  0.00    +0.004 C 
ATOM     21  C   UNL     1      -0.910  -2.206   1.262  0.00  0.00    -0.002 C 
ENDBRANCH  19  21
ENDBRANCH  18  19
ENDBRANCH  14  18
ENDBRANCH   1  15
BRANCH   1  22
ATOM     22  N   UNL     1       2.589  -5.880  -4.048  0.00  0.00    -0.250 N 
ATOM     23  C   UNL     1       3.446  -6.538  -3.242  0.00  0.00    +0.252 C 
ATOM     24  O   UNL     1       3.766  -6.056  -2.172  0.00  0.00    -0.270 OA
BRANCH  22  25
ATOM     25  C   UNL     1       2.141  -6.478  -5.231  0.00  0.00    +0.056 A 
ATOM     26  C   UNL     1       2.540  -5.972  -6.461  0.00  0.00    +0.025 A 
ATOM     27  C   UNL     1       2.096  -6.565  -7.627  0.00  0.00    +0.002 A 
ATOM     28  C   UNL     1       1.256  -7.662  -7.570  0.00  0.00    +0.002 A 
ATOM     29  C   UNL     1       0.857  -8.169  -6.348  0.00  0.00    +0.022 A 
ATOM     30  C   UNL     1       1.301  -7.584  -5.177  0.00  0.00    +0.062 A 
ATOM     31 CL   UNL     1       0.805  -8.225  -3.642  0.00  0.00    -0.082 Cl
ENDBRANCH  22  25
BRANCH  23  32
ATOM     32  C   UNL     1       3.995  -7.843  -3.658  0.00  0.00    +0.037 A 
ATOM     33  C   UNL     1       4.240  -8.102  -5.009  0.00  0.00    +0.016 A 
ATOM     34  C   UNL     1       4.753  -9.321  -5.392  0.00  0.00    +0.046 A 
ATOM     35  C   UNL     1       5.027 -10.293  -4.438  0.00  0.00    +0.120 A 
ATOM     36  C   UNL     1       4.784 -10.040  -3.093  0.00  0.00    +0.046 A 
ATOM     37  C   UNL     1       4.277  -8.821  -2.700  0.00  0.00    +0.016 A 
BRANCH  35  38
ATOM     38  O   UNL     1       5.533 -11.493  -4.820  0.00  0.00    -0.495 OA
ATOM     39  C   UNL     1       5.791 -12.447  -3.787  0.00  0.00    +0.277 C 
ENDBRANCH  35  38
ENDBRANCH  23  32
ENDBRANCH   1  22
TORSDOF 12
