REMARK  Name = ZINC01633521
REMARK  5 active torsions:
REMARK  status: ('A' for Active; 'I' for Inactive)
REMARK    1  A    between atoms: C_4  and  O_25
REMARK    2  A    between atoms: C_5  and  C_7
REMARK    3  A    between atoms: N_9  and  N_10
REMARK    4  A    between atoms: C_11  and  C_18
REMARK    5  A    between atoms: C_21  and  O_24
REMARK                            x       y       z     vdW  Elec       q    Type
REMARK                         _______ _______ _______ _____ _____    ______ ____
ROOT
ATOM      1  N   UNL     1      -2.441  -2.832   0.009  0.00  0.00    -0.210 N 
ATOM      2  C   UNL     1      -3.142  -3.592   1.036  0.00  0.00    +0.154 C 
ATOM      3  C   UNL     1      -4.219  -3.894   0.001  0.00  0.00    +0.194 C 
ATOM      4  C   UNL     1      -3.365  -3.081  -0.926  0.00  0.00    +0.252 C 
ATOM      5  O   UNL     1      -3.472  -2.767  -2.093  0.00  0.00    -0.272 OA
ATOM      6 CL   UNL     1      -5.820  -3.149   0.364  0.00  0.00    -0.109 Cl
ENDROOT
BRANCH   2   7
ATOM      7  C   UNL     1      -2.391  -4.815   1.496  0.00  0.00    -0.023 A 
ATOM      8  C   UNL     1      -1.409  -5.363   0.692  0.00  0.00    +0.009 A 
ATOM      9  C   UNL     1      -0.715  -6.481   1.113  0.00  0.00    +0.046 A 
ATOM     10  C   UNL     1      -1.012  -7.060   2.338  0.00  0.00    +0.117 A 
ATOM     11  C   UNL     1      -2.002  -6.511   3.140  0.00  0.00    +0.046 A 
ATOM     12  C   UNL     1      -2.689  -5.390   2.717  0.00  0.00    +0.009 A 
BRANCH  10  13
ATOM     13  O   UNL     1      -0.335  -8.163   2.753  0.00  0.00    -0.507 OA
ATOM     14  H   UNL     1      -0.740  -8.998   2.483  0.00  0.00    +0.292 HD
ENDBRANCH  10  13
ENDBRANCH   2   7
BRANCH   1  17
ATOM     15  C   UNL     1      -1.263  -0.763   0.009  0.00  0.00    +0.264 C 
ATOM     16  O   UNL     1      -2.326  -0.173   0.022  0.00  0.00    -0.269 OA
ATOM     17  N   UNL     1      -1.240  -2.111   0.002  0.00  0.00    -0.227 N 
ATOM     18  H   UNL     1      -0.392  -2.582  -0.008  0.00  0.00    +0.173 HD
BRANCH  15  23
ATOM     19  C   UNL     1       2.404   0.037  -0.021  0.00  0.00    +0.001 A 
ATOM     20  C   UNL     1       2.381   1.422  -0.013  0.00  0.00    +0.004 A 
ATOM     21  C   UNL     1       1.179   2.101   0.002  0.00  0.00    +0.046 A 
ATOM     22  C   UNL     1      -0.017   1.397   0.010  0.00  0.00    +0.129 A 
ATOM     23  C   UNL     1       0.002  -0.004   0.002  0.00  0.00    +0.079 A 
ATOM     24  C   UNL     1       1.226  -0.678  -0.013  0.00  0.00    +0.017 A 
BRANCH  22  25
ATOM     25  O   UNL     1      -1.199   2.062   0.019  0.00  0.00    -0.506 OA
ATOM     26  H   UNL     1      -1.538   2.251   0.905  0.00  0.00    +0.292 HD
ENDBRANCH  22  25
ENDBRANCH  15  23
ENDBRANCH   1  17
TORSDOF 5
