REMARK  Name = ZINC65369868
REMARK  6 active torsions:
REMARK  status: ('A' for Active; 'I' for Inactive)
REMARK    1  A    between atoms: C_1  and  C_2
REMARK    2  A    between atoms: C_2  and  C_3
REMARK    3  A    between atoms: C_5  and  C_27
REMARK    4  A    between atoms: C_7  and  C_9
REMARK    5  A    between atoms: C_20  and  C_26
REMARK    6  A    between atoms: C_22  and  C_25
REMARK                            x       y       z     vdW  Elec       q    Type
REMARK                         _______ _______ _______ _____ _____    ______ ____
ROOT
ATOM      1  C   UNL     1      -4.539  -1.673  -1.492  0.00  0.00    +0.079 C 
ATOM      2  C   UNL     1      -4.119  -2.840  -2.392  0.00  0.00    +0.110 C 
ATOM      3  C   UNL     1      -3.277  -2.351  -3.538  0.00  0.00    +0.219 C 
ATOM      4  O   UNL     1      -2.345  -3.028  -3.916  0.00  0.00    -0.275 OA
ATOM      5  N   UNL     1      -3.530  -1.179  -4.155  0.00  0.00    -0.273 N 
ATOM      6  C   UNL     1      -4.486  -0.323  -3.601  0.00  0.00    +0.110 C 
ATOM      7  C   UNL     1      -4.971  -0.528  -2.368  0.00  0.00    +0.020 C 
ATOM      8  C   UNL     1      -5.956   0.565  -2.077  0.00  0.00    +0.239 C 
ATOM      9  N   UNL     1      -7.270   0.040  -1.701  0.00  0.00    -0.260 NA
ATOM     10  C   UNL     1      -8.352   0.597  -2.154  0.00  0.00    +0.037 C 
ATOM     11  C   UNL     1      -8.344   1.694  -3.044  0.00  0.00    +0.042 C 
ATOM     12  C   UNL     1      -7.190   2.032  -3.681  0.00  0.00    +0.026 C 
ATOM     13  N   UNL     1      -6.102   1.246  -3.384  0.00  0.00    -0.228 N 
ATOM     14  N   UNL     1      -5.024   0.824  -4.159  0.00  0.00    -0.249 N 
ATOM     15  C   UNL     1      -7.101   3.195  -4.635  0.00  0.00    +0.062 C 
ATOM     16  C   UNL     1      -9.682   0.045  -1.709  0.00  0.00    +0.065 C 
ATOM     17  H   UNL     1      -3.058  -0.936  -4.968  0.00  0.00    +0.156 HD
ATOM     18  H   UNL     1      -4.701   1.264  -4.961  0.00  0.00    +0.172 HD
ENDROOT
BRANCH   1  23
ATOM     19  C   UNL     1      -1.412  -0.526   0.013  0.00  0.00    +0.084 A 
ATOM     20  N   UNL     1      -2.117  -0.789   1.079  0.00  0.00    -0.347 N 
ATOM     21  C   UNL     1      -3.327  -1.234   0.709  0.00  0.00    +0.034 A 
ATOM     22  H   UNL     1      -1.889  -0.684  -2.004  0.00  0.00    +0.167 HD
ATOM     23  C   UNL     1      -3.374  -1.247  -0.637  0.00  0.00    +0.044 A 
ATOM     24  N   UNL     1      -2.161  -0.792  -1.079  0.00  0.00    -0.346 N 
ATOM     25  C   UNL     1      -4.440  -1.647   1.637  0.00  0.00    +0.065 C 
ATOM     26  H   UNL     1      -1.814  -0.681   1.994  0.00  0.00    +0.167 HD
BRANCH  19  28
ATOM     27  C   UNL     1      -0.019   1.526   0.010  0.00  0.00    +0.012 C 
ATOM     28  C   UNL     1       0.002  -0.004   0.002  0.00  0.00    +0.069 C 
ENDBRANCH  19  28
ENDBRANCH   1  23
TORSDOF 2
