REMARK  Name = ZINC08862444
REMARK  7 active torsions:
REMARK  status: ('A' for Active; 'I' for Inactive)
REMARK    1  A    between atoms: C_3  and  O_8
REMARK    2  A    between atoms: O_8  and  C_9
REMARK    3  A    between atoms: C_9  and  C_10
REMARK    4  A    between atoms: C_13  and  S_16
REMARK    5  A    between atoms: N_14  and  N_15
REMARK    6  A    between atoms: S_16  and  C_17
REMARK    7  A    between atoms: C_17  and  C_18
REMARK                            x       y       z     vdW  Elec       q    Type
REMARK                         _______ _______ _______ _____ _____    ______ ____
ROOT
ATOM      1  C   UNL     1      -0.282   1.804  -2.290  0.00  0.00    +0.189 A 
ATOM      2  N   UNL     1      -1.301   2.230  -2.982  0.00  0.00    -0.128 NA
ATOM      3  N   UNL     1      -2.363   2.213  -2.259  0.00  0.00    -0.121 NA
ATOM      4  C   UNL     1      -2.077   1.768  -1.057  0.00  0.00    +0.209 A 
ATOM      5  N   UNL     1      -0.741   1.490  -1.041  0.00  0.00    -0.225 N 
ENDROOT
BRANCH   5   6
ATOM      6  N   UNL     1      -0.012   1.005   0.008  0.00  0.00    -0.295 N 
ATOM      7  H   UNL     1       0.002  -0.004   0.002  0.00  0.00    +0.163 HD
ATOM      8  H   UNL     1       0.925   1.379   0.001  0.00  0.00    +0.163 HD
ENDBRANCH   5   6
BRANCH   1   9
ATOM      9  C   UNL     1       1.139   1.680  -2.777  0.00  0.00    +0.306 C 
BRANCH   9  10
ATOM     10  O   UNL     1       1.337   0.381  -3.340  0.00  0.00    -0.484 OA
BRANCH  10  13
ATOM     11  C   UNL     1       4.095  -1.419  -4.888  0.00  0.00    +0.005 A 
ATOM     12  C   UNL     1       2.836  -1.138  -4.390  0.00  0.00    +0.046 A 
ATOM     13  C   UNL     1       2.574   0.103  -3.830  0.00  0.00    +0.122 A 
ATOM     14  C   UNL     1       3.575   1.063  -3.775  0.00  0.00    +0.061 A 
ATOM     15  C   UNL     1       4.833   0.776  -4.269  0.00  0.00    +0.021 A 
ATOM     16  C   UNL     1       5.092  -0.464  -4.827  0.00  0.00    +0.015 A 
ATOM     17 BR   UNL     1       6.200   2.080  -4.188  0.00  0.00    -0.050 Br
ENDBRANCH  10  13
ENDBRANCH   9  10
ENDBRANCH   1   9
BRANCH   4  18
ATOM     18  S   UNL     1      -3.205   1.567   0.281  0.00  0.00    -0.080 S 
BRANCH  18  19
ATOM     19  C   UNL     1      -4.733   2.133  -0.507  0.00  0.00    +0.112 C 
BRANCH  19  20
ATOM     20  C   UNL     1      -5.869   2.046   0.479  0.00  0.00    -0.032 A 
ATOM     21  C   UNL     1      -6.621   0.890   0.565  0.00  0.00    +0.054 A 
ATOM     22  C   UNL     1      -7.664   0.805   1.476  0.00  0.00    +0.164 A 
ATOM     23  C   UNL     1      -7.957   1.889   2.295  0.00  0.00    +0.180 A 
ATOM     24  C   UNL     1      -7.203   3.050   2.198  0.00  0.00    +0.086 A 
ATOM     25  C   UNL     1      -6.161   3.126   1.291  0.00  0.00    +0.028 A 
ATOM     26 CL   UNL     1      -7.568   4.408   3.216  0.00  0.00    -0.080 Cl
ATOM     27  O   UNL     1      -8.974   1.825   3.197  0.00  0.00    -0.483 OA
ATOM     28  C   UNL     1      -9.941   0.786   3.006  0.00  0.00    +0.270 C 
ATOM     29  C   UNL     1      -9.190  -0.523   2.726  0.00  0.00    +0.270 C 
ATOM     30  O   UNL     1      -8.395  -0.341   1.549  0.00  0.00    -0.485 OA
ENDBRANCH  19  20
ENDBRANCH  18  19
ENDBRANCH   4  18
TORSDOF 7
