REMARK  Name = ZINC12488244
REMARK  7 active torsions:
REMARK  status: ('A' for Active; 'I' for Inactive)
REMARK    1  A    between atoms: C_1  and  N_2
REMARK    2  A    between atoms: C_3  and  C_23
REMARK    3  A    between atoms: C_6  and  S_7
REMARK    4  A    between atoms: S_7  and  C_8
REMARK    5  A    between atoms: C_8  and  C_9
REMARK    6  A    between atoms: N_11  and  C_12
REMARK    7  A    between atoms: C_13  and  C_21
REMARK                            x       y       z     vdW  Elec       q    Type
REMARK                         _______ _______ _______ _____ _____    ______ ____
ROOT
ATOM      1  C   UNL     1      -3.627   3.362  -0.001  0.00  0.00    +0.173 C 
ENDROOT
BRANCH   1   2
ATOM      2  C   UNL     1      -5.120   3.165  -0.077  0.00  0.00    +0.228 C 
ATOM      3  O   UNL     1      -5.577   2.054  -0.242  0.00  0.00    -0.275 OA
ATOM      4  N   UNL     1      -5.946   4.223   0.038  0.00  0.00    -0.278 N 
ATOM      5  H   UNL     1      -5.580   5.112   0.170  0.00  0.00    +0.155 HD
BRANCH   4   6
ATOM      6  C   UNL     1      -7.320   4.041  -0.032  0.00  0.00    +0.090 A 
ATOM      7  C   UNL     1      -8.322   4.995   0.069  0.00  0.00    +0.084 A 
ATOM      8  C   UNL     1      -9.697   4.541  -0.042  0.00  0.00    -0.018 A 
ATOM      9  C   UNL     1      -9.850   3.211  -0.226  0.00  0.00    -0.004 A 
ATOM     10  S   UNL     1      -8.201   2.567  -0.258  0.00  0.00    -0.077 S 
ATOM     11  C   UNL     1     -11.138   2.461  -0.367  0.00  0.00    +0.043 C 
ATOM     12  C   UNL     1     -12.282   3.372   0.100  0.00  0.00    +0.005 C 
ATOM     13  C   UNL     1     -12.117   4.747  -0.555  0.00  0.00    +0.005 C 
ATOM     14  C   UNL     1     -10.905   5.465   0.042  0.00  0.00    +0.037 C 
BRANCH   7  15
ATOM     15  C   UNL     1      -8.011   6.378   0.272  0.00  0.00    +0.102 C 
ATOM     16  N   UNL     1      -7.765   7.476   0.433  0.00  0.00    -0.191 NA
ENDBRANCH   7  15
ENDBRANCH   4   6
ENDBRANCH   1   2
BRANCH   1  17
ATOM     17  S   UNL     1      -2.797   1.765  -0.189  0.00  0.00    -0.077 S 
BRANCH  17  23
ATOM     18  C   UNL     1       0.006   0.019  -0.331  0.00  0.00    +0.153 C 
ATOM     19  N   UNL     1      -0.016   1.471  -0.137  0.00  0.00    -0.305 N 
ATOM     20  C   UNL     1       1.067   2.308   0.005  0.00  0.00    +0.166 A 
ATOM     21  N   UNL     1       0.598   3.524   0.156  0.00  0.00    -0.128 NA
ATOM     22  N   UNL     1      -0.687   3.506   0.118  0.00  0.00    -0.122 NA
ATOM     23  C   UNL     1      -1.116   2.277  -0.065  0.00  0.00    +0.192 A 
BRANCH  20  24
ATOM     24  C   UNL     1       2.491   1.911  -0.009  0.00  0.00    +0.033 A 
ATOM     25  C   UNL     1       2.926   0.828   0.757  0.00  0.00    +0.013 A 
ATOM     26  C   UNL     1       4.256   0.463   0.738  0.00  0.00    +0.001 A 
ATOM     27  C   UNL     1       5.159   1.168  -0.038  0.00  0.00    +0.001 A 
ATOM     28  C   UNL     1       4.737   2.243  -0.799  0.00  0.00    +0.016 A 
ATOM     29  C   UNL     1       3.407   2.615  -0.794  0.00  0.00    +0.029 A 
ATOM     30 BR   UNL     1       2.829   4.080  -1.841  0.00  0.00    -0.050 Br
ENDBRANCH  20  24
ENDBRANCH  17  23
ENDBRANCH   1  17
TORSDOF 6
