REMARK  Name = ZINC65298580
REMARK  10 active torsions:
REMARK  status: ('A' for Active; 'I' for Inactive)
REMARK    1  A    between atoms: C_1  and  C_2
REMARK    2  A    between atoms: C_2  and  C_3
REMARK    3  A    between atoms: C_2  and  N_4
REMARK    4  A    between atoms: C_11  and  C_24
REMARK    5  A    between atoms: C_14  and  C_16
REMARK    6  A    between atoms: C_21  and  O_22
REMARK    7  A    between atoms: C_27  and  O_32
REMARK    8  A    between atoms: C_28  and  O_30
REMARK    9  A    between atoms: O_30  and  C_31
REMARK   10  A    between atoms: O_32  and  C_33
REMARK                            x       y       z     vdW  Elec       q    Type
REMARK                         _______ _______ _______ _____ _____    ______ ____
ROOT
ATOM      1  N   UNL     1      -1.376  -0.512   0.012  0.00  0.00    +0.381 N 
ATOM      2  C   UNL     1      -1.354  -1.980   0.014  0.00  0.00    -0.075 C 
ATOM      3  C   UNL     1      -2.785  -2.515   0.104  0.00  0.00    +0.027 C 
ATOM      4  C   UNL     1      -3.586  -2.019  -1.104  0.00  0.00    +0.109 C 
ATOM      5  C   UNL     1      -3.543  -0.487  -1.132  0.00  0.00    +0.027 C 
ATOM      6  C   UNL     1      -2.085  -0.025  -1.177  0.00  0.00    -0.075 C 
ATOM      7  N   UNL     1      -4.981  -2.460  -0.975  0.00  0.00    -0.286 NA
ATOM      8  C   UNL     1      -5.726  -2.160  -2.209  0.00  0.00    +0.092 C 
ATOM      9  C   UNL     1      -5.175  -3.051  -3.328  0.00  0.00    +0.079 C 
ATOM     10  C   UNL     1      -3.673  -2.997  -3.317  0.00  0.00    +0.050 C 
ATOM     11  N   UNL     1      -2.996  -2.545  -2.330  0.00  0.00    -0.266 NA
ATOM     12  H   UNL     1      -5.030  -3.444  -0.753  0.00  0.00    +0.125 HD
ATOM     13  H   UNL     1      -1.848  -0.184   0.842  0.00  0.00    -0.081 HD
ENDROOT
BRANCH  10  14
ATOM     14  C   UNL     1      -2.945  -3.489  -4.501  0.00  0.00    +0.039 A 
ATOM     15  C   UNL     1      -3.648  -3.986  -5.602  0.00  0.00    +0.033 A 
ATOM     16  C   UNL     1      -2.961  -4.444  -6.706  0.00  0.00    +0.042 A 
ATOM     17  C   UNL     1      -1.575  -4.415  -6.728  0.00  0.00    +0.023 A 
ATOM     18  C   UNL     1      -0.869  -3.927  -5.646  0.00  0.00    +0.047 A 
ATOM     19  C   UNL     1      -1.544  -3.456  -4.531  0.00  0.00    +0.126 A 
ATOM     20 CL   UNL     1      -3.834  -5.061  -8.073  0.00  0.00    -0.084 Cl
BRANCH  19  21
ATOM     21  O   UNL     1      -0.852  -2.971  -3.469  0.00  0.00    -0.506 OA
ATOM     22  H   UNL     1      -0.624  -3.640  -2.809  0.00  0.00    +0.292 HD
ENDBRANCH  19  21
ENDBRANCH  10  14
BRANCH   8  23
ATOM     23  C   UNL     1      -7.190  -2.448  -2.003  0.00  0.00    -0.026 A 
ATOM     24  C   UNL     1      -7.579  -3.562  -1.282  0.00  0.00    +0.009 A 
ATOM     25  C   UNL     1      -8.922  -3.830  -1.090  0.00  0.00    +0.050 A 
ATOM     26  C   UNL     1      -9.881  -2.982  -1.619  0.00  0.00    +0.162 A 
ATOM     27  C   UNL     1      -9.489  -1.861  -2.345  0.00  0.00    +0.162 A 
ATOM     28  C   UNL     1      -8.142  -1.595  -2.530  0.00  0.00    +0.054 A 
BRANCH  27  29
ATOM     29  O   UNL     1     -10.427  -1.026  -2.867  0.00  0.00    -0.491 OA
ATOM     30  C   UNL     1      -9.952   0.106  -3.600  0.00  0.00    +0.277 C 
ENDBRANCH  27  29
BRANCH  26  31
ATOM     31  O   UNL     1     -11.202  -3.245  -1.432  0.00  0.00    -0.491 OA
ATOM     32  C   UNL     1     -11.530  -4.414  -0.677  0.00  0.00    +0.277 C 
ENDBRANCH  26  31
ENDBRANCH   8  23
BRANCH   1  34
ATOM     33  C   UNL     1      -0.019   1.526   0.010  0.00  0.00    -0.014 C 
ATOM     34  C   UNL     1       0.002  -0.004   0.002  0.00  0.00    -0.075 C 
ATOM     35  C   UNL     1       0.742  -0.511   1.242  0.00  0.00    -0.014 C 
ENDBRANCH   1  34
TORSDOF 6
