REMARK  Name = ZINC25456257
REMARK  9 active torsions:
REMARK  status: ('A' for Active; 'I' for Inactive)
REMARK    1  A    between atoms: C_1  and  C_2
REMARK    2  A    between atoms: C_3  and  C_25
REMARK    3  A    between atoms: C_4  and  S_9
REMARK    4  A    between atoms: C_6  and  C_8
REMARK    5  A    between atoms: S_9  and  C_10
REMARK    6  A    between atoms: C_10  and  C_11
REMARK    7  A    between atoms: N_13  and  C_14
REMARK    8  A    between atoms: C_14  and  C_15
REMARK    9  A    between atoms: N_17  and  C_18
REMARK                            x       y       z     vdW  Elec       q    Type
REMARK                         _______ _______ _______ _____ _____    ______ ____
ROOT
ATOM      1  C   UNL     1       3.671   1.508   0.008  0.00  0.00    +0.224 C 
ATOM      2  O   UNL     1       3.877   2.703   0.018  0.00  0.00    -0.275 OA
ATOM      3  N   UNL     1       2.406   1.042   0.007  0.00  0.00    -0.306 N 
ATOM      4  H   UNL     1       2.220  -0.042  -0.002  0.00  0.00    +0.149 HD
ENDROOT
BRANCH   1   5
ATOM      5  C   UNL     1       4.829   0.544  -0.004  0.00  0.00    +0.171 C 
BRANCH   5   6
ATOM      6  S   UNL     1       6.385   1.469   0.000  0.00  0.00    -0.095 S 
BRANCH   6  10
ATOM      7  C   UNL     1      11.281  -0.517  -0.029  0.00  0.00    +0.067 C 
ATOM      8  C   UNL     1       9.787  -0.717  -0.027  0.00  0.00    +0.060 A 
ATOM      9  C   UNL     1       8.925   0.382  -0.016  0.00  0.00    +0.104 A 
ATOM     10  C   UNL     1       7.535   0.135  -0.014  0.00  0.00    +0.118 A 
ATOM     11  N   UNL     1       7.111  -1.126  -0.018  0.00  0.00    -0.225 NA
ATOM     12  C   UNL     1       7.967  -2.126  -0.035  0.00  0.00    +0.128 A 
ATOM     13  N   UNL     1       9.273  -1.935  -0.037  0.00  0.00    -0.236 NA
ATOM     14  C   UNL     1       7.438  -3.537  -0.045  0.00  0.00    +0.088 C 
BRANCH   9  15
ATOM     15  C   UNL     1       9.435   1.720  -0.006  0.00  0.00    +0.104 C 
ATOM     16  N   UNL     1       9.840   2.781   0.002  0.00  0.00    -0.191 NA
ENDBRANCH   9  15
ENDBRANCH   6  10
ENDBRANCH   5   6
ENDBRANCH   1   5
BRANCH   3  17
ATOM     17  C   UNL     1       1.280   1.979   0.018  0.00  0.00    +0.200 C 
BRANCH  17  18
ATOM     18  C   UNL     1      -0.015   1.208   0.015  0.00  0.00    +0.234 C 
ATOM     19  O   UNL     1       0.001  -0.004   0.004  0.00  0.00    -0.274 OA
ATOM     20  N   UNL     1      -1.191   1.867   0.018  0.00  0.00    -0.283 N 
ATOM     21  H   UNL     1      -1.207   2.963   0.102  0.00  0.00    +0.155 HD
BRANCH  20  22
ATOM     22  C   UNL     1      -2.391   1.155  -0.086  0.00  0.00    +0.047 A 
ATOM     23  C   UNL     1      -2.510  -0.099   0.499  0.00  0.00    +0.024 A 
ATOM     24  C   UNL     1      -3.698  -0.796   0.399  0.00  0.00    +0.002 A 
ATOM     25  C   UNL     1      -4.765  -0.252  -0.291  0.00  0.00    +0.001 A 
ATOM     26  C   UNL     1      -4.649   0.994  -0.880  0.00  0.00    +0.017 A 
ATOM     27  C   UNL     1      -3.465   1.699  -0.779  0.00  0.00    +0.039 A 
ATOM     28 BR   UNL     1      -3.307   3.402  -1.585  0.00  0.00    -0.048 Br
ENDBRANCH  20  22
ENDBRANCH  17  18
ENDBRANCH   3  17
TORSDOF 7
