REMARK  Name = ZINC08668027
REMARK  11 active torsions:
REMARK  status: ('A' for Active; 'I' for Inactive)
REMARK    1  A    between atoms: C_1  and  C_2
REMARK    2  A    between atoms: C_4  and  C_37
REMARK    3  A    between atoms: C_5  and  N_9
REMARK    4  A    between atoms: C_6  and  C_8
REMARK    5  A    between atoms: C_10  and  C_12
REMARK    6  A    between atoms: C_12  and  N_13
REMARK    7  A    between atoms: C_14  and  C_16
REMARK    8  A    between atoms: C_16  and  O_17
REMARK    9  A    between atoms: O_17  and  C_18
REMARK   10  A    between atoms: C_18  and  C_20
REMARK   11  A    between atoms: N_29  and  C_31
REMARK                            x       y       z     vdW  Elec       q    Type
REMARK                         _______ _______ _______ _____ _____    ______ ____
ROOT
ATOM      1  O   UNL     1      -9.758   4.682  -0.947  0.00  0.00    -0.451 OA
ENDROOT
BRANCH   1   2
ATOM      2  C   UNL     1     -10.820   4.127  -1.563  0.00  0.00    +0.361 C 
ATOM      3  O   UNL     1     -10.914   2.918  -1.642  0.00  0.00    -0.243 OA
BRANCH   2   4
ATOM      4  C   UNL     1     -11.870   4.987  -2.140  0.00  0.00    +0.176 A 
ATOM      5  C   UNL     1     -13.035   4.391  -2.814  0.00  0.00    +0.021 A 
ATOM      6  C   UNL     1     -13.209   3.017  -2.942  0.00  0.00    +0.011 A 
ATOM      7  C   UNL     1     -14.328   2.534  -3.587  0.00  0.00    +0.001 A 
ATOM      8  C   UNL     1     -15.279   3.402  -4.108  0.00  0.00    +0.001 A 
ATOM      9  C   UNL     1     -15.125   4.767  -3.992  0.00  0.00    +0.014 A 
ATOM     10  C   UNL     1     -14.003   5.274  -3.344  0.00  0.00    +0.051 A 
ATOM     11  C   UNL     1     -13.762   6.714  -3.176  0.00  0.00    +0.280 A 
ATOM     12  O   UNL     1     -14.553   7.532  -3.607  0.00  0.00    -0.265 OA
ATOM     13  N   UNL     1     -12.644   7.107  -2.532  0.00  0.00    -0.196 N 
ATOM     14  N   UNL     1     -11.780   6.293  -2.054  0.00  0.00    -0.156 NA
BRANCH  13  15
ATOM     15  C   UNL     1     -12.419   8.479  -2.375  0.00  0.00    +0.069 A 
ATOM     16  C   UNL     1     -12.522   9.331  -3.467  0.00  0.00    +0.028 A 
ATOM     17  C   UNL     1     -12.305  10.686  -3.306  0.00  0.00    +0.002 A 
ATOM     18  C   UNL     1     -11.974  11.192  -2.063  0.00  0.00    +0.000 A 
ATOM     19  C   UNL     1     -11.864  10.345  -0.975  0.00  0.00    +0.002 A 
ATOM     20  C   UNL     1     -12.086   8.991  -1.127  0.00  0.00    +0.028 A 
ENDBRANCH  13  15
ENDBRANCH   2   4
ENDBRANCH   1   2
BRANCH   1  21
ATOM     21  C   UNL     1      -8.763   3.775  -0.403  0.00  0.00    +0.328 C 
BRANCH  21  23
ATOM     22  N   UNL     1      -6.618   3.934   0.819  0.00  0.00    -0.304 N 
ATOM     23  C   UNL     1      -7.657   4.570   0.242  0.00  0.00    +0.251 C 
ATOM     24  O   UNL     1      -7.703   5.782   0.243  0.00  0.00    -0.272 OA
ATOM     25  H   UNL     1      -6.582   2.965   0.818  0.00  0.00    +0.149 HD
BRANCH  22  26
ATOM     26  C   UNL     1      -5.543   4.707   1.446  0.00  0.00    +0.200 C 
BRANCH  26  28
ATOM     27  N   UNL     1      -3.424   4.255   2.639  0.00  0.00    -0.284 N 
ATOM     28  C   UNL     1      -4.511   3.765   2.011  0.00  0.00    +0.234 C 
ATOM     29  O   UNL     1      -4.659   2.567   1.901  0.00  0.00    -0.274 OA
ATOM     30  H   UNL     1      -3.325   5.212   2.762  0.00  0.00    +0.155 HD
BRANCH  27  35
ATOM     31  C   UNL     1       0.575   0.720   4.560  0.00  0.00    +0.044 C 
ATOM     32  C   UNL     1      -0.487   1.659   4.050  0.00  0.00    -0.050 A 
ATOM     33  C   UNL     1      -0.870   1.611   2.722  0.00  0.00    +0.008 A 
ATOM     34  C   UNL     1      -1.840   2.474   2.250  0.00  0.00    -0.029 A 
ATOM     35  C   UNL     1      -2.438   3.383   3.113  0.00  0.00    +0.039 A 
ATOM     36  C   UNL     1      -2.051   3.429   4.446  0.00  0.00    -0.029 A 
ATOM     37  C   UNL     1      -1.077   2.566   4.911  0.00  0.00    +0.008 A 
ATOM     38  C   UNL     1      -2.693   4.418   5.384  0.00  0.00    +0.045 C 
ATOM     39  C   UNL     1      -2.252   2.425   0.801  0.00  0.00    +0.045 C 
ENDBRANCH  27  35
ENDBRANCH  26  28
ENDBRANCH  22  26
ENDBRANCH  21  23
ENDBRANCH   1  21
TORSDOF 8
