REMARK  Name = ZINC36813193
REMARK  7 active torsions:
REMARK  status: ('A' for Active; 'I' for Inactive)
REMARK    1  A    between atoms: C_1  and  C_2
REMARK    2  A    between atoms: C_2  and  N_3
REMARK    3  A    between atoms: N_3  and  C_4
REMARK    4  A    between atoms: N_3  and  C_9
REMARK    5  A    between atoms: C_4  and  C_5
REMARK    6  A    between atoms: N_7  and  C_8
REMARK    7  A    between atoms: C_18  and  N_19
REMARK                            x       y       z     vdW  Elec       q    Type
REMARK                         _______ _______ _______ _____ _____    ______ ____
ROOT
ATOM      1  C   UNL     1       2.245  -0.470   0.249  0.00  0.00    +0.062 A 
ATOM      2  C   UNL     1       2.624  -1.706  -0.322  0.00  0.00    +0.022 A 
ATOM      3  C   UNL     1       1.688  -2.528  -0.966  0.00  0.00    +0.027 A 
ATOM      4  C   UNL     1       2.091  -3.713  -1.505  0.00  0.00    +0.019 A 
ATOM      5  C   UNL     1       3.422  -4.119  -1.424  0.00  0.00    +0.017 A 
ATOM      6  C   UNL     1       4.355  -3.344  -0.806  0.00  0.00    +0.027 A 
ATOM      7  C   UNL     1       3.977  -2.114  -0.238  0.00  0.00    +0.048 A 
ATOM      8  N   UNL     1       4.876  -1.335   0.373  0.00  0.00    -0.359 N 
ATOM      9  C   UNL     1       4.541  -0.184   0.908  0.00  0.00    +0.107 A 
ATOM     10  C   UNL     1       3.232   0.292   0.865  0.00  0.00    +0.063 A 
ATOM     11 BR   UNL     1       0.828  -4.822  -2.372  0.00  0.00    -0.050 Br
ATOM     12  H   UNL     1       5.799  -1.628   0.422  0.00  0.00    +0.165 HD
ENDROOT
BRANCH  10  13
ATOM     13  N   UNL     1       2.912   1.530   1.441  0.00  0.00    -0.355 N 
ATOM     14  H   UNL     1       1.987   1.750   1.634  0.00  0.00    +0.142 HD
ATOM     15  H   UNL     1       3.615   2.165   1.648  0.00  0.00    +0.142 HD
ENDBRANCH  10  13
BRANCH   1  16
ATOM     16  N   UNL     1       0.927  -0.027   0.192  0.00  0.00    -0.319 N 
BRANCH  16  18
ATOM     17  C   UNL     1      -0.681  -1.582   1.179  0.00  0.00    +0.024 C 
ATOM     18  C   UNL     1       0.033  -0.238   1.333  0.00  0.00    +0.102 C 
ENDBRANCH  16  18
BRANCH  16  19
ATOM     19  C   UNL     1       0.434   0.651  -1.010  0.00  0.00    +0.200 C 
BRANCH  19  20
ATOM     20  C   UNL     1       0.523   2.143  -0.817  0.00  0.00    +0.230 C 
ATOM     21  O   UNL     1       0.842   2.598   0.262  0.00  0.00    -0.274 OA
ATOM     22  N   UNL     1       0.249   2.973  -1.843  0.00  0.00    -0.317 N 
ATOM     23  C   UNL     1       0.336   4.424  -1.655  0.00  0.00    +0.128 C 
ATOM     24  H   UNL     1      -0.005   2.610  -2.705  0.00  0.00    +0.148 HD
ENDBRANCH  19  20
ENDBRANCH  16  19
ENDBRANCH   1  16
TORSDOF 5
