REMARK  Name = ZINC55412239
REMARK  4 active torsions:
REMARK  status: ('A' for Active; 'I' for Inactive)
REMARK    1  A    between atoms: C_1  and  C_2
REMARK    2  A    between atoms: C_3  and  C_26
REMARK    3  A    between atoms: C_4  and  C_19
REMARK    4  A    between atoms: C_9  and  C_11
REMARK                            x       y       z     vdW  Elec       q    Type
REMARK                         _______ _______ _______ _____ _____    ______ ____
ROOT
ATOM      1  C   UNL     1      -0.726   0.594  -1.217  0.00  0.00    +0.062 C 
ATOM      2  C   UNL     1      -1.035   1.850  -1.991  0.00  0.00    +0.034 C 
ATOM      3  C   UNL     1      -0.656   3.174  -1.391  0.00  0.00    +0.148 C 
ATOM      4  C   UNL     1      -0.279   4.190  -2.475  0.00  0.00    +0.158 C 
ATOM      5  N   UNL     1      -1.236   4.056  -3.573  0.00  0.00    -0.220 N 
ATOM      6  C   UNL     1      -1.847   2.869  -3.873  0.00  0.00    +0.250 A 
ATOM      7  N   UNL     1      -2.625   3.071  -4.904  0.00  0.00    -0.189 NA
ATOM      8  C   UNL     1      -2.548   4.356  -5.281  0.00  0.00    +0.185 A 
ATOM      9  N   UNL     1      -1.707   4.992  -4.486  0.00  0.00    -0.147 NA
ATOM     10  N   UNL     1      -1.609   1.739  -3.144  0.00  0.00    -0.220 NA
ENDROOT
BRANCH   8  11
ATOM     11  C   UNL     1      -3.289   4.966  -6.413  0.00  0.00    +0.039 A 
ATOM     12  C   UNL     1      -3.121   6.316  -6.713  0.00  0.00    +0.013 A 
ATOM     13  C   UNL     1      -3.813   6.878  -7.766  0.00  0.00    +0.001 A 
ATOM     14  C   UNL     1      -4.673   6.104  -8.524  0.00  0.00    +0.001 A 
ATOM     15  C   UNL     1      -4.845   4.763  -8.232  0.00  0.00    +0.021 A 
ATOM     16  C   UNL     1      -4.152   4.188  -7.184  0.00  0.00    +0.052 A 
ATOM     17 CL   UNL     1      -4.362   2.503  -6.822  0.00  0.00    -0.083 Cl
ENDBRANCH   8  11
BRANCH   4  18
ATOM     18  C   UNL     1      -0.343   5.585  -1.909  0.00  0.00    -0.022 A 
ATOM     19  C   UNL     1      -0.155   5.791  -0.555  0.00  0.00    +0.007 A 
ATOM     20  C   UNL     1      -0.213   7.071  -0.036  0.00  0.00    +0.015 A 
ATOM     21  C   UNL     1      -0.460   8.145  -0.872  0.00  0.00    +0.018 A 
ATOM     22  C   UNL     1      -0.647   7.939  -2.226  0.00  0.00    +0.015 A 
ATOM     23  C   UNL     1      -0.584   6.659  -2.745  0.00  0.00    +0.007 A 
ATOM     24 BR   UNL     1      -0.540   9.896  -0.162  0.00  0.00    -0.050 Br
ENDBRANCH   4  18
BRANCH   3  25
ATOM     25  C   UNL     1      -1.821   3.707  -0.598  0.00  0.00    +0.221 C 
ATOM     26  O   UNL     1      -2.711   4.310  -1.159  0.00  0.00    -0.275 OA
ATOM     27  N   UNL     1      -1.874   3.515   0.735  0.00  0.00    -0.329 N 
ATOM     28  H   UNL     1      -1.162   3.032   1.184  0.00  0.00    +0.145 HD
ATOM     29  H   UNL     1      -2.624   3.858   1.245  0.00  0.00    +0.145 HD
ENDBRANCH   3  25
TORSDOF 3
