REMARK  Name = ZINC42915387
REMARK  8 active torsions:
REMARK  status: ('A' for Active; 'I' for Inactive)
REMARK    1  A    between atoms: C_1  and  C_2
REMARK    2  A    between atoms: C_2  and  C_4
REMARK    3  A    between atoms: C_2  and  N_22
REMARK    4  A    between atoms: C_4  and  C_6
REMARK    5  A    between atoms: C_4  and  N_13
REMARK    6  A    between atoms: N_13  and  C_14
REMARK    7  A    between atoms: N_13  and  C_15
REMARK    8  A    between atoms: C_15  and  C_16
REMARK                            x       y       z     vdW  Elec       q    Type
REMARK                         _______ _______ _______ _____ _____    ______ ____
ROOT
ATOM      1  C   UNL     1       0.730  -0.501   1.336  0.00  0.00    +0.072 C 
ENDROOT
BRANCH   1   2
ATOM      2  C   UNL     1       2.166  -0.062   1.470  0.00  0.00    -0.032 A 
ATOM      3  C   UNL     1       3.161  -0.739   0.789  0.00  0.00    +0.008 A 
ATOM      4  C   UNL     1       4.477  -0.337   0.910  0.00  0.00    +0.038 A 
ATOM      5  C   UNL     1       4.800   0.745   1.713  0.00  0.00    +0.123 A 
ATOM      6  C   UNL     1       3.802   1.421   2.394  0.00  0.00    +0.038 A 
ATOM      7  C   UNL     1       2.485   1.021   2.267  0.00  0.00    +0.008 A 
ATOM      8  F   UNL     1       6.086   1.138   1.832  0.00  0.00    -0.205 F 
ENDBRANCH   1   2
BRANCH   1  10
ATOM      9  C   UNL     1       0.887  -0.607  -1.155  0.00  0.00    -0.012 C 
ATOM     10  C   UNL     1       0.153   0.034   0.025  0.00  0.00    -0.056 C 
BRANCH  10  11
ATOM     11  N   UNL     1       0.323   1.492  -0.027  0.00  0.00    +0.381 N 
ATOM     12  H   UNL     1      -0.142   1.856  -0.845  0.00  0.00    -0.090 HD
ATOM     13  H   UNL     1      -0.079   1.907   0.801  0.00  0.00    -0.090 HD
ATOM     14  H   UNL     1       1.306   1.715  -0.071  0.00  0.00    -0.090 HD
ENDBRANCH  10  11
ENDBRANCH   1  10
BRANCH   1  15
ATOM     15  N   UNL     1       0.665  -1.969   1.338  0.00  0.00    -0.295 NA
ATOM     16  C   UNL     1       1.266  -2.521   2.559  0.00  0.00    +0.105 C 
BRANCH  15  17
ATOM     17  C   UNL     1      -0.719  -2.434   1.175  0.00  0.00    +0.127 C 
BRANCH  17  18
ATOM     18  C   UNL     1      -0.720  -3.910   0.869  0.00  0.00    +0.005 A 
ATOM     19  C   UNL     1      -0.775  -4.959   1.726  0.00  0.00    +0.027 A 
ATOM     20  C   UNL     1      -0.763  -6.244   1.215  0.00  0.00    +0.025 A 
ATOM     21  C   UNL     1      -0.697  -6.415  -0.129  0.00  0.00    +0.060 A 
ATOM     22  S   UNL     1      -0.656  -4.730  -0.715  0.00  0.00    -0.099 S 
ATOM     23 BR   UNL     1      -0.838  -7.738   2.371  0.00  0.00    -0.050 Br
ENDBRANCH  17  18
ENDBRANCH  15  17
ENDBRANCH   1  15
TORSDOF 6
