REMARK  Name = ZINC39188348
REMARK  5 active torsions:
REMARK  status: ('A' for Active; 'I' for Inactive)
REMARK    1  A    between atoms: C_4  and  C_7
REMARK    2  A    between atoms: C_9  and  C_18
REMARK    3  A    between atoms: N_11  and  C_12
REMARK    4  A    between atoms: N_20  and  N_21
REMARK    5  A    between atoms: C_22  and  C_23
REMARK                            x       y       z     vdW  Elec       q    Type
REMARK                         _______ _______ _______ _____ _____    ______ ____
ROOT
ATOM      1  C   UNL     1       3.694  -0.690  -0.050  0.00  0.00    +0.164 A 
ATOM      2  N   UNL     1       4.860  -0.193  -0.412  0.00  0.00    -0.202 NA
ATOM      3  C   UNL     1       5.772  -1.168  -0.262  0.00  0.00    +0.239 A 
ATOM      4  N   UNL     1       5.159  -2.243   0.187  0.00  0.00    -0.139 NA
ATOM      5  N   UNL     1       3.905  -1.981   0.329  0.00  0.00    -0.212 N 
ENDROOT
BRANCH   1   9
ATOM      6  C   UNL     1      -0.027   1.361  -0.049  0.00  0.00    +0.000 A 
ATOM      7  C   UNL     1       0.218   0.377   0.893  0.00  0.00    +0.001 A 
ATOM      8  C   UNL     1       1.424  -0.292   0.898  0.00  0.00    +0.011 A 
ATOM      9  C   UNL     1       2.398   0.024  -0.050  0.00  0.00    +0.019 A 
ATOM     10  C   UNL     1       2.145   1.017  -0.997  0.00  0.00    +0.011 A 
ATOM     11  C   UNL     1       0.934   1.679  -0.991  0.00  0.00    +0.001 A 
ENDBRANCH   1   9
BRANCH   5  12
ATOM     12  C   UNL     1       2.928  -2.872   0.789  0.00  0.00    +0.068 A 
ATOM     13  C   UNL     1       1.705  -2.962   0.137  0.00  0.00    +0.028 A 
ATOM     14  C   UNL     1       0.743  -3.841   0.594  0.00  0.00    +0.002 A 
ATOM     15  C   UNL     1       0.997  -4.632   1.700  0.00  0.00    +0.000 A 
ATOM     16  C   UNL     1       2.213  -4.544   2.352  0.00  0.00    +0.002 A 
ATOM     17  C   UNL     1       3.181  -3.671   1.897  0.00  0.00    +0.028 A 
ENDBRANCH   5  12
BRANCH   3  18
ATOM     18  C   UNL     1       7.216  -1.053  -0.551  0.00  0.00    +0.302 C 
ATOM     19  O   UNL     1       7.672  -0.005  -0.964  0.00  0.00    -0.265 OA
ATOM     20  N   UNL     1       8.029  -2.111  -0.357  0.00  0.00    -0.200 N 
ATOM     21  H   UNL     1       7.665  -2.947  -0.027  0.00  0.00    +0.178 HD
BRANCH  20  22
ATOM     22  N   UNL     1       9.398  -2.002  -0.631  0.00  0.00    -0.188 NA
ATOM     23  C   UNL     1      10.188  -3.030  -0.442  0.00  0.00    +0.136 C 
BRANCH  23  24
ATOM     24  C   UNL     1      11.558  -2.921  -0.717  0.00  0.00    +0.000 C 
ATOM     25  C   UNL     1      12.526  -3.913  -0.577  0.00  0.00    +0.004 A 
ATOM     26  C   UNL     1      12.462  -5.256  -0.145  0.00  0.00    +0.010 A 
ATOM     27  C   UNL     1      13.591  -6.007  -0.108  0.00  0.00    +0.001 A 
ATOM     28  C   UNL     1      14.831  -5.484  -0.490  0.00  0.00    +0.002 A 
ATOM     29  C   UNL     1      14.968  -4.205  -0.914  0.00  0.00    +0.026 A 
ATOM     30  C   UNL     1      13.830  -3.357  -0.980  0.00  0.00    +0.043 A 
ATOM     31  N   UNL     1      13.700  -2.101  -1.351  0.00  0.00    -0.380 N 
ATOM     32  C   UNL     1      12.293  -1.705  -1.234  0.00  0.00    +0.150 C 
ATOM     33  H   UNL     1      14.421  -1.528  -1.657  0.00  0.00    +0.160 HD
ENDBRANCH  23  24
ENDBRANCH  20  22
ENDBRANCH   3  18
TORSDOF 5
