REMARK  Name = ZINC35458045
REMARK  5 active torsions:
REMARK  status: ('A' for Active; 'I' for Inactive)
REMARK    1  A    between atoms: C_1  and  C_2
REMARK    2  A    between atoms: C_2  and  C_22
REMARK    3  A    between atoms: C_17  and  O_21
REMARK    4  A    between atoms: C_22  and  C_24
REMARK    5  A    between atoms: C_22  and  O_27
REMARK                            x       y       z     vdW  Elec       q    Type
REMARK                         _______ _______ _______ _____ _____    ______ ____
ROOT
ATOM      1  C   UNL     1      -0.019   1.526   0.010  0.00  0.00    +0.059 C 
ATOM      2  C   UNL     1       0.002  -0.004   0.002  0.00  0.00    +0.148 C 
ATOM      3  C   UNL     1       0.831  -0.534  -1.192  0.00  0.00    +0.089 C 
ATOM      4  C   UNL     1       2.204  -0.702  -0.570  0.00  0.00    -0.001 A 
ATOM      5  C   UNL     1       3.452  -0.869  -1.125  0.00  0.00    +0.008 A 
ATOM      6  C   UNL     1       4.571  -0.993  -0.315  0.00  0.00    +0.013 A 
ATOM      7  C   UNL     1       4.432  -0.947   1.068  0.00  0.00    +0.037 A 
ATOM      8  C   UNL     1       3.158  -0.781   1.639  0.00  0.00    +0.075 A 
ATOM      9  C   UNL     1       2.031  -0.659   0.812  0.00  0.00    +0.136 A 
ATOM     10  O   UNL     1       0.721  -0.510   1.139  0.00  0.00    -0.481 OA
ATOM     11  C   UNL     1       3.005  -0.735   3.104  0.00  0.00    +0.198 C 
ATOM     12  O   UNL     1       1.902  -0.593   3.597  0.00  0.00    -0.286 OA
ATOM     13  C   UNL     1       4.193  -0.863   3.974  0.00  0.00    +0.037 A 
ATOM     14  C   UNL     1       4.058  -0.822   5.357  0.00  0.00    +0.012 A 
ATOM     15  C   UNL     1       5.176  -0.942   6.168  0.00  0.00    +0.004 A 
ATOM     16  C   UNL     1       6.429  -1.102   5.614  0.00  0.00    +0.046 A 
ATOM     17  C   UNL     1       6.588  -1.146   4.232  0.00  0.00    +0.128 A 
ATOM     18  C   UNL     1       5.469  -1.028   3.402  0.00  0.00    +0.074 A 
ATOM     19  C   UNL     1       5.622  -1.075   1.937  0.00  0.00    +0.198 C 
ATOM     20  O   UNL     1       6.723  -1.218   1.444  0.00  0.00    -0.286 OA
ENDROOT
BRANCH  17  21
ATOM     21  O   UNL     1       7.822  -1.304   3.693  0.00  0.00    -0.506 OA
ATOM     22  H   UNL     1       8.075  -2.226   3.553  0.00  0.00    +0.292 HD
ENDBRANCH  17  21
BRANCH   2  23
ATOM     23  C   UNL     1      -1.422  -0.563  -0.031  0.00  0.00    +0.271 C 
BRANCH  23  24
ATOM     24  C   UNL     1      -2.180  -0.078   1.178  0.00  0.00    +0.388 C 
ATOM     25  O   UNL     1      -2.416   1.110   1.314  0.00  0.00    -0.243 OA
ATOM     26  O   UNL     1      -2.557  -0.875   2.021  0.00  0.00    -0.243 OA
ENDBRANCH  23  24
BRANCH  23  27
ATOM     27  O   UNL     1      -1.373  -1.991  -0.022  0.00  0.00    -0.377 OA
ATOM     28  H   UNL     1      -0.938  -2.365   0.757  0.00  0.00    +0.211 HD
ENDBRANCH  23  27
ENDBRANCH   2  23
TORSDOF 4
