REMARK  Name = ZINC00973918
REMARK  6 active torsions:
REMARK  status: ('A' for Active; 'I' for Inactive)
REMARK    1  A    between atoms: C_1  and  O_2
REMARK    2  A    between atoms: O_2  and  C_3
REMARK    3  A    between atoms: C_3  and  O_18
REMARK    4  A    between atoms: C_4  and  C_16
REMARK    5  A    between atoms: C_6  and  C_9
REMARK    6  A    between atoms: O_18  and  C_19
REMARK                            x       y       z     vdW  Elec       q    Type
REMARK                         _______ _______ _______ _____ _____    ______ ____
ROOT
ATOM      1  C   UNL     1       3.002  -2.181  -0.559  0.00  0.00    +0.274 C 
ATOM      2  C   UNL     1       3.112  -0.683  -0.897  0.00  0.00    +0.164 C 
ATOM      3  C   UNL     1       1.887   0.022  -1.481  0.00  0.00    +0.025 C 
ATOM      4  C   UNL     1       2.901  -0.628  -2.423  0.00  0.00    +0.143 C 
ATOM      5  C   UNL     1       2.666  -2.087  -2.823  0.00  0.00    +0.092 C 
ATOM      6  N   UNL     1       2.423  -2.497  -4.107  0.00  0.00    -0.347 N 
ATOM      7  C   UNL     1       0.527  -0.663  -1.317  0.00  0.00    +0.011 C 
ATOM      8  C   UNL     1      -0.128  -0.162  -0.026  0.00  0.00    +0.001 C 
ATOM      9  C   UNL     1      -0.241   1.363  -0.071  0.00  0.00    +0.000 C 
ATOM     10  C   UNL     1       1.155   1.984  -0.129  0.00  0.00    +0.001 C 
ATOM     11  C   UNL     1       1.852   1.552  -1.423  0.00  0.00    +0.011 C 
ATOM     12  H   UNL     1       2.289  -3.439  -4.298  0.00  0.00    +0.143 HD
ATOM     13  H   UNL     1       2.385  -1.846  -4.825  0.00  0.00    +0.143 HD
ATOM     14  N   UNL     1       2.730  -2.900  -1.819  0.00  0.00    -0.324 N 
ATOM     15  H   UNL     1       2.607  -3.917  -1.889  0.00  0.00    +0.166 HD
ENDROOT
BRANCH   1  17
ATOM     16  C   UNL     1       5.335  -2.611  -0.902  0.00  0.00    +0.199 C 
ATOM     17  O   UNL     1       4.230  -2.646   0.004  0.00  0.00    -0.334 OA
ENDBRANCH   1  17
BRANCH   4  18
ATOM     18  C   UNL     1       3.737   0.227  -3.281  0.00  0.00    +0.079 C 
ATOM     19  N   UNL     1       4.382   0.886  -3.943  0.00  0.00    -0.195 NA
ENDBRANCH   4  18
BRANCH   2  20
ATOM     20  C   UNL     1       4.152   0.103  -0.213  0.00  0.00    +0.079 C 
ATOM     21  N   UNL     1       4.955   0.709   0.314  0.00  0.00    -0.196 NA
ENDBRANCH   2  20
BRANCH   1  22
ATOM     22  O   UNL     1       1.930  -2.398   0.360  0.00  0.00    -0.334 OA
ATOM     23  C   UNL     1       1.774  -3.761   0.761  0.00  0.00    +0.199 C 
ENDBRANCH   1  22
TORSDOF 4
