REMARK  Name = ZINC30733381
REMARK  11 active torsions:
REMARK  status: ('A' for Active; 'I' for Inactive)
REMARK    1  A    between atoms: C_1  and  C_2
REMARK    2  A    between atoms: C_2  and  C_4
REMARK    3  A    between atoms: C_2  and  N_12
REMARK    4  A    between atoms: C_13  and  C_15
REMARK    5  A    between atoms: C_15  and  C_17
REMARK    6  A    between atoms: C_15  and  O_18
REMARK    7  A    between atoms: O_18  and  C_19
REMARK    8  A    between atoms: C_19  and  C_21
REMARK    9  A    between atoms: N_26  and  C_30
REMARK   10  A    between atoms: C_30  and  C_31
REMARK   11  A    between atoms: C_30  and  C_32
REMARK                            x       y       z     vdW  Elec       q    Type
REMARK                         _______ _______ _______ _____ _____    ______ ____
ROOT
ATOM      1  C   UNL     1      -3.442  -1.177   1.191  0.00  0.00    +0.259 C 
ATOM      2  C   UNL     1      -4.360  -0.177   0.484  0.00  0.00    +0.062 C 
ENDROOT
BRANCH   1   4
ATOM      3  N   UNL     1      -1.372  -0.511   0.012  0.00  0.00    -0.306 N 
ATOM      4  C   UNL     1      -2.029  -0.655   1.181  0.00  0.00    +0.254 C 
ATOM      5  O   UNL     1      -1.481  -0.365   2.224  0.00  0.00    -0.272 OA
ATOM      6  H   UNL     1      -1.810  -0.743  -0.822  0.00  0.00    +0.149 HD
BRANCH   3   8
ATOM      7  C   UNL     1      -0.019   1.526   0.010  0.00  0.00    +0.033 C 
ATOM      8  C   UNL     1       0.002  -0.004   0.002  0.00  0.00    +0.102 C 
BRANCH   8   9
ATOM      9  C   UNL     1       0.707  -0.490  -1.238  0.00  0.00    -0.009 A 
ATOM     10  C   UNL     1      -0.023  -0.817  -2.365  0.00  0.00    +0.008 A 
ATOM     11  C   UNL     1       0.623  -1.263  -3.502  0.00  0.00    +0.020 A 
ATOM     12  C   UNL     1       2.002  -1.382  -3.514  0.00  0.00    +0.042 A 
ATOM     13  C   UNL     1       2.733  -1.054  -2.386  0.00  0.00    +0.040 A 
ATOM     14  C   UNL     1       2.086  -0.603  -1.250  0.00  0.00    +0.047 A 
ATOM     15 CL   UNL     1       3.004  -0.186   0.164  0.00  0.00    -0.083 Cl
ATOM     16 CL   UNL     1       2.813  -1.942  -4.942  0.00  0.00    -0.083 Cl
ENDBRANCH   8   9
ENDBRANCH   3   8
ENDBRANCH   1   4
BRANCH   1  17
ATOM     17  O   UNL     1      -3.877  -1.349   2.542  0.00  0.00    -0.449 OA
BRANCH  17  18
ATOM     18  C   UNL     1      -4.777  -2.323   2.776  0.00  0.00    +0.341 C 
ATOM     19  O   UNL     1      -5.183  -3.008   1.858  0.00  0.00    -0.245 OA
BRANCH  18  20
ATOM     20  C   UNL     1      -5.271  -2.558   4.146  0.00  0.00    +0.078 A 
ATOM     21  C   UNL     1      -6.200  -3.569   4.399  0.00  0.00    +0.029 A 
ATOM     22  C   UNL     1      -6.632  -3.747   5.714  0.00  0.00    +0.039 A 
ATOM     23  C   UNL     1      -7.564  -4.665   6.363  0.00  0.00    +0.144 A 
ATOM     24  N   UNL     1      -7.581  -4.376   7.632  0.00  0.00    -0.177 NA
ATOM     25  N   UNL     1      -6.714  -3.311   7.896  0.00  0.00    -0.244 N 
ATOM     26  C   UNL     1      -6.122  -2.912   6.731  0.00  0.00    +0.158 A 
ATOM     27  N   UNL     1      -5.238  -1.964   6.437  0.00  0.00    -0.235 NA
ATOM     28  C   UNL     1      -4.808  -1.774   5.212  0.00  0.00    +0.128 A 
BRANCH  25  29
ATOM     29  C   UNL     1      -6.477  -2.717   9.214  0.00  0.00    +0.103 C 
ATOM     30  C   UNL     1      -7.793  -2.169   9.770  0.00  0.00    +0.032 C 
ATOM     31  C   UNL     1      -5.927  -3.784  10.162  0.00  0.00    +0.032 C 
ENDBRANCH  25  29
ENDBRANCH  18  20
ENDBRANCH  17  18
ENDBRANCH   1  17
TORSDOF 7
