REMARK  Name = ZINC05372315
REMARK  8 active torsions:
REMARK  status: ('A' for Active; 'I' for Inactive)
REMARK    1  A    between atoms: C_1  and  C_2
REMARK    2  A    between atoms: C_2  and  C_3
REMARK    3  A    between atoms: C_3  and  O_29
REMARK    4  A    between atoms: C_7  and  O_24
REMARK    5  A    between atoms: C_10  and  O_11
REMARK    6  A    between atoms: C_18  and  O_22
REMARK    7  A    between atoms: O_22  and  C_23
REMARK    8  A    between atoms: C_25  and  O_28
REMARK                            x       y       z     vdW  Elec       q    Type
REMARK                         _______ _______ _______ _____ _____    ______ ____
ROOT
ATOM      1  C   UNL     1       0.241   1.456  -2.432  0.00  0.00    +0.073 C 
ATOM      2  C   UNL     1       1.588   2.160  -2.284  0.00  0.00    +0.074 C 
ATOM      3  C   UNL     1       2.197   1.864  -0.937  0.00  0.00    +0.007 A 
ATOM      4  C   UNL     1       1.462   1.379   0.115  0.00  0.00    +0.030 A 
ATOM      5  C   UNL     1       2.079   1.136   1.350  0.00  0.00    +0.134 A 
ATOM      6  C   UNL     1       3.440   1.378   1.521  0.00  0.00    +0.078 A 
ATOM      7  C   UNL     1       4.196   1.873   0.440  0.00  0.00    +0.078 A 
ATOM      8  C   UNL     1       3.567   2.112  -0.781  0.00  0.00    +0.132 A 
ATOM      9  C   UNL     1       5.636   2.135   0.605  0.00  0.00    +0.198 C 
ATOM     10  O   UNL     1       6.288   2.562  -0.328  0.00  0.00    -0.286 OA
ATOM     11  C   UNL     1       6.286   1.875   1.906  0.00  0.00    +0.037 A 
ATOM     12  C   UNL     1       7.646   2.118   2.072  0.00  0.00    +0.012 A 
ATOM     13  C   UNL     1       8.251   1.873   3.294  0.00  0.00    +0.004 A 
ATOM     14  C   UNL     1       7.515   1.387   4.356  0.00  0.00    +0.046 A 
ATOM     15  C   UNL     1       6.154   1.137   4.213  0.00  0.00    +0.132 A 
ATOM     16  C   UNL     1       5.530   1.381   2.985  0.00  0.00    +0.075 A 
ATOM     17  C   UNL     1       4.088   1.121   2.819  0.00  0.00    +0.202 C 
ATOM     18  O   UNL     1       3.435   0.695   3.752  0.00  0.00    -0.286 OA
ATOM     19  C   UNL     1      -0.013   1.086   0.008  0.00  0.00    +0.151 C 
ATOM     20  C   UNL     1      -0.616   1.791  -1.205  0.00  0.00    +0.071 C 
ENDROOT
BRANCH   1  22
ATOM     21  C   UNL     1       0.411   1.636  -4.918  0.00  0.00    +0.007 C 
ATOM     22  C   UNL     1      -0.461   1.948  -3.700  0.00  0.00    +0.032 C 
ENDBRANCH   1  22
BRANCH   8  23
ATOM     23  O   UNL     1       4.288   2.587  -1.827  0.00  0.00    -0.506 OA
ATOM     24  H   UNL     1       4.675   1.897  -2.384  0.00  0.00    +0.292 HD
ENDBRANCH   8  23
BRANCH  15  25
ATOM     25  O   UNL     1       5.435   0.661   5.259  0.00  0.00    -0.494 OA
ATOM     26  C   UNL     1       6.140   0.436   6.481  0.00  0.00    +0.277 C 
ENDBRANCH  15  25
BRANCH   5  27
ATOM     27  O   UNL     1       1.345   0.659   2.386  0.00  0.00    -0.506 OA
ATOM     28  H   UNL     1       1.311  -0.306   2.433  0.00  0.00    +0.292 HD
ENDBRANCH   5  27
BRANCH  19  29
ATOM     29  O   UNL     1      -0.671   1.541   1.192  0.00  0.00    -0.387 OA
ATOM     30  H   UNL     1      -1.610   1.313   1.233  0.00  0.00    +0.210 HD
ENDBRANCH  19  29
BRANCH   1  31
ATOM     31  O   UNL     1       0.441   0.044  -2.509  0.00  0.00    -0.388 OA
ATOM     32  H   UNL     1       0.990  -0.236  -3.255  0.00  0.00    +0.210 HD
ENDBRANCH   1  31
TORSDOF 6
