REMARK  Name = ZINC63514051
REMARK  9 active torsions:
REMARK  status: ('A' for Active; 'I' for Inactive)
REMARK    1  A    between atoms: C_1  and  C_2
REMARK    2  A    between atoms: C_4  and  C_14
REMARK    3  A    between atoms: C_7  and  O_12
REMARK    4  A    between atoms: O_12  and  C_13
REMARK    5  A    between atoms: C_14  and  C_15
REMARK    6  A    between atoms: C_15  and  N_16
REMARK    7  A    between atoms: C_17  and  C_19
REMARK    8  A    between atoms: C_24  and  C_33
REMARK    9  A    between atoms: C_26  and  C_29
REMARK                            x       y       z     vdW  Elec       q    Type
REMARK                         _______ _______ _______ _____ _____    ______ ____
ROOT
ATOM      1  N   UNL     1       0.997  -0.729  -4.977  0.00  0.00    -0.313 N 
ATOM      2  C   UNL     1       1.750  -1.249  -5.967  0.00  0.00    +0.236 C 
ATOM      3  O   UNL     1       2.731  -1.910  -5.699  0.00  0.00    -0.274 OA
ATOM      4  H   UNL     1       0.212  -0.201  -5.192  0.00  0.00    +0.149 HD
ENDROOT
BRANCH   2   5
ATOM      5  C   UNL     1       1.373  -1.009  -7.406  0.00  0.00    +0.185 C 
ATOM      6  C   UNL     1       1.443   0.465  -7.731  0.00  0.00    +0.047 C 
ATOM      7  C   UNL     1       2.371   0.606  -8.704  0.00  0.00    +0.138 C 
ATOM      8  N   UNL     1       2.784   1.740  -9.321  0.00  0.00    -0.230 NA
ATOM      9  C   UNL     1       3.710   1.703 -10.262  0.00  0.00    +0.081 C 
ATOM     10  C   UNL     1       4.300   0.419 -10.644  0.00  0.00    +0.056 C 
ATOM     11  C   UNL     1       3.882  -0.701 -10.024  0.00  0.00    +0.115 C 
ATOM     12  N   UNL     1       2.914  -0.623  -9.048  0.00  0.00    -0.215 N 
ATOM     13  N   UNL     1       2.357  -1.635  -8.307  0.00  0.00    -0.218 NA
ATOM     14  H   UNL     1       3.062  -2.131  -7.783  0.00  0.00    +0.146 HD
BRANCH   9  15
ATOM     15  C   UNL     1       4.145   2.945 -10.922  0.00  0.00    +0.038 A 
ATOM     16  C   UNL     1       3.721   4.244 -10.704  0.00  0.00    +0.017 A 
ATOM     17  C   UNL     1       4.319   5.208 -11.484  0.00  0.00    +0.008 A 
ATOM     18  C   UNL     1       5.255   4.834 -12.388  0.00  0.00    +0.046 A 
ATOM     19  S   UNL     1       5.363   3.168 -12.205  0.00  0.00    -0.095 S 
ENDBRANCH   9  15
BRANCH  11  20
ATOM     20  C   UNL     1       4.471  -2.036 -10.398  0.00  0.00    +0.363 C 
ATOM     21  F   UNL     1       5.426  -1.859 -11.406  0.00  0.00    -0.181 F 
ATOM     22  F   UNL     1       5.079  -2.609  -9.276  0.00  0.00    -0.181 F 
ATOM     23 CL   UNL     1       3.163  -3.125 -10.994  0.00  0.00    -0.041 Cl
ENDBRANCH  11  20
ENDBRANCH   2   5
BRANCH   1  24
ATOM     24  C   UNL     1       1.363  -0.963  -3.578  0.00  0.00    +0.108 C 
BRANCH  24  25
ATOM     25  C   UNL     1       0.352  -0.269  -2.664  0.00  0.00    +0.052 C 
BRANCH  25  28
ATOM     26  C   UNL     1      -0.019   1.526   0.010  0.00  0.00    +0.035 C 
ATOM     27  C   UNL     1       0.002  -0.004   0.002  0.00  0.00    +0.103 C 
ATOM     28  C   UNL     1       0.729  -0.509  -1.224  0.00  0.00    -0.037 C 
ATOM     29  C   UNL     1       1.785  -1.220  -0.768  0.00  0.00    +0.003 A 
ATOM     30  C   UNL     1       2.858  -1.954  -1.447  0.00  0.00    +0.055 A 
ATOM     31  C   UNL     1       3.803  -2.586  -0.711  0.00  0.00    +0.121 A 
ATOM     32  C   UNL     1       3.796  -2.567   0.695  0.00  0.00    +0.047 A 
ATOM     33  C   UNL     1       2.851  -1.919   1.409  0.00  0.00    +0.029 A 
ATOM     34  C   UNL     1       1.779  -1.200   0.713  0.00  0.00    +0.043 A 
ATOM     35  N   UNL     1       0.758  -0.506   1.155  0.00  0.00    -0.378 N 
ATOM     36  H   UNL     1       0.540  -0.349   2.087  0.00  0.00    +0.160 HD
BRANCH  31  37
ATOM     37  O   UNL     1       4.792  -3.263  -1.353  0.00  0.00    -0.495 OA
ATOM     38  C   UNL     1       5.767  -3.915  -0.537  0.00  0.00    +0.277 C 
ENDBRANCH  31  37
ENDBRANCH  25  28
ENDBRANCH  24  25
ENDBRANCH   1  24
TORSDOF 7
