REMARK  Name = ZINC24964113
REMARK  10 active torsions:
REMARK  status: ('A' for Active; 'I' for Inactive)
REMARK    1  A    between atoms: C_1  and  C_2
REMARK    2  A    between atoms: C_2  and  C_3
REMARK    3  A    between atoms: C_2  and  O_4
REMARK    4  A    between atoms: O_4  and  C_5
REMARK    5  A    between atoms: C_5  and  C_7
REMARK    6  A    between atoms: C_11  and  N_12
REMARK    7  A    between atoms: C_13  and  C_15
REMARK    8  A    between atoms: C_15  and  N_16
REMARK    9  A    between atoms: C_19  and  C_23
REMARK   10  A    between atoms: C_19  and  C_24
REMARK                            x       y       z     vdW  Elec       q    Type
REMARK                         _______ _______ _______ _____ _____    ______ ____
ROOT
ATOM      1  N   UNL     1      -2.757   3.147   1.700  0.00  0.00    -0.278 N 
ATOM      2  C   UNL     1      -1.652   2.419   1.444  0.00  0.00    +0.236 C 
ATOM      3  O   UNL     1      -0.989   1.980   2.360  0.00  0.00    -0.274 OA
ATOM      4  H   UNL     1      -3.357   3.545   0.869  0.00  0.00    +0.155 HD
ENDROOT
BRANCH   1   9
ATOM      5  C   UNL     1      -4.230   4.114   3.470  0.00  0.00    +0.091 A 
ATOM      6  C   UNL     1      -4.404   4.226   4.909  0.00  0.00    -0.021 A 
ATOM      7  C   UNL     1      -3.463   3.604   5.651  0.00  0.00    -0.004 A 
ATOM      8  S   UNL     1      -2.364   2.873   4.471  0.00  0.00    -0.077 S 
ATOM      9  C   UNL     1      -3.136   3.394   3.010  0.00  0.00    +0.086 A 
ATOM     10  C   UNL     1      -3.382   3.549   7.146  0.00  0.00    +0.043 C 
ATOM     11  C   UNL     1      -4.320   4.620   7.720  0.00  0.00    +0.005 C 
ATOM     12  C   UNL     1      -5.678   4.514   7.019  0.00  0.00    +0.005 C 
ATOM     13  C   UNL     1      -5.552   4.980   5.568  0.00  0.00    +0.037 C 
BRANCH   5  14
ATOM     14  C   UNL     1      -5.174   4.739   2.541  0.00  0.00    +0.342 C 
ATOM     15  O   UNL     1      -6.146   4.118   2.153  0.00  0.00    -0.245 OA
BRANCH  14  16
ATOM     16  O   UNL     1      -4.967   6.001   2.115  0.00  0.00    -0.458 OA
BRANCH  16  18
ATOM     17  C   UNL     1      -7.052   7.252   1.986  0.00  0.00    +0.052 C 
ATOM     18  C   UNL     1      -5.943   6.556   1.194  0.00  0.00    +0.171 C 
ATOM     19  C   UNL     1      -5.259   7.569   0.274  0.00  0.00    +0.052 C 
ENDBRANCH  16  18
ENDBRANCH  14  16
ENDBRANCH   5  14
ENDBRANCH   1   9
BRANCH   2  20
ATOM     20  C   UNL     1      -1.239   2.150   0.020  0.00  0.00    +0.214 C 
BRANCH  20  21
ATOM     21  N   UNL     1      -0.016   1.343   0.009  0.00  0.00    -0.215 N 
ATOM     22  C   UNL     1       0.002  -0.004   0.002  0.00  0.00    +0.254 C 
ATOM     23  O   UNL     1      -0.954  -0.749   0.008  0.00  0.00    -0.272 OA
ATOM     24  C   UNL     1       1.467  -0.394  -0.014  0.00  0.00    +0.168 C 
ATOM     25  N   UNL     1       2.170   0.901  -0.014  0.00  0.00    -0.279 N 
ATOM     26  C   UNL     1       1.220   1.854   0.000  0.00  0.00    +0.310 C 
ATOM     27  O   UNL     1       1.460   3.045   0.004  0.00  0.00    -0.252 OA
ATOM     28  C   UNL     1       1.799  -1.187  -1.280  0.00  0.00    +0.050 C 
ATOM     29  H   UNL     1       3.269   0.929  -0.024  0.00  0.00    +0.152 HD
BRANCH  24  30
ATOM     30  C   UNL     1       1.817  -1.191   1.216  0.00  0.00    +0.137 A 
ATOM     31  C   UNL     1       3.018  -1.218   1.821  0.00  0.00    +0.047 A 
ATOM     32  C   UNL     1       2.900  -2.089   2.928  0.00  0.00    +0.041 A 
ATOM     33  C   UNL     1       1.634  -2.543   2.933  0.00  0.00    +0.195 A 
ATOM     34  O   UNL     1       0.981  -1.991   1.898  0.00  0.00    -0.465 OA
ENDBRANCH  24  30
ENDBRANCH  20  21
ENDBRANCH   2  20
TORSDOF 7
