REMARK  Name = ZINC57854750
REMARK  7 active torsions:
REMARK  status: ('A' for Active; 'I' for Inactive)
REMARK    1  A    between atoms: C_1  and  C_2
REMARK    2  A    between atoms: N_5  and  C_8
REMARK    3  A    between atoms: C_8  and  C_10
REMARK    4  A    between atoms: C_8  and  C_23
REMARK    5  A    between atoms: C_10  and  N_11
REMARK    6  A    between atoms: C_18  and  C_21
REMARK    7  A    between atoms: C_21  and  O_22
REMARK                            x       y       z     vdW  Elec       q    Type
REMARK                         _______ _______ _______ _____ _____    ______ ____
ROOT
ATOM      1  C   UNL     1       1.710  -3.911  -0.027  0.00  0.00    -0.020 C 
ENDROOT
BRANCH   1   6
ATOM      2  C   UNL     1       0.588   1.671   0.309  0.00  0.00    +0.007 C 
ATOM      3  C   UNL     1       0.442   0.150   0.220  0.00  0.00    -0.018 C 
ATOM      4  C   UNL     1       1.110  -0.354  -1.063  0.00  0.00    -0.015 C 
ATOM      5  C   UNL     1       1.030  -1.881  -1.106  0.00  0.00    -0.078 C 
ATOM      6  N   UNL     1       1.721  -2.444   0.060  0.00  0.00    +0.385 N 
ATOM      7  C   UNL     1       1.043  -2.023   1.292  0.00  0.00    -0.078 C 
ATOM      8  C   UNL     1       1.123  -0.501   1.428  0.00  0.00    -0.015 C 
ATOM      9  H   UNL     1       2.676  -2.118   0.074  0.00  0.00    -0.081 HD
ENDBRANCH   1   6
BRANCH   1  10
ATOM     10  C   UNL     1       2.481  -4.488   1.132  0.00  0.00    -0.059 A 
ATOM     11  C   UNL     1       3.650  -3.883   1.555  0.00  0.00    +0.002 A 
ATOM     12  C   UNL     1       4.357  -4.413   2.618  0.00  0.00    +0.000 A 
ATOM     13  C   UNL     1       3.895  -5.548   3.259  0.00  0.00    +0.000 A 
ATOM     14  C   UNL     1       2.726  -6.152   2.837  0.00  0.00    +0.000 A 
ATOM     15  C   UNL     1       2.016  -5.620   1.776  0.00  0.00    +0.002 A 
ENDBRANCH   1  10
BRANCH   1  16
ATOM     16  C   UNL     1       2.360  -4.349  -1.341  0.00  0.00    +0.095 C 
BRANCH  16  17
ATOM     17  N   UNL     1       2.292  -5.808  -1.456  0.00  0.00    -0.300 N 
ATOM     18  C   UNL     1       2.895  -6.431  -2.488  0.00  0.00    +0.302 C 
ATOM     19  O   UNL     1       3.417  -5.778  -3.371  0.00  0.00    -0.253 OA
ATOM     20  N   UNL     1       2.919  -7.777  -2.541  0.00  0.00    -0.285 N 
ATOM     21  C   UNL     1       2.193  -8.579  -1.547  0.00  0.00    +0.109 C 
ATOM     22  C   UNL     1       1.272  -9.559  -2.280  0.00  0.00    +0.019 C 
ATOM     23  C   UNL     1       2.098 -10.383  -3.271  0.00  0.00    +0.009 C 
ATOM     24  C   UNL     1       2.735  -9.453  -4.305  0.00  0.00    +0.032 C 
ATOM     25  C   UNL     1       3.667  -8.471  -3.598  0.00  0.00    +0.115 C 
ATOM     26  H   UNL     1       1.814  -6.325  -0.789  0.00  0.00    +0.150 HD
BRANCH  24  27
ATOM     27  C   UNL     1       3.532 -10.281  -5.315  0.00  0.00    +0.160 C 
BRANCH  27  28
ATOM     28  O   UNL     1       4.030  -9.425  -6.346  0.00  0.00    -0.395 OA
ATOM     29  H   UNL     1       4.546  -9.884  -7.022  0.00  0.00    +0.209 HD
ENDBRANCH  27  28
ENDBRANCH  24  27
ENDBRANCH  16  17
ENDBRANCH   1  16
TORSDOF 6
