REMARK  Name = ZINC13008323
REMARK  7 active torsions:
REMARK  status: ('A' for Active; 'I' for Inactive)
REMARK    1  A    between atoms: C_1  and  C_2
REMARK    2  A    between atoms: C_3  and  C_15
REMARK    3  A    between atoms: C_4  and  C_14
REMARK    4  A    between atoms: N_5  and  C_7
REMARK    5  A    between atoms: C_7  and  C_8
REMARK    6  A    between atoms: C_15  and  N_16
REMARK    7  A    between atoms: N_16  and  C_17
REMARK                            x       y       z     vdW  Elec       q    Type
REMARK                         _______ _______ _______ _____ _____    ______ ____
ROOT
ATOM      1  C   UNL     1      -1.206  -0.904   0.009  0.00  0.00    +0.068 C 
ATOM      2  C   UNL     1       0.002  -0.004   0.002  0.00  0.00    +0.065 A 
ATOM      3  C   UNL     1      -0.017   1.395   0.010  0.00  0.00    +0.013 A 
ATOM      4  C   UNL     1       1.265   1.828  -0.000  0.00  0.00    +0.041 A 
ATOM      5  N   UNL     1       2.066   0.743  -0.014  0.00  0.00    -0.264 N 
ATOM      6  N   UNL     1       1.250  -0.396  -0.012  0.00  0.00    -0.176 NA
ATOM      7  C   UNL     1       1.716   3.266   0.003  0.00  0.00    +0.065 C 
ENDROOT
BRANCH   5   8
ATOM      8  C   UNL     1       3.531   0.753  -0.027  0.00  0.00    +0.178 C 
BRANCH   8   9
ATOM      9  C   UNL     1       4.020   0.765  -1.452  0.00  0.00    -0.026 A 
ATOM     10  C   UNL     1       4.259  -0.427  -2.111  0.00  0.00    +0.005 A 
ATOM     11  C   UNL     1       4.703  -0.416  -3.420  0.00  0.00    +0.000 A 
ATOM     12  C   UNL     1       4.919   0.786  -4.067  0.00  0.00    +0.000 A 
ATOM     13  C   UNL     1       4.685   1.978  -3.407  0.00  0.00    +0.000 A 
ATOM     14  C   UNL     1       4.236   1.967  -2.099  0.00  0.00    +0.005 A 
ENDBRANCH   8   9
ENDBRANCH   5   8
BRANCH   3  15
ATOM     15  C   UNL     1      -1.247   2.264   0.021  0.00  0.00    +0.140 C 
BRANCH  15  16
ATOM     16  N   UNL     1      -1.639   2.539   1.405  0.00  0.00    -0.337 N 
ATOM     17  H   UNL     1      -1.120   2.172   2.138  0.00  0.00    +0.146 HD
BRANCH  16  18
ATOM     18  C   UNL     1      -2.749   3.324   1.668  0.00  0.00    +0.067 A 
ATOM     19  C   UNL     1      -3.508   3.862   0.607  0.00  0.00    +0.157 A 
ATOM     20  N   UNL     1      -4.554   4.601   0.852  0.00  0.00    -0.177 NA
ATOM     21  N   UNL     1      -4.949   4.878   2.164  0.00  0.00    -0.242 N 
ATOM     22  H   UNL     1      -5.730   5.430   2.325  0.00  0.00    +0.192 HD
ATOM     23  C   UNL     1      -4.253   4.385   3.208  0.00  0.00    +0.281 A 
ATOM     24  O   UNL     1      -4.604   4.631   4.352  0.00  0.00    -0.265 OA
ATOM     25  C   UNL     1      -3.127   3.583   2.973  0.00  0.00    +0.106 A 
ATOM     26 BR   UNL     1      -2.138   2.871   4.418  0.00  0.00    -0.043 Br
ENDBRANCH  16  18
ENDBRANCH  15  16
ENDBRANCH   3  15
TORSDOF 5
