REMARK  Name = ZINC12003551
REMARK  9 active torsions:
REMARK  status: ('A' for Active; 'I' for Inactive)
REMARK    1  A    between atoms: C_1  and  C_2
REMARK    2  A    between atoms: C_2  and  C_3
REMARK    3  A    between atoms: C_6  and  C_8
REMARK    4  A    between atoms: C_8  and  N_67
REMARK    5  A    between atoms: C_11  and  C_14
REMARK    6  A    between atoms: C_14  and  C_33
REMARK    7  A    between atoms: N_17  and  C_21
REMARK    8  A    between atoms: C_21  and  C_22
REMARK    9  A    between atoms: C_33  and  C_34
REMARK                            x       y       z     vdW  Elec       q    Type
REMARK                         _______ _______ _______ _____ _____    ______ ____
ROOT
ATOM      1  C   UNL     1      -4.310   0.575   1.077  0.00  0.00    +0.115 C 
ATOM      2  C   UNL     1      -3.178   1.536   0.771  0.00  0.00    +0.247 C 
ATOM      3  O   UNL     1      -3.249   2.580   0.160  0.00  0.00    -0.273 OA
ATOM      4  N   UNL     1      -2.076   0.985   1.317  0.00  0.00    -0.221 N 
ATOM      5  C   UNL     1      -2.353  -0.173   1.926  0.00  0.00    +0.309 C 
ATOM      6  O   UNL     1      -1.522  -0.853   2.495  0.00  0.00    -0.252 OA
ATOM      7  N   UNL     1      -3.655  -0.502   1.838  0.00  0.00    -0.285 N 
ATOM      8  H   UNL     1      -4.079  -1.294   2.204  0.00  0.00    +0.151 HD
ENDROOT
BRANCH   1  11
ATOM      9  C   UNL     1      -4.456  -1.212  -2.330  0.00  0.00    -0.078 C 
ATOM     10  C   UNL     1      -3.828  -0.612  -1.070  0.00  0.00    -0.013 C 
ATOM     11  C   UNL     1      -4.924   0.027  -0.213  0.00  0.00    +0.018 C 
ATOM     12  C   UNL     1      -5.976  -1.032   0.131  0.00  0.00    -0.013 C 
ATOM     13  C   UNL     1      -6.541  -1.621  -1.164  0.00  0.00    -0.078 C 
ATOM     14  N   UNL     1      -5.440  -2.241  -1.931  0.00  0.00    +0.384 N 
ATOM     15  H   UNL     1      -4.972  -2.938  -1.339  0.00  0.00    -0.081 HD
BRANCH  14  16
ATOM     16  C   UNL     1      -5.978  -2.916  -3.130  0.00  0.00    -0.003 C 
BRANCH  16  20
ATOM     17  C   UNL     1      -8.356  -5.470  -2.054  0.00  0.00    +0.105 A 
ATOM     18  C   UNL     1      -9.216  -4.461  -2.287  0.00  0.00    +0.045 A 
ATOM     19  C   UNL     1      -8.445  -3.358  -2.719  0.00  0.00    +0.043 A 
ATOM     20  C   UNL     1      -7.162  -3.760  -2.733  0.00  0.00    +0.089 A 
ATOM     21  O   UNL     1      -7.114  -5.039  -2.326  0.00  0.00    -0.466 OA
BRANCH  17  23
ATOM     22  C   UNL     1      -8.996  -7.755  -2.774  0.00  0.00    +0.012 C 
ATOM     23  C   UNL     1      -8.725  -6.849  -1.572  0.00  0.00    +0.071 C 
ENDBRANCH  17  23
ENDBRANCH  16  20
ENDBRANCH  14  16
ENDBRANCH   1  11
BRANCH   1  24
ATOM     24  C   UNL     1      -5.379   1.263   1.929  0.00  0.00    +0.032 C 
ATOM     25  C   UNL     1      -4.730   1.848   3.185  0.00  0.00    +0.006 C 
ENDBRANCH   1  24
BRANCH   4  26
ATOM     26  C   UNL     1      -0.741   1.585   1.258  0.00  0.00    +0.166 C 
BRANCH  26  27
ATOM     27  C   UNL     1      -0.013   1.086   0.008  0.00  0.00    +0.229 C 
ATOM     28  C   UNL     1       1.425   1.623  -0.003  0.00  0.00    +0.275 C 
ATOM     29  O   UNL     1       2.072   1.148  -1.189  0.00  0.00    -0.485 OA
ATOM     30  C   UNL     1       1.373   1.258  -2.352  0.00  0.00    +0.162 A 
ATOM     31  C   UNL     1       2.046   1.163  -3.561  0.00  0.00    +0.049 A 
ATOM     32  C   UNL     1       1.351   1.271  -4.751  0.00  0.00    +0.004 A 
ATOM     33  C   UNL     1      -0.017   1.471  -4.739  0.00  0.00    +0.004 A 
ATOM     34  C   UNL     1      -0.693   1.567  -3.537  0.00  0.00    +0.049 A 
ATOM     35  C   UNL     1      -0.001   1.463  -2.340  0.00  0.00    +0.163 A 
ATOM     36  O   UNL     1      -0.679   1.566  -1.164  0.00  0.00    -0.480 OA
ENDBRANCH  26  27
ENDBRANCH   4  26
TORSDOF 7
