REMARK  Name = ZINC36969155
REMARK  7 active torsions:
REMARK  status: ('A' for Active; 'I' for Inactive)
REMARK    1  A    between atoms: C_1  and  C_2
REMARK    2  A    between atoms: C_3  and  C_9
REMARK    3  A    between atoms: C_4  and  C_8
REMARK    4  A    between atoms: C_9  and  N_10
REMARK    5  A    between atoms: N_10  and  C_11
REMARK    6  A    between atoms: C_11  and  C_13
REMARK    7  A    between atoms: C_11  and  C_14
REMARK                            x       y       z     vdW  Elec       q    Type
REMARK                         _______ _______ _______ _____ _____    ______ ____
ROOT
ATOM      1  N   UNL     1       1.375  -0.154  -2.999  0.00  0.00    +0.388 N 
ATOM      2  H   UNL     1       1.843   0.530  -2.426  0.00  0.00    -0.084 HD
ATOM      3  H   UNL     1       1.863  -1.035  -2.939  0.00  0.00    -0.084 HD
ENDROOT
BRANCH   1   4
ATOM      4  C   UNL     1       1.361   0.303  -4.395  0.00  0.00    -0.005 C 
ATOM      5  C   UNL     1       0.731   1.695  -4.470  0.00  0.00    -0.006 C 
BRANCH   4   6
ATOM      6  C   UNL     1       2.773   0.362  -4.918  0.00  0.00    +0.123 A 
ATOM      7  N   UNL     1       3.810   0.858  -4.293  0.00  0.00    -0.135 NA
ATOM      8  N   UNL     1       4.865   0.750  -5.021  0.00  0.00    -0.129 NA
ATOM      9  C   UNL     1       4.551   0.169  -6.168  0.00  0.00    +0.161 A 
ATOM     10  N   UNL     1       3.204  -0.097  -6.125  0.00  0.00    -0.288 N 
ATOM     11  C   UNL     1       2.585  -0.705  -7.177  0.00  0.00    +0.094 A 
ATOM     12  C   UNL     1       3.287  -1.057  -8.274  0.00  0.00    +0.018 A 
ATOM     13  C   UNL     1       4.667  -0.801  -8.348  0.00  0.00    +0.005 A 
ATOM     14  C   UNL     1       5.296  -0.188  -7.309  0.00  0.00    +0.048 A 
ENDBRANCH   4   6
ENDBRANCH   1   4
BRANCH   1  15
ATOM     15  C   UNL     1      -0.006  -0.327  -2.527  0.00  0.00    -0.042 C 
BRANCH  15  18
ATOM     16  C   UNL     1      -0.018   1.503   0.010  0.00  0.00    +0.065 C 
ATOM     17  C   UNL     1       0.002  -0.004   0.002  0.00  0.00    +0.035 A 
ATOM     18  C   UNL     1       0.008  -0.796  -1.095  0.00  0.00    -0.021 A 
ATOM     19  C   UNL     1       0.028  -2.127  -0.666  0.00  0.00    +0.061 A 
ATOM     20  N   UNL     1       0.035  -2.134   0.643  0.00  0.00    -0.179 NA
ATOM     21  N   UNL     1       0.024  -0.805   1.088  0.00  0.00    -0.281 N 
ATOM     22  H   UNL     1       0.029  -0.513   2.013  0.00  0.00    +0.189 HD
ATOM     23  C   UNL     1       0.040  -3.343  -1.556  0.00  0.00    +0.068 C 
ENDBRANCH  15  18
ENDBRANCH   1  15
TORSDOF 4
