REMARK  Name = ZINC02974020
REMARK  9 active torsions:
REMARK  status: ('A' for Active; 'I' for Inactive)
REMARK    1  A    between atoms: C_4  and  C_7
REMARK    2  A    between atoms: C_7  and  C_9
REMARK    3  A    between atoms: C_9  and  S_10
REMARK    4  A    between atoms: S_10  and  C_11
REMARK    5  A    between atoms: N_21  and  C_22
REMARK    6  A    between atoms: C_22  and  C_23
REMARK    7  A    between atoms: C_26  and  C_29
REMARK    8  A    between atoms: N_31  and  C_32
REMARK    9  A    between atoms: C_32  and  C_33
REMARK                            x       y       z     vdW  Elec       q    Type
REMARK                         _______ _______ _______ _____ _____    ______ ____
ROOT
ATOM      1  C   UNL     1       0.264   4.063   4.206  0.00  0.00    +0.173 A 
ATOM      2  N   UNL     1       0.992   3.785   5.259  0.00  0.00    -0.223 NA
ATOM      3  C   UNL     1       0.841   2.630   5.938  0.00  0.00    +0.079 A 
ATOM      4  C   UNL     1       1.619   2.334   7.062  0.00  0.00    +0.028 A 
ATOM      5  C   UNL     1       1.432   1.151   7.720  0.00  0.00    +0.002 A 
ATOM      6  C   UNL     1       0.480   0.236   7.290  0.00  0.00    +0.001 A 
ATOM      7  C   UNL     1      -0.296   0.497   6.194  0.00  0.00    +0.015 A 
ATOM      8  C   UNL     1      -0.127   1.696   5.503  0.00  0.00    +0.065 A 
ATOM      9  C   UNL     1      -0.935   2.033   4.323  0.00  0.00    +0.262 A 
ATOM     10  O   UNL     1      -1.787   1.272   3.904  0.00  0.00    -0.267 OA
ATOM     11  N   UNL     1      -0.693   3.219   3.718  0.00  0.00    -0.287 N 
ENDROOT
BRANCH   1  12
ATOM     12  S   UNL     1       0.531   5.596   3.380  0.00  0.00    -0.080 S 
BRANCH  12  13
ATOM     13  C   UNL     1       1.852   6.282   4.411  0.00  0.00    +0.157 C 
BRANCH  13  14
ATOM     14  C   UNL     1       2.255   7.633   3.878  0.00  0.00    +0.173 C 
ATOM     15  O   UNL     1       1.703   8.087   2.899  0.00  0.00    -0.291 OA
BRANCH  14  19
ATOM     16  C   UNL     1       5.319   9.845   5.805  0.00  0.00    +0.000 A 
ATOM     17  C   UNL     1       4.691  10.367   4.688  0.00  0.00    +0.001 A 
ATOM     18  C   UNL     1       3.694   9.654   4.056  0.00  0.00    +0.011 A 
ATOM     19  C   UNL     1       3.318   8.400   4.547  0.00  0.00    +0.018 A 
ATOM     20  C   UNL     1       3.953   7.882   5.680  0.00  0.00    +0.011 A 
ATOM     21  C   UNL     1       4.952   8.604   6.297  0.00  0.00    +0.001 A 
ENDBRANCH  14  19
ENDBRANCH  13  14
ENDBRANCH  12  13
ENDBRANCH   1  12
BRANCH  11  22
ATOM     22  C   UNL     1      -1.466   3.603   2.534  0.00  0.00    +0.131 C 
BRANCH  22  23
ATOM     23  C   UNL     1      -0.750   3.109   1.275  0.00  0.00    +0.009 C 
ATOM     24  C   UNL     1      -0.729   1.579   1.267  0.00  0.00    +0.006 C 
ATOM     25  C   UNL     1      -0.013   1.086   0.008  0.00  0.00    +0.013 C 
ATOM     26  C   UNL     1      -0.753   1.593  -1.232  0.00  0.00    +0.075 C 
ATOM     27  C   UNL     1      -0.773   3.123  -1.223  0.00  0.00    +0.013 C 
ATOM     28  C   UNL     1      -1.490   3.616   0.036  0.00  0.00    +0.006 C 
BRANCH  26  29
ATOM     29  C   UNL     1      -2.167   1.071  -1.221  0.00  0.00    +0.216 C 
ATOM     30  O   UNL     1      -2.545   0.364  -0.311  0.00  0.00    -0.276 OA
ATOM     31  N   UNL     1      -3.010   1.391  -2.222  0.00  0.00    -0.308 N 
ATOM     32  H   UNL     1      -2.708   1.957  -2.949  0.00  0.00    +0.149 HD
BRANCH  31  33
ATOM     33  C   UNL     1      -4.385   0.884  -2.212  0.00  0.00    +0.178 C 
BRANCH  33  34
ATOM     34  C   UNL     1      -5.114   1.383  -3.432  0.00  0.00    +0.122 A 
ATOM     35  C   UNL     1      -5.172   0.760  -4.623  0.00  0.00    +0.046 A 
ATOM     36  C   UNL     1      -5.954   1.575  -5.474  0.00  0.00    +0.041 A 
ATOM     37  C   UNL     1      -6.327   2.647  -4.752  0.00  0.00    +0.195 A 
ATOM     38  O   UNL     1      -5.820   2.522  -3.514  0.00  0.00    -0.466 OA
ENDBRANCH  33  34
ENDBRANCH  31  33
ENDBRANCH  26  29
ENDBRANCH  22  23
ENDBRANCH  11  22
TORSDOF 9
