REMARK  Name = ZINC15013312
REMARK  4 active torsions:
REMARK  status: ('A' for Active; 'I' for Inactive)
REMARK    1  A    between atoms: C_4  and  N_7
REMARK    2  A    between atoms: N_9  and  C_23
REMARK    3  A    between atoms: C_13  and  C_14
REMARK    4  A    between atoms: C_17  and  O_21
REMARK                            x       y       z     vdW  Elec       q    Type
REMARK                         _______ _______ _______ _____ _____    ______ ____
ROOT
ATOM      1  N   UNL     1       3.800  -1.242  -0.299  0.00  0.00    -0.225 NA
ATOM      2  C   UNL     1       3.932  -2.161   0.631  0.00  0.00    +0.173 C 
ATOM      3  N   UNL     1       5.002  -3.001   0.861  0.00  0.00    -0.214 N 
ATOM      4  C   UNL     1       4.968  -3.877   1.851  0.00  0.00    +0.263 C 
ATOM      5  O   UNL     1       5.903  -4.626   2.069  0.00  0.00    -0.269 OA
ATOM      6  C   UNL     1       3.748  -3.906   2.679  0.00  0.00    +0.078 C 
ATOM      7  C   UNL     1       3.449  -4.693   3.744  0.00  0.00    +0.028 C 
ATOM      8  S   UNL     1       2.773  -2.623   1.908  0.00  0.00    -0.048 S 
ENDROOT
BRANCH   7   9
ATOM      9  C   UNL     1       4.473  -5.576   4.315  0.00  0.00    -0.022 A 
ATOM     10  C   UNL     1       5.794  -5.128   4.447  0.00  0.00    +0.011 A 
ATOM     11  C   UNL     1       6.751  -5.960   4.983  0.00  0.00    +0.047 A 
ATOM     12  C   UNL     1       6.409  -7.243   5.393  0.00  0.00    +0.135 A 
ATOM     13  C   UNL     1       5.099  -7.694   5.266  0.00  0.00    +0.083 A 
ATOM     14  C   UNL     1       4.133  -6.867   4.736  0.00  0.00    +0.031 A 
ATOM     15 CL   UNL     1       4.681  -9.298   5.780  0.00  0.00    -0.080 Cl
BRANCH  12  16
ATOM     16  O   UNL     1       7.357  -8.060   5.921  0.00  0.00    -0.505 OA
ATOM     17  H   UNL     1       7.448  -7.989   6.881  0.00  0.00    +0.292 HD
ENDBRANCH  12  16
ENDBRANCH   7   9
BRANCH   1  21
ATOM     18  C   UNL     1       0.336   1.013  -0.503  0.00  0.00    +0.000 A 
ATOM     19  C   UNL     1       1.568   1.632  -0.617  0.00  0.00    +0.002 A 
ATOM     20  C   UNL     1       2.727   0.887  -0.550  0.00  0.00    +0.028 A 
ATOM     21  C   UNL     1       2.654  -0.496  -0.366  0.00  0.00    +0.067 A 
ATOM     22  C   UNL     1       1.407  -1.114  -0.251  0.00  0.00    +0.028 A 
ATOM     23  C   UNL     1       0.257  -0.356  -0.321  0.00  0.00    +0.002 A 
ENDBRANCH   1  21
BRANCH   3  24
ATOM     24  C   UNL     1       6.133  -2.925   0.039  0.00  0.00    +0.043 A 
ATOM     25  C   UNL     1       6.547  -4.039  -0.679  0.00  0.00    +0.024 A 
ATOM     26  C   UNL     1       7.663  -3.961  -1.490  0.00  0.00    +0.002 A 
ATOM     27  C   UNL     1       8.368  -2.775  -1.586  0.00  0.00    +0.000 A 
ATOM     28  C   UNL     1       7.958  -1.664  -0.872  0.00  0.00    +0.002 A 
ATOM     29  C   UNL     1       6.840  -1.734  -0.064  0.00  0.00    +0.024 A 
ENDBRANCH   3  24
TORSDOF 4
