REMARK  Name = ZINC14473433
REMARK  6 active torsions:
REMARK  status: ('A' for Active; 'I' for Inactive)
REMARK    1  A    between atoms: C_1  and  C_2
REMARK    2  A    between atoms: C_2  and  C_3
REMARK    3  A    between atoms: C_2  and  C_4
REMARK    4  A    between atoms: N_6  and  C_7
REMARK    5  A    between atoms: C_20  and  C_23
REMARK    6  A    between atoms: C_25  and  N_30
REMARK                            x       y       z     vdW  Elec       q    Type
REMARK                         _______ _______ _______ _____ _____    ______ ____
ROOT
ATOM      1  C   UNL     1      -1.245   5.145   2.304  0.00  0.00    +0.034 A 
ATOM      2  C   UNL     1      -0.654   5.813   1.240  0.00  0.00    +0.025 A 
ATOM      3  C   UNL     1      -0.567   7.189   1.249  0.00  0.00    +0.025 A 
ATOM      4  C   UNL     1      -1.058   7.918   2.326  0.00  0.00    +0.031 A 
ATOM      5  C   UNL     1      -1.658   7.242   3.394  0.00  0.00    -0.018 A 
ATOM      6  C   UNL     1      -1.746   5.867   3.379  0.00  0.00    +0.029 A 
ATOM      7  C   UNL     1      -2.192   8.058   4.506  0.00  0.00    +0.049 C 
ATOM      8  C   UNL     1      -2.317   7.520   5.885  0.00  0.00    -0.023 C 
ATOM      9  C   UNL     1      -2.154   8.517   6.746  0.00  0.00    -0.030 C 
ATOM     10  C   UNL     1      -1.868   9.817   5.992  0.00  0.00    +0.033 C 
ATOM     11  C   UNL     1      -1.255   9.290   4.688  0.00  0.00    +0.029 C 
ATOM     12  C   UNL     1      -1.448  10.133   3.441  0.00  0.00    +0.106 C 
ATOM     13  N   UNL     1      -0.931   9.315   2.323  0.00  0.00    -0.336 N 
ATOM     14  H   UNL     1      -0.495   9.752   1.574  0.00  0.00    +0.147 HD
ENDROOT
BRANCH  12  15
ATOM     15  C   UNL     1      -2.911  10.431   3.235  0.00  0.00    -0.007 A 
ATOM     16  C   UNL     1      -3.667   9.634   2.396  0.00  0.00    +0.039 A 
ATOM     17  C   UNL     1      -5.010   9.903   2.211  0.00  0.00    +0.127 A 
ATOM     18  C   UNL     1      -5.596  10.977   2.856  0.00  0.00    +0.034 A 
ATOM     19  C   UNL     1      -4.839  11.778   3.690  0.00  0.00    +0.022 A 
ATOM     20  C   UNL     1      -3.496  11.505   3.881  0.00  0.00    +0.046 A 
ATOM     21 CL   UNL     1      -2.546  12.511   4.928  0.00  0.00    -0.083 Cl
BRANCH  17  22
ATOM     22  N   UNL     1      -5.820   9.046   1.317  0.00  0.00    +0.056 N 
ATOM     23  O   UNL     1      -7.003   9.286   1.150  0.00  0.00    -0.126 OA
ATOM     24  O   UNL     1      -5.305   8.100   0.749  0.00  0.00    -0.126 OA
ENDBRANCH  17  22
ENDBRANCH  12  15
BRANCH   1  27
ATOM     25  C   UNL     1      -1.500   3.089   1.131  0.00  0.00    +0.220 C 
ATOM     26  O   UNL     1      -1.672   3.710   0.103  0.00  0.00    -0.275 OA
ATOM     27  N   UNL     1      -1.332   3.747   2.295  0.00  0.00    -0.285 N 
ATOM     28  H   UNL     1      -1.272   3.252   3.127  0.00  0.00    +0.155 HD
BRANCH  25  30
ATOM     29  C   UNL     1      -1.687   1.093  -0.329  0.00  0.00    +0.017 C 
ATOM     30  C   UNL     1      -1.474   1.583   1.105  0.00  0.00    +0.069 C 
ATOM     31  C   UNL     1      -0.121   1.087   1.618  0.00  0.00    +0.017 C 
ENDBRANCH  25  30
ENDBRANCH   1  27
TORSDOF 4
