REMARK  Name = ZINC09244344
REMARK  17 active torsions:
REMARK  status: ('A' for Active; 'I' for Inactive)
REMARK    1  A    between atoms: C_1  and  C_2
REMARK    2  A    between atoms: C_2  and  O_3
REMARK    3  A    between atoms: O_3  and  C_4
REMARK    4  A    between atoms: C_6  and  C_11
REMARK    5  A    between atoms: C_9  and  O_10
REMARK    6  A    between atoms: C_14  and  C_15
REMARK    7  A    between atoms: C_14  and  O_26
REMARK    8  A    between atoms: C_18  and  O_21
REMARK    9  A    between atoms: O_21  and  C_22
REMARK   10  A    between atoms: C_22  and  C_23
REMARK   11  A    between atoms: C_23  and  C_24
REMARK   12  A    between atoms: C_23  and  C_25
REMARK   13  A    between atoms: N_31  and  C_32
REMARK   14  A    between atoms: C_32  and  C_33
REMARK   15  A    between atoms: C_33  and  N_69
REMARK   16  A    between atoms: C_34  and  N_69
REMARK   17  A    between atoms: C_35  and  N_69
REMARK                            x       y       z     vdW  Elec       q    Type
REMARK                         _______ _______ _______ _____ _____    ______ ____
ROOT
ATOM      1  C   UNL     1       2.147   1.003  -0.105  0.00  0.00    +0.144 C 
ATOM      2  C   UNL     1       2.460   0.532  -1.506  0.00  0.00    +0.071 C 
ATOM      3  C   UNL     1       2.938   1.298  -2.552  0.00  0.00    +0.133 C 
ATOM      4  C   UNL     1       2.164  -0.840  -1.531  0.00  0.00    +0.249 C 
ATOM      5  O   UNL     1       2.286  -1.580  -2.490  0.00  0.00    -0.282 OA
ATOM      6  C   UNL     1       1.677  -1.234  -0.181  0.00  0.00    +0.288 C 
ATOM      7  O   UNL     1       1.336  -2.356   0.135  0.00  0.00    -0.266 OA
ATOM      8  N   UNL     1       1.670  -0.168   0.636  0.00  0.00    -0.285 N 
ENDROOT
BRANCH   1  11
ATOM      9  C   UNL     1       0.433   4.370  -0.042  0.00  0.00    +0.162 A 
ATOM     10  C   UNL     1       1.417   3.395  -0.006  0.00  0.00    +0.055 A 
ATOM     11  C   UNL     1       1.076   2.062  -0.144  0.00  0.00    -0.019 A 
ATOM     12  C   UNL     1      -0.247   1.699  -0.315  0.00  0.00    +0.009 A 
ATOM     13  C   UNL     1      -1.233   2.667  -0.357  0.00  0.00    +0.049 A 
ATOM     14  C   UNL     1      -0.898   4.004  -0.215  0.00  0.00    +0.158 A 
BRANCH  14  15
ATOM     15  O   UNL     1      -1.867   4.957  -0.250  0.00  0.00    -0.503 OA
ATOM     16  H   UNL     1      -2.052   5.298  -1.136  0.00  0.00    +0.292 HD
ENDBRANCH  14  15
BRANCH   9  17
ATOM     17  O   UNL     1       0.768   5.681   0.093  0.00  0.00    -0.489 OA
BRANCH  17  19
ATOM     18  C   UNL     1       2.334   7.496   0.402  0.00  0.00    +0.048 C 
ATOM     19  C   UNL     1       2.154   5.982   0.268  0.00  0.00    +0.226 C 
ENDBRANCH  17  19
ENDBRANCH   9  17
ENDBRANCH   1  11
BRANCH   3  20
ATOM     20  C   UNL     1       3.330   0.654  -3.816  0.00  0.00    +0.017 A 
ATOM     21  C   UNL     1       4.213  -0.432  -3.807  0.00  0.00    +0.015 A 
ATOM     22  C   UNL     1       4.571  -1.035  -4.991  0.00  0.00    +0.046 A 
ATOM     23  C   UNL     1       4.067  -0.558  -6.197  0.00  0.00    +0.121 A 
ATOM     24  C   UNL     1       3.194   0.524  -6.211  0.00  0.00    +0.046 A 
ATOM     25  C   UNL     1       2.825   1.130  -5.032  0.00  0.00    +0.015 A 
BRANCH  23  26
ATOM     26  O   UNL     1       4.428  -1.152  -7.362  0.00  0.00    -0.492 OA
BRANCH  26  27
ATOM     27  C   UNL     1       5.327  -2.259  -7.275  0.00  0.00    +0.232 C 
BRANCH  27  28
ATOM     28  C   UNL     1       5.616  -2.793  -8.680  0.00  0.00    +0.020 C 
ATOM     29  C   UNL     1       6.674  -3.895  -8.598  0.00  0.00    +0.010 C 
ATOM     30  C   UNL     1       4.331  -3.362  -9.283  0.00  0.00    +0.010 C 
ENDBRANCH  27  28
ENDBRANCH  26  27
ENDBRANCH  23  26
ENDBRANCH   3  20
BRANCH   3  31
ATOM     31  O   UNL     1       3.047   2.636  -2.414  0.00  0.00    -0.506 OA
ATOM     32  H   UNL     1       3.407   3.030  -3.260  0.00  0.00    +0.292 HD
ENDBRANCH   3  31
BRANCH   8  33
ATOM     33  C   UNL     1       1.252  -0.174   2.040  0.00  0.00    +0.090 C 
BRANCH  33  34
ATOM     34  C   UNL     1      -0.246   0.122   2.128  0.00  0.00    -0.060 C 
BRANCH  34  37
ATOM     35  C   UNL     1      -2.035   0.625   3.681  0.00  0.00    -0.097 C 
ATOM     36  C   UNL     1      -0.540  -1.228   4.116  0.00  0.00    -0.097 C 
ATOM     37  N   UNL     1      -0.647   0.133   3.551  0.00  0.00    +0.377 N 
ATOM     38  H   UNL     1      -0.021   0.760   4.069  0.00  0.00    -0.083 HD
ENDBRANCH  34  37
ENDBRANCH  33  34
ENDBRANCH   8  33
TORSDOF 12
