REMARK  Name = ZINC08551993
REMARK  14 active torsions:
REMARK  status: ('A' for Active; 'I' for Inactive)
REMARK    1  A    between atoms: C_1  and  C_2
REMARK    2  A    between atoms: C_2  and  C_3
REMARK    3  A    between atoms: C_3  and  C_4
REMARK    4  A    between atoms: C_7  and  C_11
REMARK    5  A    between atoms: C_10  and  N_60
REMARK    6  A    between atoms: N_13  and  C_14
REMARK    7  A    between atoms: C_14  and  C_16
REMARK    8  A    between atoms: C_14  and  C_32
REMARK    9  A    between atoms: C_18  and  O_31
REMARK   10  A    between atoms: C_20  and  O_30
REMARK   11  A    between atoms: C_22  and  O_29
REMARK   12  A    between atoms: C_24  and  S_27
REMARK   13  A    between atoms: S_27  and  C_28
REMARK   14  A    between atoms: C_32  and  C_34
REMARK                            x       y       z     vdW  Elec       q    Type
REMARK                         _______ _______ _______ _____ _____    ______ ____
ROOT
ATOM      1  C   UNL     1       1.492   3.071  -2.468  0.00  0.00    +0.122 C 
ENDROOT
BRANCH   1   2
ATOM      2  C   UNL     1       0.769   3.578  -1.219  0.00  0.00    +0.172 C 
ATOM      3  C   UNL     1      -0.693   3.125  -1.257  0.00  0.00    +0.176 C 
ATOM      4  C   UNL     1      -0.747   1.595  -1.237  0.00  0.00    +0.177 C 
ATOM      5  C   UNL     1      -0.013   1.086   0.008  0.00  0.00    +0.184 C 
ATOM      6  C   UNL     1       1.423   1.617  -0.003  0.00  0.00    +0.207 C 
ATOM      7  O   UNL     1       1.401   3.045  -0.053  0.00  0.00    -0.356 OA
BRANCH   6   8
ATOM      8  S   UNL     1       2.279   1.078   1.503  0.00  0.00    -0.131 S 
ATOM      9  C   UNL     1       3.984   1.650   1.267  0.00  0.00    +0.087 C 
ENDBRANCH   6   8
BRANCH   5  10
ATOM     10  O   UNL     1      -0.684   1.548   1.182  0.00  0.00    -0.386 OA
ATOM     11  H   UNL     1      -0.271   1.264   2.009  0.00  0.00    +0.210 HD
ENDBRANCH   5  10
BRANCH   4  12
ATOM     12  O   UNL     1      -2.109   1.164  -1.198  0.00  0.00    -0.386 OA
ATOM     13  H   UNL     1      -2.217   0.204  -1.176  0.00  0.00    +0.210 HD
ENDBRANCH   4  12
BRANCH   3  14
ATOM     14  O   UNL     1      -1.312   3.609  -2.451  0.00  0.00    -0.387 OA
ATOM     15  H   UNL     1      -2.241   3.359  -2.541  0.00  0.00    +0.210 HD
ENDBRANCH   3  14
ENDBRANCH   1   2
BRANCH   1  18
ATOM     16  C   UNL     1       0.942   2.967  -4.840  0.00  0.00    +0.200 C 
ATOM     17  O   UNL     1       1.566   1.929  -4.909  0.00  0.00    -0.278 OA
ATOM     18  N   UNL     1       0.844   3.617  -3.663  0.00  0.00    -0.310 N 
ATOM     19  H   UNL     1       0.345   4.447  -3.608  0.00  0.00    +0.149 HD
BRANCH  16  22
ATOM     20  C   UNL     1      -1.442   2.352  -7.363  0.00  0.00    -0.029 C 
ATOM     21  C   UNL     1      -1.221   3.166  -6.066  0.00  0.00    -0.005 C 
ATOM     22  C   UNL     1       0.275   3.529  -6.069  0.00  0.00    +0.019 C 
ATOM     23  C   UNL     1      -0.251   2.790  -8.253  0.00  0.00    -0.075 C 
ATOM     24  C   UNL     1       1.935   3.775  -7.826  0.00  0.00    -0.095 C 
ATOM     25  N   UNL     1       0.839   2.919  -7.279  0.00  0.00    +0.386 N 
ATOM     26  H   UNL     1       1.217   1.991  -7.056  0.00  0.00    -0.081 HD
BRANCH  20  27
ATOM     27  C   UNL     1      -2.773   2.723  -8.019  0.00  0.00    +0.001 C 
BRANCH  27  29
ATOM     28  C   UNL     1      -4.290   2.271  -9.953  0.00  0.00    +0.004 C 
ATOM     29  C   UNL     1      -2.958   1.900  -9.296  0.00  0.00    -0.003 C 
ENDBRANCH  27  29
ENDBRANCH  20  27
ENDBRANCH  16  22
ENDBRANCH   1  18
BRANCH   1  30
ATOM     30  C   UNL     1       2.954   3.522  -2.429  0.00  0.00    +0.100 C 
ATOM     31  C   UNL     1       3.646   3.124  -3.735  0.00  0.00    +0.026 C 
ATOM     32 CL   UNL     1       3.025   5.313  -2.234  0.00  0.00    -0.120 Cl
ENDBRANCH   1  30
TORSDOF 10
