REMARK  Name = ZINC02161108
REMARK  5 active torsions:
REMARK  status: ('A' for Active; 'I' for Inactive)
REMARK    1  A    between atoms: C_1  and  C_2
REMARK    2  A    between atoms: C_7  and  C_8
REMARK    3  A    between atoms: C_17  and  C_19
REMARK    4  A    between atoms: C_19  and  C_20
REMARK    5  A    between atoms: N_28  and  C_31
REMARK                            x       y       z     vdW  Elec       q    Type
REMARK                         _______ _______ _______ _____ _____    ______ ____
ROOT
ATOM      1  C   UNL     1       7.810   0.953   0.888  0.00  0.00    +0.044 C 
ATOM      2  C   UNL     1       6.306   0.932   0.798  0.00  0.00    -0.046 A 
ATOM      3  C   UNL     1       5.692   0.622  -0.403  0.00  0.00    +0.004 A 
ATOM      4  C   UNL     1       4.312   0.602  -0.485  0.00  0.00    +0.005 A 
ATOM      5  C   UNL     1       3.550   0.890   0.625  0.00  0.00    -0.027 A 
ATOM      6  C   UNL     1       4.156   1.205   1.838  0.00  0.00    +0.039 A 
ATOM      7  C   UNL     1       5.547   1.222   1.913  0.00  0.00    -0.026 A 
ATOM      8  C   UNL     1       6.225   1.560   3.216  0.00  0.00    +0.046 C 
ATOM      9  N   UNL     1       3.187   1.460   2.811  0.00  0.00    -0.286 N 
ATOM     10  C   UNL     1       1.936   1.335   2.326  0.00  0.00    +0.211 C 
ATOM     11  O   UNL     1       0.903   1.497   2.940  0.00  0.00    -0.277 OA
ATOM     12  C   UNL     1       2.071   0.955   0.877  0.00  0.00    +0.050 C 
ATOM     13  C   UNL     1       1.391  -0.388   0.585  0.00  0.00    +0.088 C 
ATOM     14  C   UNL     1       0.002  -0.004   0.002  0.00  0.00    +0.073 C 
ATOM     15  C   UNL     1      -0.019   1.539   0.011  0.00  0.00    -0.053 C 
ATOM     16  C   UNL     1       0.058  -0.495  -1.426  0.00  0.00    +0.224 C 
ATOM     17  O   UNL     1      -0.836  -0.389  -2.239  0.00  0.00    -0.275 OA
ATOM     18  N   UNL     1       1.246  -1.066  -1.654  0.00  0.00    -0.239 N 
ATOM     19  C   UNL     1       2.074  -1.063  -0.603  0.00  0.00    +0.225 C 
ATOM     20  O   UNL     1       3.193  -1.529  -0.592  0.00  0.00    -0.275 OA
ATOM     21  H   UNL     1       3.391   1.699   3.728  0.00  0.00    +0.155 HD
ATOM     22  N   UNL     1       1.397   1.913   0.017  0.00  0.00    +0.394 N 
ATOM     23  H   UNL     1       1.781   1.866  -0.934  0.00  0.00    -0.083 HD
ATOM     24  H   UNL     1       1.512   2.864   0.387  0.00  0.00    -0.083 HD
ENDROOT
BRANCH  18  25
ATOM     25  C   UNL     1       1.611  -1.647  -2.949  0.00  0.00    +0.084 C 
ATOM     26  C   UNL     1       1.581  -0.538  -4.020  0.00  0.00    +0.023 C 
ATOM     27  C   UNL     1       2.421  -0.981  -5.189  0.00  0.00    +0.002 C 
ATOM     28  C   UNL     1       1.585  -1.665  -6.287  0.00  0.00    +0.000 C 
ATOM     29  C   UNL     1       0.522  -2.625  -5.718  0.00  0.00    +0.000 C 
ATOM     30  C   UNL     1       1.045  -3.450  -4.573  0.00  0.00    +0.002 C 
ATOM     31  C   UNL     1       0.693  -2.735  -3.253  0.00  0.00    +0.023 C 
ENDBRANCH  18  25
BRANCH  15  32
ATOM     32  C   UNL     1      -0.730   2.068  -1.236  0.00  0.00    +0.020 C 
BRANCH  32  33
ATOM     33  C   UNL     1      -0.848   3.568  -1.149  0.00  0.00    -0.049 A 
ATOM     34  C   UNL     1      -1.960   4.141  -0.560  0.00  0.00    +0.003 A 
ATOM     35  C   UNL     1      -2.066   5.517  -0.475  0.00  0.00    +0.000 A 
ATOM     36  C   UNL     1      -1.064   6.320  -0.989  0.00  0.00    +0.000 A 
ATOM     37  C   UNL     1       0.045   5.747  -1.582  0.00  0.00    +0.000 A 
ATOM     38  C   UNL     1       0.153   4.371  -1.662  0.00  0.00    +0.003 A 
ENDBRANCH  32  33
ENDBRANCH  15  32
TORSDOF 3
