REMARK  Name = ZINC09057247
REMARK  5 active torsions:
REMARK  status: ('A' for Active; 'I' for Inactive)
REMARK    1  A    between atoms: C_5  and  C_7
REMARK    2  A    between atoms: C_13  and  C_14
REMARK    3  A    between atoms: C_17  and  O_20
REMARK    4  A    between atoms: O_20  and  C_21
REMARK    5  A    between atoms: C_21  and  C_22
REMARK                            x       y       z     vdW  Elec       q    Type
REMARK                         _______ _______ _______ _____ _____    ______ ____
ROOT
ATOM      1  C   UNL     1       3.602 -10.968  -5.857  0.00  0.00    +0.131 C 
ATOM      2  N   UNL     1       4.010  -9.886  -5.239  0.00  0.00    -0.164 NA
ATOM      3  N   UNL     1       3.305  -9.367  -4.175  0.00  0.00    -0.152 N 
ATOM      4  C   UNL     1       3.599  -8.162  -3.500  0.00  0.00    +0.153 C 
ATOM      5  N   UNL     1       4.292  -7.192  -4.033  0.00  0.00    -0.283 NA
ATOM      6  C   UNL     1       3.042  -8.107  -2.119  0.00  0.00    +0.081 C 
ATOM      7  C   UNL     1       3.689  -7.443  -1.101  0.00  0.00    +0.024 C 
ATOM      8  C   UNL     1       1.752  -8.807  -1.899  0.00  0.00    +0.273 C 
ATOM      9  O   UNL     1       1.000  -8.470  -0.998  0.00  0.00    -0.268 OA
ATOM     10  N   UNL     1       1.434  -9.824  -2.724  0.00  0.00    -0.152 NA
ATOM     11  C   UNL     1       2.199 -10.076  -3.756  0.00  0.00    +0.181 C 
ATOM     12  S   UNL     1       2.118 -11.383  -4.951  0.00  0.00    -0.033 S 
ATOM     13  H   UNL     1       4.694  -7.306  -4.909  0.00  0.00    +0.188 HD
ENDROOT
BRANCH   1  18
ATOM     14  C   UNL     1       4.185 -13.456  -8.610  0.00  0.00    +0.001 A 
ATOM     15  C   UNL     1       5.349 -12.966  -9.175  0.00  0.00    +0.001 A 
ATOM     16  C   UNL     1       5.948 -11.829  -8.664  0.00  0.00    +0.020 A 
ATOM     17  C   UNL     1       5.385 -11.174  -7.585  0.00  0.00    +0.051 A 
ATOM     18  C   UNL     1       4.210 -11.663  -7.012  0.00  0.00    +0.027 A 
ATOM     19  C   UNL     1       3.612 -12.811  -7.533  0.00  0.00    +0.012 A 
ATOM     20 CL   UNL     1       6.138  -9.748  -6.944  0.00  0.00    -0.083 Cl
ENDBRANCH   1  18
BRANCH   7  21
ATOM     21  C   UNL     1       5.042  -6.922  -1.311  0.00  0.00    -0.024 A 
ATOM     22  C   UNL     1       5.433  -5.718  -0.708  0.00  0.00    +0.011 A 
ATOM     23  C   UNL     1       6.697  -5.237  -0.907  0.00  0.00    +0.046 A 
ATOM     24  C   UNL     1       7.593  -5.939  -1.706  0.00  0.00    +0.121 A 
ATOM     25  C   UNL     1       7.210  -7.134  -2.306  0.00  0.00    +0.046 A 
ATOM     26  C   UNL     1       5.952  -7.628  -2.110  0.00  0.00    +0.011 A 
BRANCH  24  27
ATOM     27  O   UNL     1       8.846  -5.456  -1.900  0.00  0.00    -0.487 OA
BRANCH  27  28
ATOM     28  C   UNL     1       9.717  -6.227  -2.731  0.00  0.00    +0.264 C 
BRANCH  28  29
ATOM     29  C   UNL     1      11.055  -5.540  -2.830  0.00  0.00    -0.010 A 
ATOM     30  C   UNL     1      11.284  -4.616  -3.833  0.00  0.00    +0.010 A 
ATOM     31  C   UNL     1      12.510  -3.985  -3.924  0.00  0.00    +0.039 A 
ATOM     32  C   UNL     1      13.509  -4.279  -3.012  0.00  0.00    +0.123 A 
ATOM     33  C   UNL     1      13.278  -5.204  -2.008  0.00  0.00    +0.039 A 
ATOM     34  C   UNL     1      12.050  -5.830  -1.915  0.00  0.00    +0.010 A 
ATOM     35  F   UNL     1      14.708  -3.663  -3.101  0.00  0.00    -0.205 F 
ENDBRANCH  28  29
ENDBRANCH  27  28
ENDBRANCH  24  27
ENDBRANCH   7  21
TORSDOF 5
