REMARK  Name = ZINC64985632
REMARK  10 active torsions:
REMARK  status: ('A' for Active; 'I' for Inactive)
REMARK    1  A    between atoms: C_1  and  C_2
REMARK    2  A    between atoms: C_2  and  C_3
REMARK    3  A    between atoms: C_2  and  C_4
REMARK    4  A    between atoms: C_2  and  C_5
REMARK    5  A    between atoms: N_11  and  S_27
REMARK    6  A    between atoms: C_13  and  C_16
REMARK    7  A    between atoms: N_18  and  C_19
REMARK    8  A    between atoms: C_24  and  S_25
REMARK    9  A    between atoms: S_25  and  C_26
REMARK   10  A    between atoms: S_27  and  C_30
REMARK                            x       y       z     vdW  Elec       q    Type
REMARK                         _______ _______ _______ _____ _____    ______ ____
ROOT
ATOM      1  C   UNL     1       0.797   0.592  -1.668  0.00  0.00    -0.040 A 
ATOM      2  C   UNL     1       0.131   0.059  -2.756  0.00  0.00    +0.008 A 
ATOM      3  C   UNL     1       0.837  -0.555  -3.773  0.00  0.00    +0.048 A 
ATOM      4  C   UNL     1       2.220  -0.641  -3.706  0.00  0.00    +0.144 A 
ATOM      5  C   UNL     1       2.888  -0.106  -2.607  0.00  0.00    +0.093 A 
ATOM      6  C   UNL     1       2.175   0.515  -1.594  0.00  0.00    +0.032 A 
ATOM      7  N   UNL     1       4.286  -0.197  -2.530  0.00  0.00    -0.195 N 
ATOM      8  C   UNL     1       5.016  -0.575  -3.753  0.00  0.00    +0.186 C 
ATOM      9  C   UNL     1       4.230  -1.705  -4.432  0.00  0.00    +0.278 C 
ATOM     10  O   UNL     1       2.907  -1.243  -4.712  0.00  0.00    -0.476 OA
ENDROOT
BRANCH   1  12
ATOM     11  C   UNL     1       0.465   2.720  -0.439  0.00  0.00    +0.015 C 
ATOM     12  C   UNL     1       0.019   1.262  -0.564  0.00  0.00    -0.013 C 
ATOM     13  C   UNL     1       0.279   0.534   0.757  0.00  0.00    +0.015 C 
ATOM     14  C   UNL     1      -1.475   1.211  -0.889  0.00  0.00    +0.015 C 
ENDBRANCH   1  12
BRANCH   9  15
ATOM     15  C   UNL     1       4.914  -2.095  -5.717  0.00  0.00    +0.260 C 
ATOM     16  O   UNL     1       4.358  -1.915  -6.779  0.00  0.00    -0.271 OA
ATOM     17  N   UNL     1       6.144  -2.645  -5.685  0.00  0.00    -0.281 N 
ATOM     18  H   UNL     1       6.556  -2.864  -4.834  0.00  0.00    +0.155 HD
BRANCH  17  19
ATOM     19  C   UNL     1       6.829  -2.901  -6.881  0.00  0.00    +0.047 A 
ATOM     20  C   UNL     1       6.458  -2.249  -8.047  0.00  0.00    +0.024 A 
ATOM     21  C   UNL     1       7.134  -2.503  -9.226  0.00  0.00    +0.002 A 
ATOM     22  C   UNL     1       8.182  -3.405  -9.247  0.00  0.00    +0.001 A 
ATOM     23  C   UNL     1       8.560  -4.059  -8.089  0.00  0.00    +0.016 A 
ATOM     24  C   UNL     1       7.890  -3.806  -6.900  0.00  0.00    +0.029 A 
BRANCH  24  25
ATOM     25  S   UNL     1       8.373  -4.633  -5.421  0.00  0.00    -0.127 S 
ATOM     26  C   UNL     1       9.761  -5.681  -5.937  0.00  0.00    +0.090 C 
ENDBRANCH  24  25
ENDBRANCH  17  19
ENDBRANCH   9  15
BRANCH   7  27
ATOM     27  S   UNL     1       5.088   0.108  -1.114  0.00  0.00    +0.075 S 
ATOM     28  O   UNL     1       4.187  -0.204  -0.061  0.00  0.00    -0.150 OA
ATOM     29  O   UNL     1       6.366  -0.503  -1.231  0.00  0.00    -0.150 OA
BRANCH  27  30
ATOM     30  C   UNL     1       5.367   1.847  -1.038  0.00  0.00    +0.109 A 
ATOM     31  C   UNL     1       6.522   2.385  -1.576  0.00  0.00    +0.029 A 
ATOM     32  C   UNL     1       6.741   3.749  -1.516  0.00  0.00    +0.002 A 
ATOM     33  C   UNL     1       5.805   4.574  -0.920  0.00  0.00    +0.000 A 
ATOM     34  C   UNL     1       4.651   4.035  -0.383  0.00  0.00    +0.002 A 
ATOM     35  C   UNL     1       4.430   2.672  -0.447  0.00  0.00    +0.029 A 
ENDBRANCH  27  30
ENDBRANCH   7  27
TORSDOF 6
