REMARK  Name = ZINC36206257
REMARK  10 active torsions:
REMARK  status: ('A' for Active; 'I' for Inactive)
REMARK    1  A    between atoms: C_1  and  C_2
REMARK    2  A    between atoms: C_2  and  C_3
REMARK    3  A    between atoms: C_2  and  C_31
REMARK    4  A    between atoms: C_2  and  O_33
REMARK    5  A    between atoms: C_3  and  N_4
REMARK    6  A    between atoms: N_4  and  C_5
REMARK    7  A    between atoms: N_4  and  C_12
REMARK    8  A    between atoms: C_5  and  C_6
REMARK    9  A    between atoms: C_12  and  C_13
REMARK   10  A    between atoms: C_19  and  C_24
REMARK                            x       y       z     vdW  Elec       q    Type
REMARK                         _______ _______ _______ _____ _____    ______ ____
ROOT
ATOM      1  C   UNL     1      -1.879  -0.152   3.677  0.00  0.00    +0.094 A 
ATOM      2  N   UNL     1      -3.104  -0.644   3.995  0.00  0.00    -0.312 N 
ATOM      3  H   UNL     1      -3.481  -1.363   3.464  0.00  0.00    +0.170 HD
ATOM      4  C   UNL     1      -3.806  -0.154   5.034  0.00  0.00    +0.260 A 
ATOM      5  O   UNL     1      -4.905  -0.608   5.307  0.00  0.00    -0.267 OA
ATOM      6  C   UNL     1      -3.244   0.906   5.814  0.00  0.00    +0.080 A 
ATOM      7  C   UNL     1      -3.800   1.595   6.972  0.00  0.00    +0.006 A 
ATOM      8  C   UNL     1      -3.074   2.581   7.554  0.00  0.00    +0.056 A 
ATOM      9  S   UNL     1      -1.590   2.638   6.569  0.00  0.00    -0.076 S 
ATOM     10  C   UNL     1      -1.974   1.350   5.410  0.00  0.00    +0.116 A 
ATOM     11  N   UNL     1      -1.338   0.812   4.372  0.00  0.00    -0.229 NA
ENDROOT
BRANCH   7  12
ATOM     12  C   UNL     1      -5.133   1.225   7.502  0.00  0.00    +0.019 A 
ATOM     13  C   UNL     1      -6.186   2.138   7.449  0.00  0.00    +0.011 A 
ATOM     14  C   UNL     1      -7.426   1.788   7.944  0.00  0.00    +0.001 A 
ATOM     15  C   UNL     1      -7.627   0.534   8.492  0.00  0.00    +0.003 A 
ATOM     16  C   UNL     1      -6.588  -0.377   8.550  0.00  0.00    +0.039 A 
ATOM     17  C   UNL     1      -5.343  -0.041   8.052  0.00  0.00    +0.131 A 
ATOM     18  F   UNL     1      -4.330  -0.933   8.103  0.00  0.00    -0.205 F 
ENDBRANCH   7  12
BRANCH   1  19
ATOM     19  C   UNL     1      -1.130  -0.732   2.506  0.00  0.00    -0.003 C 
BRANCH  19  20
ATOM     20  N   UNL     1       0.221  -0.158   2.456  0.00  0.00    +0.389 N 
ATOM     21  H   UNL     1       0.157   0.848   2.410  0.00  0.00    -0.081 HD
BRANCH  20  22
ATOM     22  C   UNL     1       0.922  -0.658   1.266  0.00  0.00    -0.039 C 
BRANCH  22  24
ATOM     23  C   UNL     1       0.170   1.435   0.128  0.00  0.00    +0.044 C 
ATOM     24  C   UNL     1       0.264  -0.088   0.008  0.00  0.00    +0.067 C 
BRANCH  24  25
ATOM     25  C   UNL     1       1.092  -0.447  -1.199  0.00  0.00    -0.003 C 
ATOM     26  C   UNL     1       0.567  -1.160  -2.164  0.00  0.00    +0.006 C 
ENDBRANCH  24  25
BRANCH  24  27
ATOM     27  O   UNL     1      -1.048  -0.637  -0.133  0.00  0.00    -0.387 OA
ATOM     28  H   UNL     1      -1.071  -1.603  -0.140  0.00  0.00    +0.210 HD
ENDBRANCH  24  27
ENDBRANCH  22  24
ENDBRANCH  20  22
BRANCH  20  29
ATOM     29  C   UNL     1       0.964  -0.547   3.662  0.00  0.00    -0.042 C 
BRANCH  29  30
ATOM     30  C   UNL     1       2.304   0.142   3.671  0.00  0.00    -0.064 A 
ATOM     31  C   UNL     1       3.396  -0.464   3.077  0.00  0.00    +0.002 A 
ATOM     32  C   UNL     1       4.626   0.168   3.085  0.00  0.00    +0.000 A 
ATOM     33  C   UNL     1       4.764   1.405   3.686  0.00  0.00    +0.000 A 
ATOM     34  C   UNL     1       3.672   2.011   4.278  0.00  0.00    +0.000 A 
ATOM     35  C   UNL     1       2.441   1.381   4.267  0.00  0.00    +0.002 A 
ENDBRANCH  29  30
ENDBRANCH  20  29
ENDBRANCH  19  20
ENDBRANCH   1  19
TORSDOF 9
