REMARK  Name = ZINC38658289
REMARK  10 active torsions:
REMARK  status: ('A' for Active; 'I' for Inactive)
REMARK    1  A    between atoms: C_2  and  C_3
REMARK    2  A    between atoms: C_3  and  O_4
REMARK    3  A    between atoms: O_4  and  C_5
REMARK    4  A    between atoms: C_8  and  C_11
REMARK    5  A    between atoms: C_16  and  O_25
REMARK    6  A    between atoms: C_20  and  N_24
REMARK    7  A    between atoms: C_21  and  C_22
REMARK    8  A    between atoms: O_25  and  C_26
REMARK    9  A    between atoms: C_26  and  C_28
REMARK   10  A    between atoms: C_32  and  N_34
REMARK                            x       y       z     vdW  Elec       q    Type
REMARK                         _______ _______ _______ _____ _____    ______ ____
ROOT
ATOM      1  C   UNL     1      -5.730  -5.114  -1.390  0.00  0.00    +0.098 C 
ATOM      2  C   UNL     1      -5.360  -6.540  -1.076  0.00  0.00    +0.008 A 
ATOM      3  C   UNL     1      -5.093  -6.901   0.232  0.00  0.00    +0.012 A 
ATOM      4  C   UNL     1      -4.752  -8.204   0.539  0.00  0.00    +0.047 A 
ATOM      5  C   UNL     1      -4.677  -9.156  -0.468  0.00  0.00    +0.135 A 
ATOM      6  C   UNL     1      -4.944  -8.798  -1.779  0.00  0.00    +0.093 A 
ATOM      7  C   UNL     1      -5.286  -7.487  -2.086  0.00  0.00    +0.138 A 
ATOM      8  O   UNL     1      -5.544  -7.152  -3.374  0.00  0.00    -0.441 OA
ATOM      9  C   UNL     1      -6.236  -6.034  -3.650  0.00  0.00    +0.199 C 
ATOM     10  C   UNL     1      -6.360  -5.032  -2.752  0.00  0.00    +0.098 C 
ENDROOT
BRANCH   1  14
ATOM     11  C   UNL     1      -2.213  -2.689  -1.308  0.00  0.00    +0.121 A 
ATOM     12  C   UNL     1      -3.262  -2.421  -0.442  0.00  0.00    +0.046 A 
ATOM     13  C   UNL     1      -4.398  -3.206  -0.470  0.00  0.00    +0.008 A 
ATOM     14  C   UNL     1      -4.490  -4.259  -1.361  0.00  0.00    -0.034 A 
ATOM     15  C   UNL     1      -3.445  -4.529  -2.226  0.00  0.00    +0.008 A 
ATOM     16  C   UNL     1      -2.310  -3.742  -2.206  0.00  0.00    +0.046 A 
BRANCH  11  17
ATOM     17  O   UNL     1      -1.095  -1.917  -1.283  0.00  0.00    -0.488 OA
BRANCH  17  18
ATOM     18  C   UNL     1      -1.064  -0.850  -0.333  0.00  0.00    +0.256 C 
BRANCH  18  20
ATOM     19  C   UNL     1       0.257   1.200  -0.456  0.00  0.00    +0.007 C 
ATOM     20  C   UNL     1       0.243  -0.110  -0.450  0.00  0.00    +0.006 C 
ENDBRANCH  18  20
ENDBRANCH  17  18
ENDBRANCH  11  17
ENDBRANCH   1  14
BRANCH   9  21
ATOM     21  N   UNL     1      -6.832  -5.906  -4.880  0.00  0.00    -0.328 N 
ATOM     22  H   UNL     1      -6.750  -6.617  -5.535  0.00  0.00    +0.145 HD
ATOM     23  H   UNL     1      -7.335  -5.105  -5.094  0.00  0.00    +0.145 HD
ENDBRANCH   9  21
BRANCH  10  24
ATOM     24  C   UNL     1      -7.111  -3.866  -3.108  0.00  0.00    +0.101 C 
ATOM     25  N   UNL     1      -7.707  -2.941  -3.391  0.00  0.00    -0.191 NA
ENDBRANCH  10  24
BRANCH   5  26
ATOM     26  O   UNL     1      -4.341 -10.439  -0.168  0.00  0.00    -0.422 OA
BRANCH  26  27
ATOM     27  C   UNL     1      -5.226 -11.177   0.530  0.00  0.00    +0.345 C 
ATOM     28  O   UNL     1      -6.327 -10.729   0.781  0.00  0.00    -0.245 OA
BRANCH  27  29
ATOM     29  C   UNL     1      -4.857 -12.532   0.990  0.00  0.00    +0.062 A 
ATOM     30  C   UNL     1      -3.590 -13.047   0.708  0.00  0.00    +0.015 A 
ATOM     31  C   UNL     1      -3.252 -14.313   1.140  0.00  0.00    +0.003 A 
ATOM     32  C   UNL     1      -4.165 -15.071   1.852  0.00  0.00    +0.033 A 
ATOM     33  C   UNL     1      -5.422 -14.566   2.135  0.00  0.00    +0.127 A 
ATOM     34  C   UNL     1      -5.771 -13.300   1.713  0.00  0.00    +0.047 A 
BRANCH  33  35
ATOM     35  N   UNL     1      -6.392 -15.385   2.896  0.00  0.00    +0.056 N 
ATOM     36  O   UNL     1      -6.086 -16.493   3.270  0.00  0.00    -0.126 OA
ATOM     37  O   UNL     1      -7.490 -14.945   3.144  0.00  0.00    -0.126 OA
ENDBRANCH  33  35
ENDBRANCH  27  29
ENDBRANCH  26  27
ENDBRANCH   5  26
TORSDOF 10
