REMARK  Name = ZINC40033530
REMARK  8 active torsions:
REMARK  status: ('A' for Active; 'I' for Inactive)
REMARK    1  A    between atoms: C_1  and  C_2
REMARK    2  A    between atoms: C_2  and  C_4
REMARK    3  A    between atoms: C_2  and  N_14
REMARK    4  A    between atoms: C_15  and  C_17
REMARK    5  A    between atoms: C_17  and  C_18
REMARK    6  A    between atoms: C_18  and  C_20
REMARK    7  A    between atoms: C_18  and  N_25
REMARK    8  A    between atoms: C_26  and  C_28
REMARK                            x       y       z     vdW  Elec       q    Type
REMARK                         _______ _______ _______ _____ _____    ______ ____
ROOT
ATOM      1  N   UNL     1       0.688  -0.476  -1.203  0.00  0.00    -0.309 N 
ATOM      2  C   UNL     1       0.006  -0.608  -2.358  0.00  0.00    +0.216 C 
ATOM      3  O   UNL     1      -1.175  -0.336  -2.400  0.00  0.00    -0.276 OA
ATOM      4  H   UNL     1       1.632  -0.695  -1.170  0.00  0.00    +0.149 HD
ENDROOT
BRANCH   1   6
ATOM      5  C   UNL     1      -0.019   1.526   0.010  0.00  0.00    +0.033 C 
ATOM      6  C   UNL     1       0.002  -0.004   0.002  0.00  0.00    +0.100 C 
BRANCH   6   7
ATOM      7  C   UNL     1       0.731  -0.503   1.223  0.00  0.00    -0.024 A 
ATOM      8  C   UNL     1       2.113  -0.513   1.245  0.00  0.00    +0.009 A 
ATOM      9  C   UNL     1       2.785  -0.972   2.363  0.00  0.00    +0.050 A 
ATOM     10  C   UNL     1       2.074  -1.423   3.465  0.00  0.00    +0.162 A 
ATOM     11  C   UNL     1       0.685  -1.410   3.443  0.00  0.00    +0.162 A 
ATOM     12  C   UNL     1       0.017  -0.945   2.320  0.00  0.00    +0.055 A 
ATOM     13  O   UNL     1      -0.033  -1.841   4.517  0.00  0.00    -0.485 OA
ATOM     14  C   UNL     1       0.665  -2.640   5.478  0.00  0.00    +0.270 C 
ATOM     15  C   UNL     1       2.010  -1.965   5.779  0.00  0.00    +0.270 C 
ATOM     16  O   UNL     1       2.750  -1.875   4.556  0.00  0.00    -0.485 OA
ENDBRANCH   6   7
ENDBRANCH   1   6
BRANCH   2  17
ATOM     17  C   UNL     1       0.712  -1.094  -3.598  0.00  0.00    +0.123 C 
BRANCH  17  18
ATOM     18  C   UNL     1      -0.282  -1.153  -4.761  0.00  0.00    +0.118 C 
BRANCH  18  19
ATOM     19  C   UNL     1       0.392  -1.754  -5.967  0.00  0.00    +0.010 A 
ATOM     20  C   UNL     1       0.314  -3.020  -6.446  0.00  0.00    +0.013 A 
ATOM     21  C   UNL     1       1.027  -3.351  -7.583  0.00  0.00    +0.008 A 
ATOM     22  C   UNL     1       1.782  -2.400  -8.186  0.00  0.00    +0.045 A 
ATOM     23  S   UNL     1       1.492  -0.981  -7.142  0.00  0.00    -0.100 S 
ENDBRANCH  18  19
BRANCH  18  24
ATOM     24  N   UNL     1      -0.739   0.202  -5.081  0.00  0.00    -0.308 N 
ATOM     25  C   UNL     1      -1.933   0.386  -5.678  0.00  0.00    +0.210 C 
ATOM     26  O   UNL     1      -2.629  -0.569  -5.951  0.00  0.00    -0.276 OA
ATOM     27  C   UNL     1      -2.404   1.779  -6.007  0.00  0.00    +0.109 C 
ATOM     28  H   UNL     1      -0.183   0.966  -4.863  0.00  0.00    +0.149 HD
ENDBRANCH  18  24
ENDBRANCH  17  18
ENDBRANCH   2  17
TORSDOF 6
