REMARK  Name = ZINC65225883
REMARK  5 active torsions:
REMARK  status: ('A' for Active; 'I' for Inactive)
REMARK    1  A    between atoms: C_1  and  C_2
REMARK    2  A    between atoms: C_4  and  S_8
REMARK    3  A    between atoms: N_6  and  C_7
REMARK    4  A    between atoms: S_8  and  N_11
REMARK    5  A    between atoms: C_14  and  C_17
REMARK                            x       y       z     vdW  Elec       q    Type
REMARK                         _______ _______ _______ _____ _____    ______ ____
ROOT
ATOM      1  N   UNL     1      -0.760  -2.992  -3.153  0.00  0.00    -0.175 NA
ATOM      2  C   UNL     1      -2.212  -3.189  -3.271  0.00  0.00    +0.110 C 
ATOM      3  C   UNL     1      -2.500  -3.980  -4.550  0.00  0.00    +0.027 C 
ATOM      4  C   UNL     1      -1.864  -3.263  -5.743  0.00  0.00    +0.042 C 
ATOM      5  C   UNL     1      -0.347  -3.193  -5.549  0.00  0.00    +0.027 C 
ATOM      6  C   UNL     1      -0.036  -2.387  -4.279  0.00  0.00    +0.110 C 
ENDROOT
BRANCH   4   7
ATOM      7  C   UNL     1      -2.174  -4.020  -7.008  0.00  0.00    +0.067 A 
ATOM      8  C   UNL     1      -1.458  -5.114  -7.511  0.00  0.00    +0.058 A 
ATOM      9  C   UNL     1      -2.108  -5.459  -8.664  0.00  0.00    +0.124 A 
ATOM     10  N   UNL     1      -3.155  -4.591  -8.820  0.00  0.00    -0.259 N 
ATOM     11  N   UNL     1      -3.166  -3.775  -7.831  0.00  0.00    -0.175 NA
ATOM     12  C   UNL     1      -4.077  -4.642  -9.957  0.00  0.00    +0.146 C 
ATOM     13  C   UNL     1      -3.364  -4.174 -11.231  0.00  0.00    +0.042 C 
ATOM     14  C   UNL     1      -1.959  -4.771 -11.287  0.00  0.00    +0.106 C 
ATOM     15  N   UNL     1      -1.914  -6.183 -10.939  0.00  0.00    -0.310 N 
ATOM     16  C   UNL     1      -1.829  -6.538  -9.633  0.00  0.00    +0.262 C 
ATOM     17  O   UNL     1      -1.544  -7.668  -9.284  0.00  0.00    -0.269 OA
ATOM     18  H   UNL     1      -1.943  -6.861 -11.632  0.00  0.00    +0.149 HD
ENDBRANCH   4   7
BRANCH   1  19
ATOM     19  S   UNL     1       0.042  -3.437  -1.774  0.00  0.00    +0.080 S 
ATOM     20  O   UNL     1       1.398  -3.650  -2.144  0.00  0.00    -0.151 OA
ATOM     21  O   UNL     1      -0.745  -4.444  -1.153  0.00  0.00    -0.151 OA
BRANCH  19  25
ATOM     22  C   UNL     1      -0.018   1.503   0.010  0.00  0.00    +0.086 C 
ATOM     23  C   UNL     1       0.002  -0.004   0.002  0.00  0.00    +0.109 A 
ATOM     24  N   UNL     1       0.008  -0.759  -1.063  0.00  0.00    -0.213 NA
ATOM     25  C   UNL     1       0.028  -2.047  -0.691  0.00  0.00    +0.212 A 
ATOM     26  C   UNL     1       0.034  -2.093   0.655  0.00  0.00    +0.135 A 
ATOM     27  N   UNL     1       0.023  -0.797   1.095  0.00  0.00    -0.336 N 
ATOM     28  C   UNL     1       0.030  -0.353   2.491  0.00  0.00    +0.150 C 
ENDBRANCH  19  25
ENDBRANCH   1  19
TORSDOF 3
