REMARK  Name = ZINC49371861
REMARK  8 active torsions:
REMARK  status: ('A' for Active; 'I' for Inactive)
REMARK    1  A    between atoms: C_1  and  C_2
REMARK    2  A    between atoms: C_2  and  O_3
REMARK    3  A    between atoms: O_3  and  C_4
REMARK    4  A    between atoms: C_4  and  C_6
REMARK    5  A    between atoms: C_6  and  C_8
REMARK    6  A    between atoms: C_6  and  N_9
REMARK    7  A    between atoms: N_9  and  C_10
REMARK    8  A    between atoms: C_19  and  N_20
REMARK                            x       y       z     vdW  Elec       q    Type
REMARK                         _______ _______ _______ _____ _____    ______ ____
ROOT
ATOM      1  C   UNL     1       1.302  -4.590  -3.803  0.00  0.00    +0.059 A 
ATOM      2  C   UNL     1       0.649  -5.827  -4.003  0.00  0.00    +0.022 A 
ATOM      3  C   UNL     1      -0.375  -6.258  -3.147  0.00  0.00    +0.027 A 
ATOM      4  C   UNL     1      -0.982  -7.457  -3.372  0.00  0.00    +0.019 A 
ATOM      5  C   UNL     1      -0.598  -8.261  -4.444  0.00  0.00    +0.017 A 
ATOM      6  C   UNL     1       0.391  -7.872  -5.294  0.00  0.00    +0.027 A 
ATOM      7  C   UNL     1       1.041  -6.641  -5.094  0.00  0.00    +0.048 A 
ATOM      8  N   UNL     1       2.015  -6.237  -5.915  0.00  0.00    -0.359 N 
ATOM      9  C   UNL     1       2.633  -5.091  -5.744  0.00  0.00    +0.107 A 
ATOM     10  C   UNL     1       2.303  -4.230  -4.699  0.00  0.00    +0.063 A 
ATOM     11 BR   UNL     1      -2.361  -8.037  -2.217  0.00  0.00    -0.050 Br
ATOM     12  H   UNL     1       2.273  -6.806  -6.658  0.00  0.00    +0.165 HD
ENDROOT
BRANCH  10  13
ATOM     13  N   UNL     1       2.979  -3.010  -4.549  0.00  0.00    -0.355 N 
ATOM     14  H   UNL     1       2.813  -2.457  -3.770  0.00  0.00    +0.142 HD
ATOM     15  H   UNL     1       3.611  -2.720  -5.225  0.00  0.00    +0.142 HD
ENDBRANCH  10  13
BRANCH   1  16
ATOM     16  N   UNL     1       0.951  -3.756  -2.745  0.00  0.00    -0.330 N 
ATOM     17  H   UNL     1       1.122  -4.033  -1.832  0.00  0.00    +0.147 HD
BRANCH  16  18
ATOM     18  C   UNL     1       0.323  -2.460  -3.012  0.00  0.00    +0.177 C 
ATOM     19  C   UNL     1       0.643  -1.494  -1.870  0.00  0.00    +0.040 C 
BRANCH  18  20
ATOM     20  C   UNL     1      -1.170  -2.637  -3.118  0.00  0.00    +0.327 C 
ATOM     21  O   UNL     1      -1.659  -3.734  -2.984  0.00  0.00    -0.249 OA
BRANCH  20  22
ATOM     22  O   UNL     1      -1.956  -1.577  -3.360  0.00  0.00    -0.464 OA
BRANCH  22  24
ATOM     23  C   UNL     1      -4.089  -0.501  -3.727  0.00  0.00    +0.048 C 
ATOM     24  C   UNL     1      -3.362  -1.818  -3.448  0.00  0.00    +0.229 C 
ENDBRANCH  22  24
ENDBRANCH  20  22
ENDBRANCH  18  20
ENDBRANCH  16  18
ENDBRANCH   1  16
TORSDOF 6
