REMARK  Name = ZINC11166113
REMARK  10 active torsions:
REMARK  status: ('A' for Active; 'I' for Inactive)
REMARK    1  A    between atoms: C_1  and  C_2
REMARK    2  A    between atoms: C_2  and  C_3
REMARK    3  A    between atoms: C_4  and  C_30
REMARK    4  A    between atoms: C_9  and  S_21
REMARK    5  A    between atoms: N_10  and  C_13
REMARK    6  A    between atoms: C_13  and  C_14
REMARK    7  A    between atoms: C_17  and  C_20
REMARK    8  A    between atoms: S_21  and  C_22
REMARK    9  A    between atoms: C_22  and  C_23
REMARK   10  A    between atoms: C_23  and  C_24
REMARK                            x       y       z     vdW  Elec       q    Type
REMARK                         _______ _______ _______ _____ _____    ______ ____
ROOT
ATOM      1  C   UNL     1       0.000   1.080   2.488  0.00  0.00    -0.005 A 
ATOM      2  C   UNL     1       1.002   1.670   3.157  0.00  0.00    -0.026 A 
ATOM      3  C   UNL     1       1.562   1.009   4.323  0.00  0.00    +0.075 A 
ATOM      4  C   UNL     1       0.983  -0.235   4.636  0.00  0.00    +0.117 A 
ATOM      5  S   UNL     1      -0.258  -0.440   3.384  0.00  0.00    -0.073 S 
ATOM      6  N   UNL     1       1.390  -0.962   5.669  0.00  0.00    -0.216 NA
ATOM      7  C   UNL     1       2.365  -0.541   6.450  0.00  0.00    +0.173 A 
ATOM      8  N   UNL     1       2.982   0.654   6.217  0.00  0.00    -0.283 N 
ATOM      9  C   UNL     1       2.617   1.440   5.187  0.00  0.00    +0.264 A 
ATOM     10  O   UNL     1       3.179   2.504   4.994  0.00  0.00    -0.267 OA
ATOM     11  C   UNL     1       1.536   3.005   2.707  0.00  0.00    +0.045 C 
ENDROOT
BRANCH   1  13
ATOM     12  C   UNL     1      -0.013   1.086   0.008  0.00  0.00    +0.009 C 
ATOM     13  C   UNL     1      -0.729   1.579   1.267  0.00  0.00    +0.039 C 
ENDBRANCH   1  13
BRANCH   8  14
ATOM     14  C   UNL     1       4.062   1.090   7.106  0.00  0.00    +0.162 C 
BRANCH  14  15
ATOM     15  C   UNL     1       3.485   1.891   8.244  0.00  0.00    -0.028 A 
ATOM     16  C   UNL     1       3.349   3.262   8.125  0.00  0.00    +0.005 A 
ATOM     17  C   UNL     1       2.816   3.997   9.167  0.00  0.00    +0.004 A 
ATOM     18  C   UNL     1       2.425   3.362  10.331  0.00  0.00    -0.050 A 
ATOM     19  C   UNL     1       2.565   1.992  10.452  0.00  0.00    +0.004 A 
ATOM     20  C   UNL     1       3.095   1.257   9.408  0.00  0.00    +0.005 A 
ATOM     21  C   UNL     1       1.846   4.164  11.469  0.00  0.00    +0.044 C 
ENDBRANCH  14  15
ENDBRANCH   8  14
BRANCH   7  22
ATOM     22  S   UNL     1       2.878  -1.534   7.812  0.00  0.00    -0.087 S 
BRANCH  22  23
ATOM     23  C   UNL     1       1.749  -2.935   7.622  0.00  0.00    +0.086 C 
BRANCH  23  24
ATOM     24  C   UNL     1       2.016  -3.959   8.727  0.00  0.00    +0.107 C 
BRANCH  24  25
ATOM     25  C   UNL     1       1.075  -5.126   8.569  0.00  0.00    +0.221 C 
ATOM     26  O   UNL     1       0.271  -5.138   7.663  0.00  0.00    -0.275 OA
ATOM     27  N   UNL     1       1.129  -6.156   9.437  0.00  0.00    -0.240 N 
ATOM     28  C   UNL     1       0.287  -7.200   9.295  0.00  0.00    +0.303 C 
ATOM     29  O   UNL     1      -0.519  -7.212   8.386  0.00  0.00    -0.253 OA
ATOM     30  N   UNL     1       0.341  -8.230  10.162  0.00  0.00    -0.313 N 
ATOM     31  H   UNL     1       1.772  -6.147  10.162  0.00  0.00    +0.159 HD
ATOM     32  H   UNL     1       0.984  -8.221  10.888  0.00  0.00    +0.146 HD
ATOM     33  H   UNL     1      -0.265  -8.981  10.061  0.00  0.00    +0.146 HD
ENDBRANCH  24  25
ENDBRANCH  23  24
ENDBRANCH  22  23
ENDBRANCH   7  22
TORSDOF 7
