REMARK  Name = ZINC06264714
REMARK  8 active torsions:
REMARK  status: ('A' for Active; 'I' for Inactive)
REMARK    1  A    between atoms: C_1  and  C_2
REMARK    2  A    between atoms: C_2  and  C_3
REMARK    3  A    between atoms: C_3  and  C_4
REMARK    4  A    between atoms: C_4  and  C_5
REMARK    5  A    between atoms: C_12  and  N_25
REMARK    6  A    between atoms: C_13  and  C_23
REMARK    7  A    between atoms: C_14  and  C_16
REMARK    8  A    between atoms: C_19  and  O_22
REMARK                            x       y       z     vdW  Elec       q    Type
REMARK                         _______ _______ _______ _____ _____    ______ ____
ROOT
ATOM      1  C   UNL     1       0.395  -3.987  -0.624  0.00  0.00    +0.044 A 
ATOM      2  C   UNL     1       0.053  -2.729  -0.306  0.00  0.00    +0.049 A 
ATOM      3  C   UNL     1       1.227  -1.944  -0.300  0.00  0.00    +0.245 A 
ATOM      4  N   UNL     1       2.229  -2.716  -0.604  0.00  0.00    -0.135 NA
ATOM      5  N   UNL     1       1.734  -4.013  -0.814  0.00  0.00    -0.278 N 
ATOM      6  H   UNL     1       2.277  -4.816  -1.062  0.00  0.00    +0.189 HD
ATOM      7  O   UNL     1       1.204  -0.615  -0.013  0.00  0.00    -0.421 OA
ATOM      8  C   UNL     1       0.002  -0.004   0.002  0.00  0.00    +0.201 C 
ATOM      9  C   UNL     1      -1.184  -0.648   0.015  0.00  0.00    +0.098 C 
ATOM     10  C   UNL     1      -1.303  -2.151   0.007  0.00  0.00    +0.101 C 
ENDROOT
BRANCH  10  11
ATOM     11  C   UNL     1      -1.758  -2.626   1.363  0.00  0.00    -0.034 A 
ATOM     12  C   UNL     1      -1.003  -2.337   2.484  0.00  0.00    +0.008 A 
ATOM     13  C   UNL     1      -1.420  -2.767   3.729  0.00  0.00    +0.046 A 
ATOM     14  C   UNL     1      -2.592  -3.499   3.852  0.00  0.00    +0.117 A 
ATOM     15  C   UNL     1      -3.345  -3.792   2.724  0.00  0.00    +0.046 A 
ATOM     16  C   UNL     1      -2.927  -3.355   1.483  0.00  0.00    +0.008 A 
BRANCH  14  17
ATOM     17  O   UNL     1      -3.002  -3.928   5.074  0.00  0.00    -0.507 OA
ATOM     18  H   UNL     1      -2.664  -4.801   5.318  0.00  0.00    +0.292 HD
ENDBRANCH  14  17
ENDBRANCH  10  11
BRANCH   8  19
ATOM     19  N   UNL     1      -0.017   1.368   0.010  0.00  0.00    -0.328 N 
ATOM     20  H   UNL     1       0.817   1.865   0.004  0.00  0.00    +0.145 HD
ATOM     21  H   UNL     1      -0.863   1.842   0.016  0.00  0.00    +0.145 HD
ENDBRANCH   8  19
BRANCH   9  22
ATOM     22  C   UNL     1      -2.384   0.132   0.032  0.00  0.00    +0.101 C 
ATOM     23  N   UNL     1      -3.337   0.751   0.044  0.00  0.00    -0.191 NA
ENDBRANCH   9  22
BRANCH   1  24
ATOM     24  C   UNL     1      -0.544  -5.160  -0.748  0.00  0.00    +0.055 C 
BRANCH  24  25
ATOM     25  C   UNL     1      -1.151  -5.182  -2.152  0.00  0.00    +0.006 C 
BRANCH  25  27
ATOM     26  C   UNL     1      -2.710  -6.395  -3.681  0.00  0.00    +0.004 C 
ATOM     27  C   UNL     1      -2.103  -6.373  -2.277  0.00  0.00    -0.003 C 
ENDBRANCH  25  27
ENDBRANCH  24  25
ENDBRANCH   1  24
TORSDOF 7
