REMARK  Name = ZINC54216776
REMARK  8 active torsions:
REMARK  status: ('A' for Active; 'I' for Inactive)
REMARK    1  A    between atoms: C_1  and  C_2
REMARK    2  A    between atoms: C_2  and  C_3
REMARK    3  A    between atoms: C_2  and  C_4
REMARK    4  A    between atoms: C_4  and  C_6
REMARK    5  A    between atoms: C_4  and  N_11
REMARK    6  A    between atoms: C_12  and  C_14
REMARK    7  A    between atoms: C_19  and  N_20
REMARK    8  A    between atoms: N_20  and  N_21
REMARK                            x       y       z     vdW  Elec       q    Type
REMARK                         _______ _______ _______ _____ _____    ______ ____
ROOT
ATOM      1  N   UNL     1       0.109  -2.242   0.176  0.00  0.00    -0.304 N 
ATOM      2  C   UNL     1       1.294  -2.849   0.385  0.00  0.00    +0.246 C 
ATOM      3  O   UNL     1       2.171  -2.274   1.002  0.00  0.00    -0.270 OA
ATOM      4  H   UNL     1      -0.590  -2.700  -0.317  0.00  0.00    +0.150 HD
ENDROOT
BRANCH   2   5
ATOM      5  C   UNL     1       1.528  -4.209  -0.133  0.00  0.00    +0.061 A 
ATOM      6  C   UNL     1       0.486  -4.920  -0.737  0.00  0.00    +0.015 A 
ATOM      7  C   UNL     1       0.710  -6.190  -1.220  0.00  0.00    +0.004 A 
ATOM      8  C   UNL     1       1.964  -6.770  -1.111  0.00  0.00    +0.040 A 
ATOM      9  C   UNL     1       3.004  -6.082  -0.518  0.00  0.00    +0.146 A 
ATOM     10  C   UNL     1       2.797  -4.795  -0.029  0.00  0.00    +0.089 A 
ATOM     11  F   UNL     1       4.222  -6.656  -0.416  0.00  0.00    -0.203 F 
BRANCH  10  12
ATOM     12  N   UNL     1       3.843  -4.097   0.564  0.00  0.00    -0.280 N 
ATOM     13  H   UNL     1       3.912  -3.136   0.449  0.00  0.00    +0.166 HD
BRANCH  12  14
ATOM     14  N   UNL     1       4.773  -4.764   1.310  0.00  0.00    -0.256 NA
ATOM     15  H   UNL     1       5.467  -4.129   1.675  0.00  0.00    +0.140 HD
ATOM     16  H   UNL     1       4.334  -5.285   2.054  0.00  0.00    +0.140 HD
ENDBRANCH  12  14
ENDBRANCH  10  12
ENDBRANCH   2   5
BRANCH   1  17
ATOM     17  C   UNL     1      -0.123  -0.890   0.691  0.00  0.00    +0.113 C 
BRANCH  17  18
ATOM     18  C   UNL     1      -1.183  -0.212  -0.138  0.00  0.00    +0.010 A 
ATOM     19  C   UNL     1      -1.238   1.072  -0.569  0.00  0.00    +0.013 A 
ATOM     20  C   UNL     1      -2.319   1.479  -1.327  0.00  0.00    +0.008 A 
ATOM     21  C   UNL     1      -3.293   0.583  -1.618  0.00  0.00    +0.045 A 
ATOM     22  S   UNL     1      -2.689  -0.892  -0.814  0.00  0.00    -0.100 S 
ENDBRANCH  17  18
BRANCH  17  24
ATOM     23  C   UNL     1      -0.831   0.439   2.684  0.00  0.00    +0.009 C 
ATOM     24  C   UNL     1      -0.589  -0.972   2.146  0.00  0.00    +0.008 C 
ATOM     25  C   UNL     1      -1.888  -1.777   2.221  0.00  0.00    +0.009 C 
ENDBRANCH  17  24
ENDBRANCH   1  17
TORSDOF 6
