REMARK  Name = ZINC20187181
REMARK  5 active torsions:
REMARK  status: ('A' for Active; 'I' for Inactive)
REMARK    1  A    between atoms: C_1  and  C_2
REMARK    2  A    between atoms: C_7  and  C_22
REMARK    3  A    between atoms: C_9  and  N_10
REMARK    4  A    between atoms: N_10  and  C_11
REMARK    5  A    between atoms: C_15  and  C_17
REMARK                            x       y       z     vdW  Elec       q    Type
REMARK                         _______ _______ _______ _____ _____    ______ ____
ROOT
ATOM      1  C   UNL     1      -1.704   6.744   0.053  0.00  0.00    +0.028 A 
ATOM      2  C   UNL     1      -3.089   6.625   0.065  0.00  0.00    +0.023 A 
ATOM      3  C   UNL     1      -3.679   5.375   0.064  0.00  0.00    +0.003 A 
ATOM      4  C   UNL     1      -2.898   4.238   0.045  0.00  0.00    +0.013 A 
ATOM      5  C   UNL     1      -1.507   4.346   0.038  0.00  0.00    +0.040 A 
ATOM      6  C   UNL     1      -0.910   5.607   0.040  0.00  0.00    +0.036 A 
ENDROOT
BRANCH   5   7
ATOM      7  C   UNL     1      -0.668   3.129   0.025  0.00  0.00    +0.248 A 
ATOM      8  N   UNL     1       0.644   3.087   0.012  0.00  0.00    -0.108 NA
ATOM      9  N   UNL     1       1.029   1.860   0.002  0.00  0.00    -0.116 NA
ATOM     10  C   UNL     1      -0.013   1.076   0.008  0.00  0.00    +0.332 A 
ATOM     11  O   UNL     1      -1.108   1.855   0.017  0.00  0.00    -0.423 OA
ENDBRANCH   5   7
BRANCH   1  12
ATOM     12  N   UNL     1      -1.111   8.009   0.055  0.00  0.00    -0.340 N 
ATOM     13  H   UNL     1      -0.015   8.103   0.046  0.00  0.00    +0.146 HD
BRANCH  12  20
ATOM     14  C   UNL     1      -1.103   9.827  -2.200  0.00  0.00    +0.009 C 
ATOM     15  C   UNL     1      -2.357   9.565  -1.363  0.00  0.00    +0.006 C 
ATOM     16  C   UNL     1      -3.232  10.819  -1.348  0.00  0.00    +0.005 C 
ATOM     17  C   UNL     1      -2.446  11.982  -0.739  0.00  0.00    +0.001 C 
ATOM     18  C   UNL     1      -2.039  11.628   0.693  0.00  0.00    +0.005 C 
ATOM     19  C   UNL     1      -1.164  10.373   0.678  0.00  0.00    +0.006 C 
ATOM     20  C   UNL     1      -1.949   9.210   0.069  0.00  0.00    +0.076 C 
ATOM     21  C   UNL     1      -0.756  10.019   2.110  0.00  0.00    +0.009 C 
ENDBRANCH  12  20
ENDBRANCH   1  12
TORSDOF 3
