REMARK  Name = ZINC24842338
REMARK  10 active torsions:
REMARK  status: ('A' for Active; 'I' for Inactive)
REMARK    1  A    between atoms: C_1  and  C_2
REMARK    2  A    between atoms: C_2  and  O_3
REMARK    3  A    between atoms: O_3  and  C_4
REMARK    4  A    between atoms: C_11  and  C_18
REMARK    5  A    between atoms: C_13  and  O_14
REMARK    6  A    between atoms: C_18  and  O_19
REMARK    7  A    between atoms: O_19  and  C_20
REMARK    8  A    between atoms: C_20  and  C_22
REMARK    9  A    between atoms: C_23  and  C_24
REMARK   10  A    between atoms: C_28  and  N_30
REMARK                            x       y       z     vdW  Elec       q    Type
REMARK                         _______ _______ _______ _____ _____    ______ ____
ROOT
ATOM      1  C   UNL     1      15.899   2.805  -0.628  0.00  0.00    +0.405 C 
ATOM      2  O   UNL     1      15.671   1.736  -1.159  0.00  0.00    -0.226 OA
ATOM      3  N   UNL     1      14.887   3.536  -0.121  0.00  0.00    -0.251 N 
ATOM      4  C   UNL     1      13.591   3.017  -0.106  0.00  0.00    +0.040 A 
ATOM      5  C   UNL     1      12.502   3.872  -0.274  0.00  0.00    +0.024 A 
ATOM      6  C   UNL     1      11.229   3.379  -0.262  0.00  0.00    +0.014 A 
ATOM      7  C   UNL     1      11.016   2.007  -0.084  0.00  0.00    +0.024 A 
ATOM      8  C   UNL     1       9.661   1.452  -0.060  0.00  0.00    +0.007 A 
ATOM      9  C   UNL     1       9.519   0.113   0.122  0.00  0.00    +0.095 A 
ATOM     10  C   UNL     1      10.661  -0.698   0.285  0.00  0.00    +0.285 A 
ATOM     11  O   UNL     1      11.900  -0.182   0.268  0.00  0.00    -0.425 OA
ATOM     12  C   UNL     1      12.111   1.140   0.091  0.00  0.00    +0.141 A 
ATOM     13  C   UNL     1      13.398   1.656   0.076  0.00  0.00    +0.070 A 
ATOM     14  H   UNL     1      15.081   4.541   0.281  0.00  0.00    +0.158 HD
ENDROOT
BRANCH  10  15
ATOM     15  O   UNL     1      10.519  -1.896   0.447  0.00  0.00    -0.480 OA
ATOM     16  H   UNL     1      11.400  -2.542   0.576  0.00  0.00    +0.295 HD
ENDBRANCH  10  15
BRANCH   1  17
ATOM     17  O   UNL     1      17.164   3.259  -0.546  0.00  0.00    -0.450 OA
BRANCH  17  19
ATOM     18  C   UNL     1      19.564   3.096  -0.927  0.00  0.00    +0.048 C 
ATOM     19  C   UNL     1      18.204   2.419  -1.113  0.00  0.00    +0.230 C 
ENDBRANCH  17  19
ENDBRANCH   1  17
BRANCH   8  20
ATOM     20  C   UNL     1       8.457   2.341  -0.237  0.00  0.00    +0.268 C 
BRANCH  20  21
ATOM     21  O   UNL     1       7.268   1.551  -0.179  0.00  0.00    -0.457 OA
BRANCH  21  22
ATOM     22  C   UNL     1       6.094   2.200  -0.321  0.00  0.00    +0.332 C 
ATOM     23  O   UNL     1       6.081   3.404  -0.491  0.00  0.00    -0.246 OA
BRANCH  22  24
ATOM     24  C   UNL     1       4.837   1.455  -0.272  0.00  0.00    +0.092 C 
ATOM     25  C   UNL     1       3.662   2.103  -0.415  0.00  0.00    +0.015 C 
BRANCH  25  26
ATOM     26  C   UNL     1       2.397   1.354  -0.365  0.00  0.00    -0.023 A 
ATOM     27  C   UNL     1       2.408  -0.031  -0.170  0.00  0.00    +0.009 A 
ATOM     28  C   UNL     1       1.219  -0.727  -0.125  0.00  0.00    +0.023 A 
ATOM     29  C   UNL     1       0.015  -0.057  -0.271  0.00  0.00    +0.071 A 
ATOM     30  C   UNL     1      -0.004   1.314  -0.465  0.00  0.00    +0.145 A 
ATOM     31  C   UNL     1       1.178   2.023  -0.512  0.00  0.00    +0.042 A 
ATOM     32 CL   UNL     1      -1.478  -0.942  -0.214  0.00  0.00    -0.081 Cl
BRANCH  30  33
ATOM     33  N   UNL     1      -1.295   2.020  -0.627  0.00  0.00    +0.058 N 
ATOM     34  O   UNL     1      -1.313   3.226  -0.797  0.00  0.00    -0.126 OA
ATOM     35  O   UNL     1      -2.339   1.394  -0.590  0.00  0.00    -0.126 OA
ENDBRANCH  30  33
ENDBRANCH  25  26
ENDBRANCH  22  24
ENDBRANCH  21  22
ENDBRANCH  20  21
ENDBRANCH   8  20
TORSDOF 9
