REMARK  Name = ZINC14014030
REMARK  8 active torsions:
REMARK  status: ('A' for Active; 'I' for Inactive)
REMARK    1  A    between atoms: C_1  and  C_2
REMARK    2  A    between atoms: C_5  and  C_8
REMARK    3  A    between atoms: C_8  and  N_9
REMARK    4  A    between atoms: C_10  and  C_12
REMARK    5  A    between atoms: C_12  and  C_13
REMARK    6  A    between atoms: N_24  and  C_27
REMARK    7  A    between atoms: C_30  and  C_34
REMARK    8  A    between atoms: C_32  and  C_33
REMARK                            x       y       z     vdW  Elec       q    Type
REMARK                         _______ _______ _______ _____ _____    ______ ____
ROOT
ATOM      1  C   UNL     1      -1.426  -0.171   0.430  0.00  0.00    +0.112 C 
ATOM      2  C   UNL     1      -1.231  -1.630  -0.004  0.00  0.00    +0.103 C 
ATOM      3  S   UNL     1       0.565  -1.656  -0.356  0.00  0.00    -0.085 S 
ATOM      4  C   UNL     1       0.960   0.037   0.029  0.00  0.00    +0.174 A 
ATOM      5  N   UNL     1      -0.205   0.635   0.415  0.00  0.00    -0.283 N 
ATOM      6  C   UNL     1      -0.147   1.961   0.764  0.00  0.00    +0.266 A 
ATOM      7  O   UNL     1      -1.159   2.545   1.112  0.00  0.00    -0.267 OA
ATOM      8  C   UNL     1       1.084   2.647   0.714  0.00  0.00    +0.103 A 
ATOM      9  C   UNL     1       1.486   3.971   0.997  0.00  0.00    +0.150 A 
ATOM     10  N   UNL     1       2.767   4.070   0.778  0.00  0.00    -0.172 NA
ATOM     11  N   UNL     1       3.267   2.835   0.346  0.00  0.00    -0.214 N 
ATOM     12  C   UNL     1       2.233   1.950   0.304  0.00  0.00    +0.171 A 
ATOM     13  N   UNL     1       2.116   0.660  -0.024  0.00  0.00    -0.203 NA
ENDROOT
BRANCH  11  14
ATOM     14  C   UNL     1       4.599   2.559   0.015  0.00  0.00    +0.071 A 
ATOM     15  C   UNL     1       5.215   1.415   0.507  0.00  0.00    +0.028 A 
ATOM     16  C   UNL     1       6.529   1.145   0.178  0.00  0.00    +0.005 A 
ATOM     17  C   UNL     1       7.231   2.011  -0.639  0.00  0.00    -0.050 A 
ATOM     18  C   UNL     1       6.621   3.151  -1.130  0.00  0.00    +0.008 A 
ATOM     19  C   UNL     1       5.305   3.424  -0.809  0.00  0.00    -0.025 A 
ATOM     20  C   UNL     1       4.639   4.664  -1.349  0.00  0.00    +0.046 C 
ATOM     21  C   UNL     1       8.664   1.713  -0.996  0.00  0.00    +0.044 C 
ENDBRANCH  11  14
BRANCH   1  22
ATOM     22  C   UNL     1      -2.449   0.481  -0.503  0.00  0.00    +0.121 C 
BRANCH  22  24
ATOM     23  N   UNL     1      -4.779   0.070  -1.224  0.00  0.00    -0.311 N 
ATOM     24  C   UNL     1      -3.759  -0.257  -0.406  0.00  0.00    +0.215 C 
ATOM     25  O   UNL     1      -3.896  -1.145   0.409  0.00  0.00    -0.276 OA
ATOM     26  H   UNL     1      -4.669   0.780  -1.876  0.00  0.00    +0.149 HD
BRANCH  23  27
ATOM     27  C   UNL     1      -6.053  -0.648  -1.130  0.00  0.00    +0.139 C 
BRANCH  27  32
ATOM     28  C   UNL     1      -9.753   1.473  -5.029  0.00  0.00    +0.044 C 
ATOM     29  C   UNL     1      -8.788   0.920  -4.013  0.00  0.00    -0.050 A 
ATOM     30  C   UNL     1      -7.955  -0.131  -4.350  0.00  0.00    +0.003 A 
ATOM     31  C   UNL     1      -7.070  -0.638  -3.417  0.00  0.00    +0.005 A 
ATOM     32  C   UNL     1      -7.017  -0.095  -2.147  0.00  0.00    -0.030 A 
ATOM     33  C   UNL     1      -7.853   0.953  -1.808  0.00  0.00    +0.005 A 
ATOM     34  C   UNL     1      -8.736   1.463  -2.742  0.00  0.00    +0.003 A 
ENDBRANCH  27  32
ENDBRANCH  23  27
ENDBRANCH  22  24
ENDBRANCH   1  22
TORSDOF 5
