REMARK  Name = ZINC63372260
REMARK  8 active torsions:
REMARK  status: ('A' for Active; 'I' for Inactive)
REMARK    1  A    between atoms: C_1  and  C_2
REMARK    2  A    between atoms: C_5  and  C_8
REMARK    3  A    between atoms: N_15  and  C_30
REMARK    4  A    between atoms: C_18  and  C_29
REMARK    5  A    between atoms: C_30  and  C_31
REMARK    6  A    between atoms: C_31  and  C_32
REMARK    7  A    between atoms: C_32  and  O_33
REMARK    8  A    between atoms: O_33  and  C_34
REMARK                            x       y       z     vdW  Elec       q    Type
REMARK                         _______ _______ _______ _____ _____    ______ ____
ROOT
ATOM      1  C   UNL     1       0.059  -4.275  -0.021  0.00  0.00    +0.065 C 
ATOM      2  C   UNL     1       1.305  -4.790   0.721  0.00  0.00    +0.121 C 
ATOM      3  N   UNL     1       1.145  -6.230   1.001  0.00  0.00    -0.283 N 
ATOM      4  C   UNL     1       2.059  -7.073   0.506  0.00  0.00    +0.234 C 
ATOM      5  O   UNL     1       2.952  -6.602  -0.166  0.00  0.00    -0.274 OA
ATOM      6  C   UNL     1       2.062  -8.550   0.722  0.00  0.00    +0.203 C 
ATOM      7  N   UNL     1       0.950  -8.986   1.549  0.00  0.00    -0.291 N 
ATOM      8  C   UNL     1       0.027  -8.159   2.037  0.00  0.00    +0.242 C 
ATOM      9  O   UNL     1      -0.856  -8.635   2.718  0.00  0.00    -0.273 OA
ATOM     10  C   UNL     1       0.007  -6.685   1.801  0.00  0.00    +0.135 C 
ATOM     11  C   UNL     1      -1.281  -6.288   1.072  0.00  0.00    +0.139 C 
ATOM     12  C   UNL     1      -1.140  -4.811   0.719  0.00  0.00    -0.027 C 
ATOM     13  C   UNL     1      -2.218  -4.208   1.204  0.00  0.00    -0.000 A 
ATOM     14  C   UNL     1      -2.698  -2.821   1.095  0.00  0.00    +0.010 A 
ATOM     15  C   UNL     1      -3.854  -2.533   1.748  0.00  0.00    +0.001 A 
ATOM     16  C   UNL     1      -4.573  -3.475   2.491  0.00  0.00    +0.002 A 
ATOM     17  C   UNL     1      -4.212  -4.774   2.637  0.00  0.00    +0.026 A 
ATOM     18  C   UNL     1      -3.017  -5.200   1.986  0.00  0.00    +0.043 A 
ATOM     19  N   UNL     1      -2.459  -6.397   1.932  0.00  0.00    -0.375 N 
ATOM     20  C   UNL     1       0.033  -5.967   3.152  0.00  0.00    +0.044 C 
ATOM     21  H   UNL     1      -2.765  -7.203   2.376  0.00  0.00    +0.160 HD
ENDROOT
BRANCH   1  26
ATOM     22  C   UNL     1      -0.018   1.503   0.010  0.00  0.00    +0.044 C 
ATOM     23  C   UNL     1       0.002  -0.004   0.002  0.00  0.00    -0.050 A 
ATOM     24  C   UNL     1       0.006  -0.689  -1.199  0.00  0.00    +0.003 A 
ATOM     25  C   UNL     1       0.025  -2.071  -1.206  0.00  0.00    +0.004 A 
ATOM     26  C   UNL     1       0.040  -2.768  -0.013  0.00  0.00    -0.039 A 
ATOM     27  C   UNL     1       0.037  -2.084   1.188  0.00  0.00    +0.004 A 
ATOM     28  C   UNL     1       0.023  -0.702   1.195  0.00  0.00    +0.003 A 
ENDBRANCH   1  26
BRANCH   7  29
ATOM     29  C   UNL     1       0.838 -10.412   1.863  0.00  0.00    +0.110 C 
BRANCH  29  30
ATOM     30  C   UNL     1       1.601 -10.711   3.155  0.00  0.00    +0.047 C 
BRANCH  30  31
ATOM     31  C   UNL     1       1.484 -12.201   3.483  0.00  0.00    +0.161 C 
BRANCH  31  32
ATOM     32  O   UNL     1       2.197 -12.480   4.690  0.00  0.00    -0.383 OA
ATOM     33  C   UNL     1       2.151 -13.852   5.088  0.00  0.00    +0.193 C 
ENDBRANCH  31  32
ENDBRANCH  30  31
ENDBRANCH  29  30
ENDBRANCH   7  29
TORSDOF 5
