REMARK  Name = ZINC02736584
REMARK  9 active torsions:
REMARK  status: ('A' for Active; 'I' for Inactive)
REMARK    1  A    between atoms: C_1  and  C_2
REMARK    2  A    between atoms: C_2  and  C_3
REMARK    3  A    between atoms: C_10  and  N_14
REMARK    4  A    between atoms: C_11  and  C_12
REMARK    5  A    between atoms: C_15  and  C_17
REMARK    6  A    between atoms: C_18  and  C_19
REMARK    7  A    between atoms: C_22  and  C_25
REMARK    8  A    between atoms: C_25  and  C_26
REMARK    9  A    between atoms: C_25  and  C_27
REMARK                            x       y       z     vdW  Elec       q    Type
REMARK                         _______ _______ _______ _____ _____    ______ ____
ROOT
ATOM      1  N   UNL     1      -3.668   6.057   6.385  0.00  0.00    -0.275 N 
ATOM      2  C   UNL     1      -3.529   4.735   6.163  0.00  0.00    +0.241 C 
ATOM      3  O   UNL     1      -3.973   3.933   6.964  0.00  0.00    -0.270 OA
ATOM      4  H   UNL     1      -3.313   6.696   5.747  0.00  0.00    +0.156 HD
ENDROOT
BRANCH   1  11
ATOM      5  C   UNL     1      -6.983   8.145  11.435  0.00  0.00    -0.006 C 
ATOM      6  C   UNL     1      -5.920   9.230  11.238  0.00  0.00    +0.008 C 
ATOM      7  C   UNL     1      -5.603   9.383   9.749  0.00  0.00    +0.037 C 
ATOM      8  C   UNL     1      -5.266   8.012   9.176  0.00  0.00    -0.018 A 
ATOM      9  C   UNL     1      -5.622   6.880   9.824  0.00  0.00    -0.004 A 
ATOM     10  S   UNL     1      -5.033   5.566   8.794  0.00  0.00    -0.077 S 
ATOM     11  C   UNL     1      -4.317   6.504   7.526  0.00  0.00    +0.090 A 
ATOM     12  C   UNL     1      -4.556   7.811   7.925  0.00  0.00    +0.084 A 
ATOM     13  C   UNL     1      -6.358   6.777  11.124  0.00  0.00    +0.046 C 
BRANCH   5  15
ATOM     14  C   UNL     1      -8.611   7.156  13.052  0.00  0.00    +0.004 C 
ATOM     15  C   UNL     1      -7.475   8.166  12.884  0.00  0.00    +0.000 C 
ENDBRANCH   5  15
BRANCH  12  16
ATOM     16  C   UNL     1      -4.119   8.921   7.133  0.00  0.00    +0.102 C 
ATOM     17  N   UNL     1      -3.772   9.802   6.505  0.00  0.00    -0.191 NA
ENDBRANCH  12  16
ENDBRANCH   1  11
BRANCH   2  18
ATOM     18  C   UNL     1      -2.843   4.263   4.960  0.00  0.00    +0.068 C 
ATOM     19  C   UNL     1      -2.704   2.940   4.738  0.00  0.00    +0.013 C 
BRANCH  19  20
ATOM     20  C   UNL     1      -2.015   2.465   3.527  0.00  0.00    -0.025 A 
ATOM     21  C   UNL     1      -1.868   1.094   3.293  0.00  0.00    +0.008 A 
ATOM     22  C   UNL     1      -1.222   0.657   2.156  0.00  0.00    +0.004 A 
ATOM     23  C   UNL     1      -0.718   1.572   1.248  0.00  0.00    -0.045 A 
ATOM     24  C   UNL     1      -0.854   2.930   1.475  0.00  0.00    +0.004 A 
ATOM     25  C   UNL     1      -1.503   3.383   2.604  0.00  0.00    +0.008 A 
BRANCH  23  26
ATOM     26  C   UNL     1      -0.013   1.086   0.008  0.00  0.00    +0.013 C 
ATOM     27  C   UNL     1       1.423   1.615  -0.003  0.00  0.00    +0.012 C 
ATOM     28  C   UNL     1      -0.753   1.593  -1.232  0.00  0.00    +0.012 C 
ENDBRANCH  23  26
ENDBRANCH  19  20
ENDBRANCH   2  18
TORSDOF 6
