REMARK  Name = ZINC40512798
REMARK  5 active torsions:
REMARK  status: ('A' for Active; 'I' for Inactive)
REMARK    1  A    between atoms: C_1  and  C_2
REMARK    2  A    between atoms: N_17  and  C_20
REMARK    3  A    between atoms: C_20  and  C_21
REMARK    4  A    between atoms: C_28  and  C_32
REMARK    5  A    between atoms: C_29  and  N_31
REMARK                            x       y       z     vdW  Elec       q    Type
REMARK                         _______ _______ _______ _____ _____    ______ ____
ROOT
ATOM      1  C   UNL     1      -0.018   1.503   0.010  0.00  0.00    +0.063 C 
ATOM      2  C   UNL     1       0.002  -0.004   0.002  0.00  0.00    +0.019 A 
ATOM      3  C   UNL     1      -1.163  -0.686   0.004  0.00  0.00    +0.067 A 
ATOM      4  C   UNL     1      -1.150  -2.096  -0.004  0.00  0.00    +0.142 A 
ATOM      5  C   UNL     1       0.063  -2.752  -0.016  0.00  0.00    +0.084 A 
ATOM      6  C   UNL     1       1.246  -2.003  -0.017  0.00  0.00    +0.257 A 
ATOM      7  O   UNL     1       2.328  -2.571  -0.028  0.00  0.00    -0.267 OA
ATOM      8  N   UNL     1       1.193  -0.658  -0.013  0.00  0.00    -0.326 N 
ATOM      9  H   UNL     1       2.018  -0.148  -0.016  0.00  0.00    +0.169 HD
ATOM     10  C   UNL     1       0.119  -4.253  -0.028  0.00  0.00    +0.147 C 
ATOM     11  C   UNL     1       0.585  -4.782   1.293  0.00  0.00    -0.001 A 
ATOM     12  C   UNL     1       0.046  -4.681   2.557  0.00  0.00    +0.007 A 
ATOM     13  C   UNL     1       0.742  -5.299   3.591  0.00  0.00    +0.000 A 
ATOM     14  C   UNL     1       1.919  -5.981   3.357  0.00  0.00    +0.002 A 
ATOM     15  C   UNL     1       2.467  -6.086   2.088  0.00  0.00    +0.024 A 
ATOM     16  C   UNL     1       1.778  -5.470   1.042  0.00  0.00    +0.041 A 
ATOM     17  N   UNL     1       2.091  -5.416  -0.304  0.00  0.00    -0.265 N 
ATOM     18  C   UNL     1       1.175  -4.722  -1.010  0.00  0.00    +0.241 C 
ATOM     19  O   UNL     1       1.192  -4.512  -2.204  0.00  0.00    -0.274 OA
ATOM     20  C   UNL     1      -1.216  -4.831  -0.399  0.00  0.00    +0.110 C 
ATOM     21  C   UNL     1      -2.339  -4.074  -0.364  0.00  0.00    +0.199 C 
ATOM     22  O   UNL     1      -2.313  -2.781   0.002  0.00  0.00    -0.441 OA
ENDROOT
BRANCH  21  23
ATOM     23  N   UNL     1      -3.538  -4.644  -0.713  0.00  0.00    -0.328 N 
ATOM     24  H   UNL     1      -3.572  -5.576  -0.980  0.00  0.00    +0.145 HD
ATOM     25  H   UNL     1      -4.351  -4.115  -0.693  0.00  0.00    +0.145 HD
ENDBRANCH  21  23
BRANCH  20  26
ATOM     26  C   UNL     1      -1.304  -6.204  -0.795  0.00  0.00    +0.102 C 
ATOM     27  N   UNL     1      -1.374  -7.294  -1.109  0.00  0.00    -0.191 NA
ENDBRANCH  20  26
BRANCH  17  28
ATOM     28  C   UNL     1       3.278  -6.040  -0.895  0.00  0.00    +0.150 C 
BRANCH  28  29
ATOM     29  C   UNL     1       2.948  -7.448  -1.317  0.00  0.00    -0.011 A 
ATOM     30  C   UNL     1       3.308  -8.513  -0.512  0.00  0.00    +0.006 A 
ATOM     31  C   UNL     1       3.006  -9.805  -0.899  0.00  0.00    +0.000 A 
ATOM     32  C   UNL     1       2.343 -10.033  -2.091  0.00  0.00    +0.001 A 
ATOM     33  C   UNL     1       1.982  -8.969  -2.896  0.00  0.00    +0.020 A 
ATOM     34  C   UNL     1       2.280  -7.675  -2.506  0.00  0.00    +0.046 A 
ATOM     35 CL   UNL     1       1.821  -6.338  -3.514  0.00  0.00    -0.083 Cl
ENDBRANCH  28  29
ENDBRANCH  17  28
TORSDOF 4
