REMARK  Name = ZINC34756085
REMARK  8 active torsions:
REMARK  status: ('A' for Active; 'I' for Inactive)
REMARK    1  A    between atoms: C_1  and  C_2
REMARK    2  A    between atoms: C_2  and  C_4
REMARK    3  A    between atoms: C_4  and  S_5
REMARK    4  A    between atoms: S_5  and  C_6
REMARK    5  A    between atoms: N_22  and  C_25
REMARK    6  A    between atoms: C_25  and  C_26
REMARK    7  A    between atoms: N_28  and  C_29
REMARK    8  A    between atoms: N_28  and  C_30
REMARK                            x       y       z     vdW  Elec       q    Type
REMARK                         _______ _______ _______ _____ _____    ______ ____
ROOT
ATOM      1  C   UNL     1      -1.496  -1.581  -3.546  0.00  0.00    +0.191 A 
ATOM      2  N   UNL     1      -2.554  -1.722  -4.338  0.00  0.00    -0.206 NA
ATOM      3  C   UNL     1      -2.497  -2.400  -5.471  0.00  0.00    +0.134 A 
ATOM      4  C   UNL     1      -1.268  -3.001  -5.862  0.00  0.00    +0.051 A 
ATOM      5  C   UNL     1      -0.975  -3.791  -7.061  0.00  0.00    -0.025 A 
ATOM      6  C   UNL     1       0.284  -4.252  -7.197  0.00  0.00    -0.004 A 
ATOM      7  S   UNL     1       1.147  -3.672  -5.761  0.00  0.00    -0.073 S 
ATOM      8  C   UNL     1      -0.190  -2.810  -4.976  0.00  0.00    +0.115 A 
ATOM      9  N   UNL     1      -0.324  -2.115  -3.863  0.00  0.00    -0.215 NA
ATOM     10  C   UNL     1       0.832  -5.077  -8.321  0.00  0.00    +0.043 C 
ATOM     11  C   UNL     1      -0.347  -5.643  -9.126  0.00  0.00    +0.005 C 
ATOM     12  C   UNL     1      -1.335  -4.508  -9.412  0.00  0.00    +0.005 C 
ATOM     13  C   UNL     1      -2.034  -4.090  -8.118  0.00  0.00    +0.037 C 
ATOM     14  N   UNL     1      -3.621  -2.525  -6.268  0.00  0.00    -0.318 N 
ATOM     15  C   UNL     1      -4.492  -3.706  -6.169  0.00  0.00    +0.088 C 
ATOM     16  C   UNL     1      -5.940  -3.230  -6.013  0.00  0.00    -0.059 C 
ATOM     17  N   UNL     1      -6.276  -2.320  -7.115  0.00  0.00    +0.387 N 
ATOM     18  C   UNL     1      -5.451  -1.108  -7.032  0.00  0.00    -0.059 C 
ATOM     19  C   UNL     1      -3.982  -1.476  -7.235  0.00  0.00    +0.088 C 
ATOM     20  H   UNL     1      -6.106  -2.782  -7.995  0.00  0.00    -0.081 HD
ENDROOT
BRANCH   1  21
ATOM     21  S   UNL     1      -1.652  -0.662  -2.051  0.00  0.00    -0.082 S 
BRANCH  21  22
ATOM     22  C   UNL     1       0.006  -0.729  -1.320  0.00  0.00    +0.107 C 
BRANCH  22  24
ATOM     23  C   UNL     1       0.002   1.537  -0.023  0.00  0.00    +0.039 C 
ATOM     24  C   UNL     1       0.012   0.030  -0.018  0.00  0.00    -0.069 C 
ATOM     25  C   UNL     1       0.026  -0.621   1.119  0.00  0.00    +0.008 C 
ENDBRANCH  22  24
ENDBRANCH  21  22
ENDBRANCH   1  21
BRANCH  17  26
ATOM     26  C   UNL     1      -7.696  -1.951  -7.026  0.00  0.00    +0.019 C 
BRANCH  26  27
ATOM     27  C   UNL     1      -8.073  -1.117  -8.223  0.00  0.00    +0.199 C 
ATOM     28  O   UNL     1      -7.242  -0.856  -9.067  0.00  0.00    -0.278 OA
ATOM     29  N   UNL     1      -9.335  -0.661  -8.356  0.00  0.00    -0.309 N 
ATOM     30  C   UNL     1      -9.702   0.149  -9.520  0.00  0.00    +0.131 C 
ATOM     31  C   UNL     1     -10.339  -0.977  -7.337  0.00  0.00    +0.131 C 
ENDBRANCH  26  27
ENDBRANCH  17  26
TORSDOF 5
