REMARK  Name = ZINC09088066
REMARK  8 active torsions:
REMARK  status: ('A' for Active; 'I' for Inactive)
REMARK    1  A    between atoms: C_1  and  C_2
REMARK    2  A    between atoms: C_2  and  C_3
REMARK    3  A    between atoms: C_3  and  N_20
REMARK    4  A    between atoms: N_9  and  C_12
REMARK    5  A    between atoms: C_17  and  C_18
REMARK    6  A    between atoms: N_20  and  N_21
REMARK    7  A    between atoms: C_22  and  C_24
REMARK    8  A    between atoms: C_29  and  O_30
REMARK                            x       y       z     vdW  Elec       q    Type
REMARK                         _______ _______ _______ _____ _____    ______ ____
ROOT
ATOM      1  C   UNL     1       0.705  -0.499  -1.243  0.00  0.00    +0.039 C 
ATOM      2  C   UNL     1       2.074  -0.696  -1.238  0.00  0.00    +0.119 C 
ATOM      3  C   UNL     1       2.809  -1.038  -2.473  0.00  0.00    +0.278 C 
ATOM      4  N   UNL     1       4.139  -1.215  -2.396  0.00  0.00    -0.123 NA
ATOM      5  C   UNL     1       4.790  -1.093  -1.266  0.00  0.00    +0.340 C 
ATOM      6  O   UNL     1       6.123  -1.288  -1.277  0.00  0.00    -0.250 OA
ATOM      7  N   UNL     1       4.196  -0.782  -0.083  0.00  0.00    -0.188 N 
ATOM      8  C   UNL     1       2.865  -0.570  -0.004  0.00  0.00    +0.265 C 
ATOM      9  O   UNL     1       2.337  -0.286   1.056  0.00  0.00    -0.269 OA
ATOM     10  O   UNL     1       2.224  -1.156  -3.536  0.00  0.00    -0.268 OA
ENDROOT
BRANCH   7  11
ATOM     11  C   UNL     1       4.981  -0.674   1.073  0.00  0.00    +0.049 A 
ATOM     12  C   UNL     1       5.534   0.549   1.427  0.00  0.00    +0.024 A 
ATOM     13  C   UNL     1       6.307   0.652   2.567  0.00  0.00    +0.002 A 
ATOM     14  C   UNL     1       6.529  -0.462   3.356  0.00  0.00    +0.000 A 
ATOM     15  C   UNL     1       5.980  -1.682   3.006  0.00  0.00    +0.005 A 
ATOM     16  C   UNL     1       5.202  -1.790   1.870  0.00  0.00    -0.029 A 
ATOM     17  C   UNL     1       4.598  -3.118   1.493  0.00  0.00    +0.045 C 
ENDBRANCH   7  11
BRANCH   1  19
ATOM     18  C   UNL     1       0.055   1.476   0.108  0.00  0.00    +0.010 C 
ATOM     19  C   UNL     1       0.004  -0.050   0.013  0.00  0.00    +0.049 C 
ENDBRANCH   1  19
BRANCH   1  20
ATOM     20  N   UNL     1      -0.002  -0.709  -2.371  0.00  0.00    -0.267 N 
ATOM     21  H   UNL     1       0.434  -1.078  -3.155  0.00  0.00    +0.170 HD
BRANCH  20  22
ATOM     22  N   UNL     1      -1.366  -0.393  -2.412  0.00  0.00    -0.233 N 
ATOM     23  C   UNL     1      -2.051  -0.508  -3.567  0.00  0.00    +0.264 C 
ATOM     24  O   UNL     1      -1.509  -0.973  -4.551  0.00  0.00    -0.269 OA
ATOM     25  H   UNL     1      -1.818  -0.091  -1.608  0.00  0.00    +0.173 HD
BRANCH  23  26
ATOM     26  C   UNL     1      -3.458  -0.071  -3.637  0.00  0.00    +0.079 A 
ATOM     27  C   UNL     1      -4.051   0.567  -2.545  0.00  0.00    +0.017 A 
ATOM     28  C   UNL     1      -5.366   0.973  -2.617  0.00  0.00    +0.001 A 
ATOM     29  C   UNL     1      -6.104   0.751  -3.769  0.00  0.00    +0.004 A 
ATOM     30  C   UNL     1      -5.530   0.122  -4.856  0.00  0.00    +0.046 A 
ATOM     31  C   UNL     1      -4.206  -0.288  -4.803  0.00  0.00    +0.129 A 
BRANCH  31  32
ATOM     32  O   UNL     1      -3.639  -0.901  -5.872  0.00  0.00    -0.506 OA
ATOM     33  H   UNL     1      -3.734  -1.864  -5.869  0.00  0.00    +0.292 HD
ENDBRANCH  31  32
ENDBRANCH  23  26
ENDBRANCH  20  22
ENDBRANCH   1  20
TORSDOF 6
