REMARK  Name = ZINC34704300
REMARK  17 active torsions:
REMARK  status: ('A' for Active; 'I' for Inactive)
REMARK    1  A    between atoms: C_1  and  C_2
REMARK    2  A    between atoms: C_2  and  N_3
REMARK    3  A    between atoms: N_3  and  C_4
REMARK    4  A    between atoms: N_3  and  C_6
REMARK    5  A    between atoms: C_4  and  C_5
REMARK    6  A    between atoms: C_6  and  C_7
REMARK    7  A    between atoms: C_7  and  C_8
REMARK    8  A    between atoms: C_8  and  C_9
REMARK    9  A    between atoms: C_9  and  C_11
REMARK   10  A    between atoms: C_9  and  N_12
REMARK   11  A    between atoms: C_13  and  C_15
REMARK   12  A    between atoms: C_18  and  C_20
REMARK   13  A    between atoms: C_20  and  N_21
REMARK   14  A    between atoms: C_24  and  C_32
REMARK   15  A    between atoms: C_32  and  C_33
REMARK   16  A    between atoms: C_32  and  C_34
REMARK   17  A    between atoms: C_32  and  C_35
REMARK                            x       y       z     vdW  Elec       q    Type
REMARK                         _______ _______ _______ _____ _____    ______ ____
ROOT
ATOM      1  C   UNL     1       1.953  -3.540  -4.714  0.00  0.00    +0.164 A 
ATOM      2  C   UNL     1       2.164  -3.522  -6.058  0.00  0.00    +0.230 A 
ATOM      3  O   UNL     1       0.980  -3.271  -6.638  0.00  0.00    -0.445 OA
ATOM      4  C   UNL     1       0.060  -3.137  -5.671  0.00  0.00    +0.214 A 
ATOM      5  N   UNL     1       0.628  -3.300  -4.514  0.00  0.00    -0.207 NA
ENDROOT
BRANCH   1   7
ATOM      6  N   UNL     1       4.264  -3.908  -4.010  0.00  0.00    -0.307 N 
ATOM      7  C   UNL     1       2.966  -3.779  -3.671  0.00  0.00    +0.266 C 
ATOM      8  O   UNL     1       2.631  -3.860  -2.505  0.00  0.00    -0.268 OA
ATOM      9  H   UNL     1       4.541  -3.775  -4.930  0.00  0.00    +0.149 HD
BRANCH   6  10
ATOM     10  C   UNL     1       5.258  -4.250  -2.988  0.00  0.00    +0.070 C 
ATOM     11  C   UNL     1       5.711  -2.977  -2.271  0.00  0.00    +0.028 C 
BRANCH  10  12
ATOM     12  C   UNL     1       6.463  -4.918  -3.653  0.00  0.00    +0.020 C 
BRANCH  12  13
ATOM     13  C   UNL     1       6.027  -6.239  -4.289  0.00  0.00    -0.017 C 
BRANCH  13  14
ATOM     14  C   UNL     1       7.253  -6.967  -4.844  0.00  0.00    -0.079 C 
BRANCH  14  15
ATOM     15  N   UNL     1       6.832  -8.223  -5.479  0.00  0.00    +0.379 N 
ATOM     16  H   UNL     1       6.305  -8.774  -4.818  0.00  0.00    -0.082 HD
BRANCH  15  18
ATOM     17  C   UNL     1       6.773  -7.045  -7.626  0.00  0.00    -0.017 C 
ATOM     18  C   UNL     1       5.992  -7.924  -6.646  0.00  0.00    -0.082 C 
ENDBRANCH  15  18
BRANCH  15  19
ATOM     19  C   UNL     1       8.018  -8.976  -5.909  0.00  0.00    -0.082 C 
ATOM     20  C   UNL     1       7.585 -10.336  -6.461  0.00  0.00    -0.017 C 
ENDBRANCH  15  19
ENDBRANCH  14  15
ENDBRANCH  13  14
ENDBRANCH  12  13
ENDBRANCH  10  12
ENDBRANCH   6  10
ENDBRANCH   1   7
BRANCH   4  21
ATOM     21  C   UNL     1      -1.402  -2.847  -5.892  0.00  0.00    +0.209 C 
BRANCH  21  22
ATOM     22  N   UNL     1      -1.630  -1.401  -5.822  0.00  0.00    -0.256 N 
ATOM     23  C   UNL     1      -2.016  -0.800  -4.616  0.00  0.00    +0.079 A 
ATOM     24  C   UNL     1      -1.885  -1.475  -3.414  0.00  0.00    +0.031 A 
ATOM     25  C   UNL     1      -2.273  -0.864  -2.235  0.00  0.00    -0.040 A 
ATOM     26  C   UNL     1      -2.791   0.418  -2.255  0.00  0.00    +0.008 A 
ATOM     27  C   UNL     1      -2.923   1.098  -3.451  0.00  0.00    +0.048 A 
ATOM     28  C   UNL     1      -2.537   0.493  -4.635  0.00  0.00    +0.143 A 
ATOM     29  O   UNL     1      -2.657   1.148  -5.820  0.00  0.00    -0.481 OA
ATOM     30  C   UNL     1      -1.671   0.863  -6.816  0.00  0.00    +0.325 C 
ATOM     31  C   UNL     1      -1.465  -0.627  -6.916  0.00  0.00    +0.258 C 
ATOM     32  O   UNL     1      -1.156  -1.129  -7.976  0.00  0.00    -0.271 OA
BRANCH  25  33
ATOM     33  C   UNL     1      -2.132  -1.598  -0.927  0.00  0.00    -0.013 C 
ATOM     34  C   UNL     1      -0.681  -2.052  -0.751  0.00  0.00    +0.015 C 
ATOM     35  C   UNL     1      -2.518  -0.667   0.224  0.00  0.00    +0.015 C 
ATOM     36  C   UNL     1      -3.052  -2.820  -0.925  0.00  0.00    +0.015 C 
ENDBRANCH  25  33
ENDBRANCH  21  22
ENDBRANCH   4  21
TORSDOF 11
