REMARK  Name = ZINC11843862
REMARK  9 active torsions:
REMARK  status: ('A' for Active; 'I' for Inactive)
REMARK    1  A    between atoms: C_1  and  C_2
REMARK    2  A    between atoms: C_2  and  N_54
REMARK    3  A    between atoms: C_3  and  C_19
REMARK    4  A    between atoms: C_5  and  C_12
REMARK    5  A    between atoms: C_8  and  C_9
REMARK    6  A    between atoms: C_8  and  C_10
REMARK    7  A    between atoms: C_10  and  O_11
REMARK    8  A    between atoms: C_12  and  N_56
REMARK    9  A    between atoms: C_13  and  N_56
REMARK                            x       y       z     vdW  Elec       q    Type
REMARK                         _______ _______ _______ _____ _____    ______ ____
ROOT
ATOM      1  C   UNL     1       3.541   1.612   1.244  0.00  0.00    -0.035 C 
ATOM      2  C   UNL     1       2.136   0.985   1.184  0.00  0.00    -0.039 C 
ATOM      3  C   UNL     1       2.377  -0.531   0.995  0.00  0.00    -0.010 C 
ATOM      4  C   UNL     1       3.821  -0.721   1.522  0.00  0.00    -0.044 C 
ATOM      5  C   UNL     1       3.831  -0.815   3.049  0.00  0.00    -0.007 C 
ATOM      6  N   UNL     1       4.488   0.503   1.062  0.00  0.00    +0.389 N 
ATOM      7  H   UNL     1       4.731   0.413   0.069  0.00  0.00    -0.080 HD
ENDROOT
BRANCH   1   8
ATOM      8  C   UNL     1       3.700   2.623   0.138  0.00  0.00    -0.061 A 
ATOM      9  C   UNL     1       3.992   2.203  -1.146  0.00  0.00    +0.003 A 
ATOM     10  C   UNL     1       4.132   3.129  -2.162  0.00  0.00    +0.020 A 
ATOM     11  C   UNL     1       3.990   4.479  -1.892  0.00  0.00    +0.041 A 
ATOM     12  C   UNL     1       3.703   4.899  -0.606  0.00  0.00    +0.020 A 
ATOM     13  C   UNL     1       3.558   3.972   0.408  0.00  0.00    +0.003 A 
ATOM     14 CL   UNL     1       4.173   5.644  -3.166  0.00  0.00    -0.084 Cl
ENDBRANCH   1   8
BRANCH   6  16
ATOM     15  C   UNL     1       6.546   1.872   1.199  0.00  0.00    -0.017 C 
ATOM     16  C   UNL     1       5.732   0.752   1.850  0.00  0.00    -0.081 C 
ENDBRANCH   6  16
BRANCH   4  17
ATOM     17  C   UNL     1       4.463  -1.964   0.902  0.00  0.00    +0.143 C 
BRANCH  17  18
ATOM     18  O   UNL     1       3.711  -3.122   1.269  0.00  0.00    -0.396 OA
ATOM     19  H   UNL     1       4.061  -3.949   0.911  0.00  0.00    +0.209 HD
ENDBRANCH  17  18
ENDBRANCH   4  17
BRANCH   2  20
ATOM     20  C   UNL     1       1.353   1.550  -0.003  0.00  0.00    -0.080 C 
BRANCH  20  21
ATOM     21  N   UNL     1      -0.015   0.998   0.015  0.00  0.00    +0.381 N 
ATOM     22  H   UNL     1      -0.475   1.261   0.894  0.00  0.00    -0.086 HD
ATOM     23  H   UNL     1       0.032  -0.025  -0.054  0.00  0.00    -0.086 HD
BRANCH  21  24
ATOM     24  C   UNL     1      -0.795   1.527  -1.120  0.00  0.00    -0.070 C 
ATOM     25  C   UNL     1      -1.385   2.881  -0.737  0.00  0.00    -0.005 C 
ATOM     26  C   UNL     1      -1.956   3.572  -1.979  0.00  0.00    +0.067 C 
ATOM     27  S   UNL     1      -3.307   2.552  -2.643  0.00  0.00    -0.161 S 
ATOM     28  C   UNL     1      -2.541   0.910  -2.804  0.00  0.00    +0.067 C 
ATOM     29  C   UNL     1      -1.901   0.534  -1.465  0.00  0.00    -0.005 C 
ENDBRANCH  21  24
ENDBRANCH  20  21
ENDBRANCH   2  20
TORSDOF 7
