REMARK  Name = ZINC10475100
REMARK  12 active torsions:
REMARK  status: ('A' for Active; 'I' for Inactive)
REMARK    1  A    between atoms: C_1  and  O_2
REMARK    2  A    between atoms: O_2  and  C_3
REMARK    3  A    between atoms: C_7  and  C_17
REMARK    4  A    between atoms: C_8  and  O_9
REMARK    5  A    between atoms: O_9  and  C_10
REMARK    6  A    between atoms: C_10  and  C_11
REMARK    7  A    between atoms: C_17  and  N_54
REMARK    8  A    between atoms: C_18  and  C_19
REMARK    9  A    between atoms: C_18  and  N_54
REMARK   10  A    between atoms: C_19  and  N_20
REMARK   11  A    between atoms: N_20  and  C_21
REMARK   12  A    between atoms: C_24  and  N_28
REMARK                            x       y       z     vdW  Elec       q    Type
REMARK                         _______ _______ _______ _____ _____    ______ ____
ROOT
ATOM      1  C   UNL     1       3.724  -0.696  -0.037  0.00  0.00    -0.043 C 
ENDROOT
BRANCH   1   6
ATOM      2  C   UNL     1       0.002  -0.004   0.002  0.00  0.00    +0.163 A 
ATOM      3  C   UNL     1      -0.017   1.381   0.010  0.00  0.00    +0.069 A 
ATOM      4  C   UNL     1       1.172   2.089   0.002  0.00  0.00    +0.045 A 
ATOM      5  C   UNL     1       2.381   1.416  -0.013  0.00  0.00    +0.025 A 
ATOM      6  C   UNL     1       2.405   0.034  -0.021  0.00  0.00    -0.018 A 
ATOM      7  C   UNL     1       1.218  -0.680  -0.013  0.00  0.00    +0.164 A 
ATOM      8 CL   UNL     1       1.147   3.825   0.011  0.00  0.00    -0.083 Cl
BRANCH   2  10
ATOM      9  C   UNL     1      -2.375   0.059   0.024  0.00  0.00    +0.277 C 
ATOM     10  O   UNL     1      -1.165  -0.701   0.009  0.00  0.00    -0.491 OA
ENDBRANCH   2  10
BRANCH   7  11
ATOM     11  O   UNL     1       1.241  -2.041  -0.021  0.00  0.00    -0.484 OA
BRANCH  11  12
ATOM     12  C   UNL     1       1.240  -2.682  -1.298  0.00  0.00    +0.264 C 
BRANCH  12  13
ATOM     13  C   UNL     1       1.267  -4.177  -1.109  0.00  0.00    -0.010 A 
ATOM     14  C   UNL     1       2.477  -4.843  -1.040  0.00  0.00    +0.007 A 
ATOM     15  C   UNL     1       2.501  -6.213  -0.861  0.00  0.00    +0.000 A 
ATOM     16  C   UNL     1       1.317  -6.919  -0.764  0.00  0.00    +0.000 A 
ATOM     17  C   UNL     1       0.107  -6.254  -0.839  0.00  0.00    +0.000 A 
ATOM     18  C   UNL     1       0.083  -4.883  -1.012  0.00  0.00    +0.007 A 
ENDBRANCH  12  13
ENDBRANCH  11  12
ENDBRANCH   7  11
ENDBRANCH   1   6
BRANCH   1  19
ATOM     19  N   UNL     1       4.016  -1.135  -1.414  0.00  0.00    +0.383 N 
ATOM     20  H   UNL     1       4.065  -0.314  -2.028  0.00  0.00    -0.085 HD
ATOM     21  H   UNL     1       3.268  -1.760  -1.737  0.00  0.00    -0.085 HD
BRANCH  19  22
ATOM     22  C   UNL     1       5.303  -1.854  -1.460  0.00  0.00    -0.063 C 
BRANCH  22  23
ATOM     23  C   UNL     1       5.580  -2.296  -2.898  0.00  0.00    +0.082 C 
BRANCH  23  24
ATOM     24  N   UNL     1       6.857  -3.011  -2.952  0.00  0.00    -0.345 N 
ATOM     25  H   UNL     1       7.378  -3.136  -2.144  0.00  0.00    +0.146 HD
BRANCH  24  26
ATOM     26  C   UNL     1       7.326  -3.515  -4.169  0.00  0.00    +0.046 A 
ATOM     27  C   UNL     1       6.581  -3.338  -5.328  0.00  0.00    +0.026 A 
ATOM     28  C   UNL     1       7.046  -3.836  -6.529  0.00  0.00    +0.034 A 
ATOM     29  C   UNL     1       8.252  -4.511  -6.579  0.00  0.00    +0.128 A 
ATOM     30  C   UNL     1       8.997  -4.690  -5.428  0.00  0.00    +0.054 A 
ATOM     31  C   UNL     1       8.540  -4.188  -4.223  0.00  0.00    +0.064 A 
ATOM     32 CL   UNL     1       9.479  -4.406  -2.779  0.00  0.00    -0.082 Cl
BRANCH  29  33
ATOM     33  N   UNL     1       8.748  -5.044  -7.868  0.00  0.00    +0.056 N 
ATOM     34  O   UNL     1       8.093  -4.887  -8.884  0.00  0.00    -0.126 OA
ATOM     35  O   UNL     1       9.810  -5.638  -7.914  0.00  0.00    -0.126 OA
ENDBRANCH  29  33
ENDBRANCH  24  26
ENDBRANCH  23  24
ENDBRANCH  22  23
ENDBRANCH  19  22
ENDBRANCH   1  19
TORSDOF 11
