REMARK  Name = ZINC39653177
REMARK  11 active torsions:
REMARK  status: ('A' for Active; 'I' for Inactive)
REMARK    1  A    between atoms: C_1  and  C_2
REMARK    2  A    between atoms: C_4  and  C_8
REMARK    3  A    between atoms: N_6  and  C_7
REMARK    4  A    between atoms: C_12  and  C_21
REMARK    5  A    between atoms: N_23  and  C_24
REMARK    6  A    between atoms: C_24  and  C_25
REMARK    7  A    between atoms: C_25  and  C_26
REMARK    8  A    between atoms: C_28  and  O_34
REMARK    9  A    between atoms: C_30  and  O_32
REMARK   10  A    between atoms: O_32  and  C_33
REMARK   11  A    between atoms: O_34  and  C_35
REMARK                            x       y       z     vdW  Elec       q    Type
REMARK                         _______ _______ _______ _____ _____    ______ ____
ROOT
ATOM      1  C   UNL     1       0.155  -3.212  -1.144  0.00  0.00    +0.267 C 
ATOM      2  O   UNL     1       0.182  -3.050  -2.349  0.00  0.00    -0.268 OA
ATOM      3  N   UNL     1       0.135  -4.458  -0.631  0.00  0.00    -0.295 N 
ATOM      4  C   UNL     1       0.095  -4.851   0.797  0.00  0.00    +0.121 C 
ATOM      5  C   UNL     1      -0.860  -6.066   0.841  0.00  0.00    +0.100 C 
ATOM      6  C   UNL     1      -0.820  -6.648  -0.582  0.00  0.00    -0.004 C 
ATOM      7  C   UNL     1       0.141  -5.744  -1.368  0.00  0.00    +0.115 C 
ATOM      8  C   UNL     1      -2.209  -6.603  -1.211  0.00  0.00    -0.010 C 
ATOM      9  C   UNL     1      -2.155  -7.239  -2.603  0.00  0.00    -0.082 C 
ATOM     10  N   UNL     1      -1.691  -8.628  -2.491  0.00  0.00    +0.379 N 
ATOM     11  C   UNL     1      -0.318  -8.656  -1.971  0.00  0.00    -0.082 C 
ATOM     12  C   UNL     1      -0.295  -8.080  -0.553  0.00  0.00    -0.010 C 
ATOM     13  H   UNL     1      -2.297  -9.134  -1.863  0.00  0.00    -0.086 HD
ATOM     14  H   UNL     1      -1.714  -9.063  -3.401  0.00  0.00    -0.086 HD
ENDROOT
BRANCH   1  18
ATOM     15  C   UNL     1       0.150   1.525   0.659  0.00  0.00    +0.065 C 
ATOM     16  C   UNL     1       0.142   0.024   0.527  0.00  0.00    +0.037 A 
ATOM     17  C   UNL     1       0.162  -0.680  -0.629  0.00  0.00    +0.057 A 
ATOM     18  C   UNL     1       0.144  -2.042  -0.242  0.00  0.00    +0.147 A 
ATOM     19  N   UNL     1       0.115  -2.067   1.075  0.00  0.00    -0.167 NA
ATOM     20  N   UNL     1       0.118  -0.869   1.539  0.00  0.00    -0.271 N 
ATOM     21  C   UNL     1       0.096  -0.521   2.962  0.00  0.00    +0.172 C 
ENDBRANCH   1  18
BRANCH   5  22
ATOM     22  C   UNL     1      -2.258  -5.622   1.189  0.00  0.00    +0.218 C 
ATOM     23  O   UNL     1      -2.640  -4.516   0.868  0.00  0.00    -0.275 OA
ATOM     24  N   UNL     1      -3.082  -6.453   1.857  0.00  0.00    -0.315 N 
ATOM     25  H   UNL     1      -2.776  -7.337   2.113  0.00  0.00    +0.149 HD
BRANCH  24  26
ATOM     26  C   UNL     1      -4.441  -6.022   2.195  0.00  0.00    +0.109 C 
BRANCH  26  27
ATOM     27  C   UNL     1      -5.160  -7.144   2.946  0.00  0.00    +0.054 C 
BRANCH  27  28
ATOM     28  C   UNL     1      -6.557  -6.700   3.294  0.00  0.00    -0.039 A 
ATOM     29  C   UNL     1      -6.797  -6.052   4.491  0.00  0.00    +0.049 A 
ATOM     30  C   UNL     1      -8.083  -5.643   4.814  0.00  0.00    +0.124 A 
ATOM     31  C   UNL     1      -9.128  -5.884   3.934  0.00  0.00    +0.091 A 
ATOM     32  C   UNL     1      -8.884  -6.534   2.734  0.00  0.00    +0.124 A 
ATOM     33  C   UNL     1      -7.596  -6.937   2.413  0.00  0.00    +0.049 A 
BRANCH  32  34
ATOM     34  O   UNL     1      -9.906  -6.772   1.871  0.00  0.00    -0.495 OA
ATOM     35  C   UNL     1     -11.206  -6.325   2.264  0.00  0.00    +0.277 C 
ENDBRANCH  32  34
BRANCH  30  36
ATOM     36  O   UNL     1      -8.319  -5.006   5.991  0.00  0.00    -0.495 OA
ATOM     37  C   UNL     1      -9.666  -4.613   6.258  0.00  0.00    +0.277 C 
ENDBRANCH  30  36
ENDBRANCH  27  28
ENDBRANCH  26  27
ENDBRANCH  24  26
ENDBRANCH   5  22
TORSDOF 7
