REMARK  Name = ZINC39691310
REMARK  9 active torsions:
REMARK  status: ('A' for Active; 'I' for Inactive)
REMARK    1  A    between atoms: C_1  and  C_2
REMARK    2  A    between atoms: C_2  and  C_3
REMARK    3  A    between atoms: C_2  and  C_4
REMARK    4  A    between atoms: C_8  and  C_17
REMARK    5  A    between atoms: N_19  and  C_20
REMARK    6  A    between atoms: C_20  and  C_21
REMARK    7  A    between atoms: C_21  and  N_22
REMARK    8  A    between atoms: C_23  and  C_25
REMARK    9  A    between atoms: C_25  and  C_26
REMARK                            x       y       z     vdW  Elec       q    Type
REMARK                         _______ _______ _______ _____ _____    ______ ____
ROOT
ATOM      1  C   UNL     1       5.350   1.035  -0.702  0.00  0.00    +0.218 C 
ATOM      2  O   UNL     1       5.179   2.090  -1.274  0.00  0.00    -0.275 OA
ATOM      3  N   UNL     1       6.522   0.784  -0.085  0.00  0.00    -0.314 N 
ATOM      4  H   UNL     1       6.658  -0.060   0.372  0.00  0.00    +0.149 HD
ENDROOT
BRANCH   1   9
ATOM      5  C   UNL     1       0.741  -0.529  -1.395  0.00  0.00    +0.218 C 
ATOM      6  O   UNL     1       0.196  -1.275  -2.180  0.00  0.00    -0.275 OA
ATOM      7  N   UNL     1       2.035  -0.195  -1.569  0.00  0.00    -0.300 N 
ATOM      8  C   UNL     1       2.868   0.689  -0.720  0.00  0.00    +0.121 C 
ATOM      9  C   UNL     1       4.252   0.003  -0.681  0.00  0.00    +0.100 C 
ATOM     10  C   UNL     1       4.298  -0.859  -1.954  0.00  0.00    -0.004 C 
ATOM     11  C   UNL     1       2.949  -0.633  -2.652  0.00  0.00    +0.115 C 
ATOM     12  C   UNL     1       5.442  -0.406  -2.857  0.00  0.00    -0.010 C 
ATOM     13  C   UNL     1       5.505  -1.315  -4.088  0.00  0.00    -0.082 C 
ATOM     14  N   UNL     1       5.710  -2.705  -3.663  0.00  0.00    +0.379 N 
ATOM     15  C   UNL     1       4.561  -3.162  -2.873  0.00  0.00    -0.082 C 
ATOM     16  C   UNL     1       4.458  -2.332  -1.590  0.00  0.00    -0.010 C 
ATOM     17  H   UNL     1       5.812  -3.292  -4.477  0.00  0.00    -0.086 HD
ATOM     18  H   UNL     1       6.547  -2.764  -3.103  0.00  0.00    -0.086 HD
BRANCH   5  20
ATOM     19  C   UNL     1      -0.049   1.551  -0.301  0.00  0.00    +0.017 C 
ATOM     20  C   UNL     1      -0.028   0.023  -0.223  0.00  0.00    +0.069 C 
ATOM     21  C   UNL     1      -1.462  -0.508  -0.257  0.00  0.00    +0.017 C 
ENDBRANCH   5  20
ENDBRANCH   1   9
BRANCH   3  22
ATOM     22  C   UNL     1       7.589   1.787  -0.106  0.00  0.00    +0.123 C 
BRANCH  22  23
ATOM     23  C   UNL     1       8.802   1.257   0.661  0.00  0.00    +0.123 C 
BRANCH  23  24
ATOM     24  N   UNL     1       9.870   2.260   0.640  0.00  0.00    -0.314 N 
ATOM     25  C   UNL     1      11.042   2.009   1.257  0.00  0.00    +0.217 C 
ATOM     26  O   UNL     1      11.213   0.953   1.829  0.00  0.00    -0.275 OA
ATOM     27  H   UNL     1       9.733   3.104   0.183  0.00  0.00    +0.149 HD
BRANCH  25  28
ATOM     28  C   UNL     1      12.140   3.041   1.236  0.00  0.00    +0.131 C 
BRANCH  28  29
ATOM     29  C   UNL     1      13.335   2.518   1.991  0.00  0.00    -0.031 A 
ATOM     30  C   UNL     1      13.504   2.831   3.305  0.00  0.00    +0.005 A 
ATOM     31  C   UNL     1      14.603   2.358   4.019  0.00  0.00    +0.001 A 
ATOM     32  C   UNL     1      15.538   1.568   3.424  0.00  0.00    +0.008 A 
ATOM     33  C   UNL     1      15.397   1.224   2.069  0.00  0.00    -0.018 A 
ATOM     34  C   UNL     1      14.277   1.701   1.344  0.00  0.00    -0.014 A 
ATOM     35  C   UNL     1      14.133   1.351  -0.010  0.00  0.00    +0.009 A 
ATOM     36  C   UNL     1      15.065   0.557  -0.603  0.00  0.00    +0.001 A 
ATOM     37  C   UNL     1      16.163   0.083   0.112  0.00  0.00    +0.001 A 
ATOM     38  C   UNL     1      16.343   0.412   1.420  0.00  0.00    +0.008 A 
ENDBRANCH  28  29
ENDBRANCH  25  28
ENDBRANCH  23  24
ENDBRANCH  22  23
ENDBRANCH   3  22
TORSDOF 7
