REMARK  Name = ZINC59383323
REMARK  5 active torsions:
REMARK  status: ('A' for Active; 'I' for Inactive)
REMARK    1  A    between atoms: C_3  and  C_8
REMARK    2  A    between atoms: C_5  and  N_7
REMARK    3  A    between atoms: C_8  and  C_10
REMARK    4  A    between atoms: N_18  and  C_21
REMARK    5  A    between atoms: C_25  and  N_27
REMARK                            x       y       z     vdW  Elec       q    Type
REMARK                         _______ _______ _______ _____ _____    ______ ____
ROOT
ATOM      1  C   UNL     1       3.690   3.647  -0.110  0.00  0.00    +0.023 A 
ATOM      2  C   UNL     1       2.499   4.374  -0.083  0.00  0.00    +0.012 A 
ATOM      3  C   UNL     1       2.522   5.755  -0.165  0.00  0.00    +0.014 A 
ATOM      4  C   UNL     1       3.732   6.421  -0.275  0.00  0.00    +0.050 A 
ATOM      5  C   UNL     1       4.940   5.692  -0.302  0.00  0.00    +0.050 A 
ATOM      6  C   UNL     1       4.916   4.311  -0.215  0.00  0.00    +0.025 A 
ATOM      7  C   UNL     1       6.016   6.698  -0.424  0.00  0.00    +0.258 C 
ATOM      8  O   UNL     1       7.206   6.459  -0.479  0.00  0.00    -0.269 OA
ATOM      9  N   UNL     1       5.459   7.921  -0.463  0.00  0.00    -0.202 N 
ATOM     10  C   UNL     1       4.119   7.846  -0.380  0.00  0.00    +0.258 C 
ATOM     11  O   UNL     1       3.353   8.789  -0.392  0.00  0.00    -0.269 OA
ENDROOT
BRANCH   9  12
ATOM     12  C   UNL     1       6.180   9.118  -0.575  0.00  0.00    +0.046 A 
ATOM     13  C   UNL     1       7.566   9.089  -0.659  0.00  0.00    +0.024 A 
ATOM     14  C   UNL     1       8.278  10.267  -0.770  0.00  0.00    +0.004 A 
ATOM     15  C   UNL     1       7.615  11.479  -0.797  0.00  0.00    +0.023 A 
ATOM     16  C   UNL     1       6.228  11.515  -0.713  0.00  0.00    +0.026 A 
ATOM     17  C   UNL     1       5.510  10.332  -0.607  0.00  0.00    +0.046 A 
BRANCH  16  18
ATOM     18  N   UNL     1       5.558  12.740  -0.740  0.00  0.00    -0.358 N 
ATOM     19  H   UNL     1       6.060  13.566  -0.818  0.00  0.00    +0.142 HD
ATOM     20  H   UNL     1       4.590  12.764  -0.680  0.00  0.00    +0.142 HD
ENDBRANCH  16  18
ENDBRANCH   9  12
BRANCH   1  21
ATOM     21  C   UNL     1       3.655   2.171  -0.022  0.00  0.00    +0.193 C 
ATOM     22  O   UNL     1       4.544   1.576   0.556  0.00  0.00    -0.287 OA
BRANCH  21  25
ATOM     23  C   UNL     1       1.378  -0.655  -0.994  0.00  0.00    +0.002 A 
ATOM     24  C   UNL     1       2.420   0.044  -0.420  0.00  0.00    +0.012 A 
ATOM     25  C   UNL     1       2.541   1.419  -0.635  0.00  0.00    +0.024 A 
ATOM     26  C   UNL     1       1.605   2.081  -1.432  0.00  0.00    +0.034 A 
ATOM     27  C   UNL     1       0.562   1.369  -2.003  0.00  0.00    +0.025 A 
ATOM     28  C   UNL     1       0.451   0.001  -1.783  0.00  0.00    +0.023 A 
BRANCH  27  29
ATOM     29  N   UNL     1      -0.378   2.027  -2.801  0.00  0.00    -0.358 N 
ATOM     30  H   UNL     1      -0.301   2.981  -2.955  0.00  0.00    +0.142 HD
ATOM     31  H   UNL     1      -1.108   1.528  -3.201  0.00  0.00    +0.142 HD
ENDBRANCH  27  29
ENDBRANCH  21  25
ENDBRANCH   1  21
TORSDOF 5
