REMARK  Name = ZINC62386862
REMARK  11 active torsions:
REMARK  status: ('A' for Active; 'I' for Inactive)
REMARK    1  A    between atoms: C_1  and  C_2
REMARK    2  A    between atoms: C_2  and  C_3
REMARK    3  A    between atoms: C_3  and  C_4
REMARK    4  A    between atoms: C_3  and  N_5
REMARK    5  A    between atoms: C_6  and  C_8
REMARK    6  A    between atoms: C_8  and  C_9
REMARK    7  A    between atoms: C_8  and  N_10
REMARK    8  A    between atoms: N_13  and  C_14
REMARK    9  A    between atoms: C_18  and  C_21
REMARK   10  A    between atoms: C_19  and  C_20
REMARK   11  A    between atoms: N_23  and  C_24
REMARK                            x       y       z     vdW  Elec       q    Type
REMARK                         _______ _______ _______ _____ _____    ______ ____
ROOT
ATOM      1  N   UNL     1       0.344   1.503  -5.600  0.00  0.00    -0.288 N 
ATOM      2  C   UNL     1       0.093   2.042  -6.809  0.00  0.00    +0.304 C 
ATOM      3  O   UNL     1      -0.940   2.654  -7.000  0.00  0.00    -0.252 OA
ATOM      4  N   UNL     1       0.988   1.902  -7.808  0.00  0.00    -0.269 N 
ATOM      5  H   UNL     1       1.167   1.015  -5.447  0.00  0.00    +0.151 HD
ATOM      6  H   UNL     1       1.842   1.475  -7.637  0.00  0.00    +0.156 HD
ENDROOT
BRANCH   4   7
ATOM      7  C   UNL     1       0.684   2.371  -9.091  0.00  0.00    +0.038 A 
ATOM      8  C   UNL     1      -0.639   2.592  -9.455  0.00  0.00    +0.023 A 
ATOM      9  C   UNL     1      -0.945   3.056 -10.720  0.00  0.00    +0.003 A 
ATOM     10  C   UNL     1       0.062   3.303 -11.631  0.00  0.00    +0.013 A 
ATOM     11  C   UNL     1       1.394   3.085 -11.275  0.00  0.00    +0.041 A 
ATOM     12  C   UNL     1       1.702   2.622  -9.996  0.00  0.00    -0.017 A 
ATOM     13  C   UNL     1       3.138   2.389  -9.602  0.00  0.00    +0.046 C 
BRANCH  11  14
ATOM     14  C   UNL     1       2.475   3.349 -12.249  0.00  0.00    +0.244 C 
ATOM     15  O   UNL     1       3.620   3.036 -11.987  0.00  0.00    -0.270 OA
ATOM     16  N   UNL     1       2.191   3.938 -13.428  0.00  0.00    -0.314 N 
ATOM     17  C   UNL     1       3.262   4.200 -14.393  0.00  0.00    +0.128 C 
ATOM     18  H   UNL     1       1.278   4.188 -13.638  0.00  0.00    +0.149 HD
ENDBRANCH  11  14
ENDBRANCH   4   7
BRANCH   1  19
ATOM     19  C   UNL     1      -0.629   1.656  -4.514  0.00  0.00    +0.157 C 
ATOM     20  C   UNL     1      -1.689   0.557  -4.621  0.00  0.00    +0.038 C 
BRANCH  19  22
ATOM     21  N   UNL     1      -0.622   1.655  -2.041  0.00  0.00    -0.311 N 
ATOM     22  C   UNL     1       0.077   1.545  -3.188  0.00  0.00    +0.233 C 
ATOM     23  O   UNL     1       1.275   1.357  -3.152  0.00  0.00    -0.274 OA
ATOM     24  H   UNL     1      -1.580   1.805  -2.069  0.00  0.00    +0.149 HD
BRANCH  21  25
ATOM     25  C   UNL     1       0.065   1.547  -0.751  0.00  0.00    +0.070 C 
ATOM     26  C   UNL     1       0.191   0.073  -0.362  0.00  0.00    +0.028 C 
BRANCH  25  28
ATOM     27  C   UNL     1      -0.758   3.785  -0.006  0.00  0.00    +0.005 C 
ATOM     28  C   UNL     1      -0.739   2.290   0.318  0.00  0.00    +0.018 C 
ENDBRANCH  25  28
ENDBRANCH  21  25
ENDBRANCH  19  22
ENDBRANCH   1  19
TORSDOF 6
