REMARK  Name = ZINC01147857
REMARK  9 active torsions:
REMARK  status: ('A' for Active; 'I' for Inactive)
REMARK    1  A    between atoms: C_1  and  C_2
REMARK    2  A    between atoms: C_2  and  O_3
REMARK    3  A    between atoms: O_3  and  C_4
REMARK    4  A    between atoms: C_6  and  C_13
REMARK    5  A    between atoms: C_9  and  O_10
REMARK    6  A    between atoms: O_10  and  C_11
REMARK    7  A    between atoms: C_18  and  O_27
REMARK    8  A    between atoms: C_22  and  N_26
REMARK    9  A    between atoms: C_23  and  C_24
REMARK                            x       y       z     vdW  Elec       q    Type
REMARK                         _______ _______ _______ _____ _____    ______ ____
ROOT
ATOM      1  C   UNL     1      -0.218  -4.968   0.485  0.00  0.00    +0.098 C 
ATOM      2  C   UNL     1      -1.273  -5.833  -0.153  0.00  0.00    +0.008 A 
ATOM      3  C   UNL     1      -2.520  -5.298  -0.424  0.00  0.00    +0.012 A 
ATOM      4  C   UNL     1      -3.499  -6.077  -1.008  0.00  0.00    +0.046 A 
ATOM      5  C   UNL     1      -3.234  -7.401  -1.327  0.00  0.00    +0.120 A 
ATOM      6  C   UNL     1      -1.987  -7.940  -1.056  0.00  0.00    +0.092 A 
ATOM      7  C   UNL     1      -1.003  -7.156  -0.468  0.00  0.00    +0.138 A 
ATOM      8  O   UNL     1       0.213  -7.698  -0.210  0.00  0.00    -0.441 OA
ATOM      9  C   UNL     1       1.032  -7.114   0.680  0.00  0.00    +0.199 C 
ATOM     10  C   UNL     1       0.881  -5.822   1.052  0.00  0.00    +0.098 C 
ENDROOT
BRANCH   1  13
ATOM     11  C   UNL     1       0.777  -1.811  -1.336  0.00  0.00    +0.163 A 
ATOM     12  C   UNL     1       0.248  -2.669  -0.385  0.00  0.00    +0.054 A 
ATOM     13  C   UNL     1       0.357  -4.037  -0.551  0.00  0.00    -0.030 A 
ATOM     14  C   UNL     1       0.992  -4.553  -1.665  0.00  0.00    +0.023 A 
ATOM     15  C   UNL     1       1.521  -3.702  -2.619  0.00  0.00    +0.063 A 
ATOM     16  C   UNL     1       1.411  -2.329  -2.461  0.00  0.00    +0.175 A 
ATOM     17 BR   UNL     1       2.388  -4.412  -4.143  0.00  0.00    -0.046 Br
BRANCH  16  18
ATOM     18  O   UNL     1       1.926  -1.491  -3.400  0.00  0.00    -0.490 OA
ATOM     19  C   UNL     1       3.283  -1.079  -3.227  0.00  0.00    +0.277 C 
ENDBRANCH  16  18
BRANCH  11  20
ATOM     20  O   UNL     1       0.671  -0.465  -1.174  0.00  0.00    -0.489 OA
BRANCH  20  22
ATOM     21  C   UNL     1      -0.019   1.526   0.010  0.00  0.00    +0.048 C 
ATOM     22  C   UNL     1       0.002  -0.004   0.002  0.00  0.00    +0.226 C 
ENDBRANCH  20  22
ENDBRANCH  11  20
ENDBRANCH   1  13
BRANCH   9  23
ATOM     23  N   UNL     1       2.053  -7.851   1.228  0.00  0.00    -0.328 N 
ATOM     24  H   UNL     1       2.653  -7.443   1.872  0.00  0.00    +0.145 HD
ATOM     25  H   UNL     1       2.174  -8.778   0.971  0.00  0.00    +0.145 HD
ENDBRANCH   9  23
BRANCH  10  26
ATOM     26  C   UNL     1       1.787  -5.256   2.006  0.00  0.00    +0.101 C 
ATOM     27  N   UNL     1       2.505  -4.807   2.763  0.00  0.00    -0.191 NA
ENDBRANCH  10  26
BRANCH   5  28
ATOM     28  O   UNL     1      -4.197  -8.168  -1.902  0.00  0.00    -0.507 OA
ATOM     29  H   UNL     1      -4.195  -8.142  -2.869  0.00  0.00    +0.292 HD
ENDBRANCH   5  28
TORSDOF 7
