REMARK  Name = ZINC22735589
REMARK  10 active torsions:
REMARK  status: ('A' for Active; 'I' for Inactive)
REMARK    1  A    between atoms: C_1  and  C_2
REMARK    2  A    between atoms: C_2  and  C_3
REMARK    3  A    between atoms: C_6  and  S_8
REMARK    4  A    between atoms: S_8  and  N_11
REMARK    5  A    between atoms: N_11  and  C_12
REMARK    6  A    between atoms: C_12  and  C_13
REMARK    7  A    between atoms: C_13  and  C_15
REMARK    8  A    between atoms: C_13  and  N_26
REMARK    9  A    between atoms: N_24  and  C_25
REMARK   10  A    between atoms: N_29  and  C_32
REMARK                            x       y       z     vdW  Elec       q    Type
REMARK                         _______ _______ _______ _____ _____    ______ ____
ROOT
ATOM      1  C   UNL     1      -1.448  -0.598   8.972  0.00  0.00    +0.102 C 
ENDROOT
BRANCH   1   2
ATOM      2  C   UNL     1      -2.869  -1.093   8.897  0.00  0.00    -0.029 A 
ATOM      3  C   UNL     1      -3.130  -2.451   8.890  0.00  0.00    +0.007 A 
ATOM      4  C   UNL     1      -4.431  -2.902   8.824  0.00  0.00    +0.024 A 
ATOM      5  C   UNL     1      -5.490  -1.996   8.752  0.00  0.00    +0.033 A 
ATOM      6  C   UNL     1      -5.224  -0.638   8.757  0.00  0.00    -0.026 A 
ATOM      7  C   UNL     1      -3.913  -0.192   8.829  0.00  0.00    +0.010 A 
ATOM      8  C   UNL     1      -6.323   0.393   8.693  0.00  0.00    +0.038 C 
ATOM      9  C   UNL     1      -7.625  -0.271   8.239  0.00  0.00    +0.024 C 
ATOM     10  C   UNL     1      -7.814  -1.552   9.062  0.00  0.00    +0.105 C 
ATOM     11  N   UNL     1      -6.782  -2.515   8.672  0.00  0.00    -0.333 N 
ATOM     12  C   UNL     1      -6.899  -3.756   9.449  0.00  0.00    +0.129 C 
ENDBRANCH   1   2
BRANCH   1  13
ATOM     13  N   UNL     1      -0.689  -1.430   9.915  0.00  0.00    -0.298 NA
ATOM     14  C   UNL     1      -1.311  -1.420  11.246  0.00  0.00    +0.066 C 
ATOM     15  C   UNL     1      -0.538  -2.358  12.175  0.00  0.00    -0.064 C 
ATOM     16  N   UNL     1       0.864  -1.925  12.249  0.00  0.00    +0.379 N 
ATOM     17  C   UNL     1       1.486  -1.935  10.918  0.00  0.00    -0.064 C 
ATOM     18  C   UNL     1       0.713  -0.996   9.989  0.00  0.00    +0.066 C 
ATOM     19  C   UNL     1       1.623  -2.757  13.192  0.00  0.00    -0.096 C 
ATOM     20  H   UNL     1       0.880  -0.891  12.624  0.00  0.00    -0.082 HD
ENDBRANCH   1  13
BRANCH   1  21
ATOM     21  C   UNL     1      -0.805  -0.681   7.586  0.00  0.00    +0.129 C 
BRANCH  21  22
ATOM     22  N   UNL     1      -1.510   0.215   6.666  0.00  0.00    -0.188 NA
ATOM     23  H   UNL     1      -2.556   0.494   6.864  0.00  0.00    +0.148 HD
BRANCH  22  24
ATOM     24  S   UNL     1      -0.829   0.610   5.210  0.00  0.00    +0.065 S 
ATOM     25  O   UNL     1       0.509   1.004   5.480  0.00  0.00    -0.153 OA
ATOM     26  O   UNL     1      -1.754   1.459   4.545  0.00  0.00    -0.153 OA
BRANCH  24  30
ATOM     27  C   UNL     1      -0.165  -3.191   3.007  0.00  0.00    -0.009 A 
ATOM     28  C   UNL     1      -1.354  -2.586   2.763  0.00  0.00    +0.013 A 
ATOM     29  C   UNL     1      -1.645  -1.398   3.405  0.00  0.00    +0.036 A 
ATOM     30  C   UNL     1      -0.734  -0.872   4.261  0.00  0.00    +0.143 A 
ATOM     31  S   UNL     1       0.583  -2.074   4.181  0.00  0.00    -0.074 S 
BRANCH  27  33
ATOM     32  C   UNL     1       1.161  -4.177   1.158  0.00  0.00    +0.009 C 
ATOM     33  C   UNL     1       0.380  -4.476   2.439  0.00  0.00    +0.039 C 
ENDBRANCH  27  33
ENDBRANCH  24  30
ENDBRANCH  22  24
ENDBRANCH  21  22
ENDBRANCH   1  21
TORSDOF 7
