REMARK  Name = ZINC16177395
REMARK  4 active torsions:
REMARK  status: ('A' for Active; 'I' for Inactive)
REMARK    1  A    between atoms: C_8  and  C_12
REMARK    2  A    between atoms: N_14  and  N_15
REMARK    3  A    between atoms: C_16  and  C_18
REMARK    4  A    between atoms: C_18  and  C_19
REMARK                            x       y       z     vdW  Elec       q    Type
REMARK                         _______ _______ _______ _____ _____    ______ ____
ROOT
ATOM      1  C   UNL     1       2.632  -4.207  -0.182  0.00  0.00    +0.236 C 
ATOM      2  O   UNL     1       1.695  -4.781   0.332  0.00  0.00    -0.274 OA
ATOM      3  N   UNL     1       3.748  -4.892  -0.501  0.00  0.00    -0.234 N 
ATOM      4  H   UNL     1       4.497  -4.433  -0.911  0.00  0.00    +0.173 HD
ENDROOT
BRANCH   1  12
ATOM      5  C   UNL     1      -0.017   1.377   0.010  0.00  0.00    +0.000 A 
ATOM      6  C   UNL     1       1.172   2.084   0.002  0.00  0.00    +0.004 A 
ATOM      7  C   UNL     1       2.375   1.409  -0.015  0.00  0.00    +0.046 A 
ATOM      8  C   UNL     1       2.398   0.018  -0.024  0.00  0.00    +0.124 A 
ATOM      9  C   UNL     1       1.207  -0.687  -0.012  0.00  0.00    -0.005 A 
ATOM     10  C   UNL     1       0.002  -0.004   0.002  0.00  0.00    +0.007 A 
ATOM     11  C   UNL     1       1.187  -2.194  -0.010  0.00  0.00    +0.055 C 
ATOM     12  C   UNL     1       2.548  -2.729  -0.463  0.00  0.00    +0.118 C 
ATOM     13  C   UNL     1       3.641  -1.990   0.320  0.00  0.00    +0.242 C 
ATOM     14  O   UNL     1       3.602  -0.610  -0.046  0.00  0.00    -0.491 OA
ENDBRANCH   1  12
BRANCH   3  15
ATOM     15  N   UNL     1       3.826  -6.266  -0.240  0.00  0.00    -0.234 N 
ATOM     16  C   UNL     1       4.942  -6.950  -0.559  0.00  0.00    +0.233 C 
ATOM     17  O   UNL     1       5.880  -6.376  -1.072  0.00  0.00    -0.274 OA
ATOM     18  H   UNL     1       3.077  -6.725   0.171  0.00  0.00    +0.173 HD
BRANCH  16  19
ATOM     19  C   UNL     1       5.026  -8.428  -0.278  0.00  0.00    +0.132 C 
BRANCH  19  20
ATOM     20  C   UNL     1       6.368  -8.949  -0.726  0.00  0.00    -0.038 A 
ATOM     21  C   UNL     1       6.532  -9.415  -2.017  0.00  0.00    +0.005 A 
ATOM     22  C   UNL     1       7.762  -9.893  -2.428  0.00  0.00    +0.020 A 
ATOM     23  C   UNL     1       8.829  -9.906  -1.547  0.00  0.00    +0.041 A 
ATOM     24  C   UNL     1       8.664  -9.440  -0.255  0.00  0.00    +0.020 A 
ATOM     25  C   UNL     1       7.435  -8.957   0.153  0.00  0.00    +0.005 A 
ATOM     26 CL   UNL     1      10.374 -10.506  -2.063  0.00  0.00    -0.084 Cl
ENDBRANCH  19  20
ENDBRANCH  16  19
ENDBRANCH   3  15
TORSDOF 4
