REMARK  Name = ZINC67272151
REMARK  6 active torsions:
REMARK  status: ('A' for Active; 'I' for Inactive)
REMARK    1  A    between atoms: C_1  and  C_2
REMARK    2  A    between atoms: N_5  and  C_8
REMARK    3  A    between atoms: C_8  and  C_10
REMARK    4  A    between atoms: C_8  and  C_11
REMARK    5  A    between atoms: C_11  and  N_12
REMARK    6  A    between atoms: C_13  and  C_15
REMARK                            x       y       z     vdW  Elec       q    Type
REMARK                         _______ _______ _______ _____ _____    ______ ____
ROOT
ATOM      1  N   UNL     1       1.397  -3.764   2.570  0.00  0.00    -0.317 N 
ATOM      2  C   UNL     1       2.341  -4.094   3.474  0.00  0.00    +0.218 C 
ATOM      3  O   UNL     1       2.097  -4.914   4.333  0.00  0.00    -0.275 OA
ATOM      4  H   UNL     1       1.591  -3.107   1.883  0.00  0.00    +0.149 HD
ENDROOT
BRANCH   2   5
ATOM      5  C   UNL     1       3.699  -3.443   3.416  0.00  0.00    +0.092 C 
ATOM      6  C   UNL     1       4.575  -3.989   4.546  0.00  0.00    +0.016 C 
ATOM      7  C   UNL     1       5.965  -3.354   4.468  0.00  0.00    +0.020 C 
ATOM      8  C   UNL     1       5.839  -1.837   4.644  0.00  0.00    +0.109 C 
ATOM      9  N   UNL     1       4.885  -1.324   3.651  0.00  0.00    -0.285 N 
ATOM     10  C   UNL     1       3.547  -1.928   3.579  0.00  0.00    +0.122 C 
ATOM     11  C   UNL     1       5.230  -0.318   2.824  0.00  0.00    +0.300 C 
ATOM     12  O   UNL     1       4.466   0.036   1.946  0.00  0.00    -0.253 OA
ATOM     13  N   UNL     1       6.421   0.296   2.968  0.00  0.00    -0.313 N 
ATOM     14  H   UNL     1       7.059  -0.032   3.621  0.00  0.00    +0.146 HD
ATOM     15  H   UNL     1       6.639   1.066   2.421  0.00  0.00    +0.146 HD
ENDBRANCH   2   5
BRANCH   1  16
ATOM     16  C   UNL     1       0.076  -4.396   2.626  0.00  0.00    +0.088 C 
BRANCH  16  17
ATOM     17  C   UNL     1      -0.760  -3.938   1.429  0.00  0.00    -0.054 C 
ATOM     18  C   UNL     1      -2.166  -4.530   1.533  0.00  0.00    -0.012 C 
BRANCH  17  23
ATOM     19  C   UNL     1      -2.247   1.567   1.380  0.00  0.00    +0.007 C 
ATOM     20  C   UNL     1      -2.292   0.038   1.382  0.00  0.00    -0.018 C 
ATOM     21  C   UNL     1      -1.613  -0.492   2.648  0.00  0.00    -0.016 C 
ATOM     22  C   UNL     1      -1.591  -2.022   2.606  0.00  0.00    -0.078 C 
ATOM     23  N   UNL     1      -0.845  -2.471   1.424  0.00  0.00    +0.382 N 
ATOM     24  C   UNL     1      -1.530  -2.027   0.204  0.00  0.00    -0.078 C 
ATOM     25  C   UNL     1      -1.550  -0.498   0.154  0.00  0.00    -0.016 C 
ATOM     26  H   UNL     1       0.086  -2.082   1.447  0.00  0.00    -0.081 HD
ENDBRANCH  17  23
ENDBRANCH  16  17
ENDBRANCH   1  16
TORSDOF 4
