REMARK  Name = ZINC36530323
REMARK  17 active torsions:
REMARK  status: ('A' for Active; 'I' for Inactive)
REMARK    1  A    between atoms: C_1  and  C_2
REMARK    2  A    between atoms: C_2  and  C_3
REMARK    3  A    between atoms: C_2  and  C_4
REMARK    4  A    between atoms: C_2  and  C_5
REMARK    5  A    between atoms: C_5  and  C_6
REMARK    6  A    between atoms: C_6  and  C_7
REMARK    7  A    between atoms: C_6  and  C_8
REMARK    8  A    between atoms: C_6  and  N_9
REMARK    9  A    between atoms: C_10  and  C_12
REMARK   10  A    between atoms: C_12  and  C_14
REMARK   11  A    between atoms: C_12  and  N_23
REMARK   12  A    between atoms: C_17  and  O_22
REMARK   13  A    between atoms: C_18  and  O_20
REMARK   14  A    between atoms: O_20  and  C_21
REMARK   15  A    between atoms: N_23  and  C_24
REMARK   16  A    between atoms: C_25  and  C_27
REMARK   17  A    between atoms: C_29  and  N_34
REMARK                            x       y       z     vdW  Elec       q    Type
REMARK                         _______ _______ _______ _____ _____    ______ ____
ROOT
ATOM      1  C   UNL     1       5.387  -0.526  -4.330  0.00  0.00    +0.192 C 
ENDROOT
BRANCH   1   2
ATOM      2  C   UNL     1       5.367  -1.980  -4.728  0.00  0.00    -0.015 A 
ATOM      3  C   UNL     1       5.816  -2.943  -3.844  0.00  0.00    +0.010 A 
ATOM      4  C   UNL     1       5.799  -4.278  -4.204  0.00  0.00    +0.049 A 
ATOM      5  C   UNL     1       5.332  -4.652  -5.454  0.00  0.00    +0.158 A 
ATOM      6  C   UNL     1       4.880  -3.683  -6.343  0.00  0.00    +0.162 A 
ATOM      7  C   UNL     1       4.895  -2.347  -5.974  0.00  0.00    +0.055 A 
BRANCH   6   8
ATOM      8  O   UNL     1       4.420  -4.045  -7.571  0.00  0.00    -0.491 OA
ATOM      9  C   UNL     1       3.972  -2.997  -8.432  0.00  0.00    +0.277 C 
ENDBRANCH   6   8
BRANCH   5  10
ATOM     10  O   UNL     1       5.316  -5.965  -5.810  0.00  0.00    -0.503 OA
ATOM     11  H   UNL     1       4.495  -6.423  -5.584  0.00  0.00    +0.292 HD
ENDBRANCH   5  10
ENDBRANCH   1   2
BRANCH   1  13
ATOM     12  N   UNL     1       3.312  -0.680  -2.993  0.00  0.00    -0.308 N 
ATOM     13  C   UNL     1       4.617  -0.346  -3.048  0.00  0.00    +0.238 C 
ATOM     14  O   UNL     1       5.170   0.101  -2.065  0.00  0.00    -0.273 OA
ATOM     15  H   UNL     1       2.869  -1.038  -3.778  0.00  0.00    +0.149 HD
BRANCH  12  16
ATOM     16  C   UNL     1       2.563  -0.505  -1.746  0.00  0.00    +0.030 C 
ATOM     17  C   UNL     1       2.714   0.938  -1.259  0.00  0.00    +0.031 C 
ATOM     18  C   UNL     1       3.109  -1.462  -0.684  0.00  0.00    +0.031 C 
BRANCH  16  19
ATOM     19  C   UNL     1       1.084  -0.808  -1.993  0.00  0.00    +0.031 C 
BRANCH  19  21
ATOM     20  C   UNL     1       1.057  -1.044  -4.480  0.00  0.00    +0.010 C 
ATOM     21  C   UNL     1       0.642  -0.156  -3.305  0.00  0.00    -0.036 C 
ATOM     22  C   UNL     1       1.307   1.215  -3.442  0.00  0.00    +0.010 C 
ATOM     23  C   UNL     1      -0.879   0.012  -3.304  0.00  0.00    +0.010 C 
ENDBRANCH  19  21
ENDBRANCH  16  19
ENDBRANCH  12  16
ENDBRANCH   1  13
BRANCH   1  24
ATOM     24  N   UNL     1       6.773  -0.093  -4.133  0.00  0.00    -0.285 N 
ATOM     25  C   UNL     1       7.627  -0.789  -3.167  0.00  0.00    +0.133 C 
ATOM     26  C   UNL     1       7.261   0.945  -4.839  0.00  0.00    +0.251 C 
ATOM     27  O   UNL     1       6.528   1.582  -5.570  0.00  0.00    -0.270 OA
BRANCH  26  28
ATOM     28  C   UNL     1       8.687   1.309  -4.725  0.00  0.00    +0.086 A 
ATOM     29  C   UNL     1       9.676   0.341  -4.914  0.00  0.00    +0.049 A 
ATOM     30  C   UNL     1      11.006   0.687  -4.806  0.00  0.00    +0.127 A 
ATOM     31  C   UNL     1      11.367   1.992  -4.512  0.00  0.00    +0.036 A 
ATOM     32  C   UNL     1      10.399   2.958  -4.323  0.00  0.00    +0.054 A 
ATOM     33  C   UNL     1       9.056   2.629  -4.434  0.00  0.00    +0.191 A 
ATOM     34  O   UNL     1       8.104   3.579  -4.254  0.00  0.00    -0.287 OA
BRANCH  30  35
ATOM     35  N   UNL     1      12.053  -0.340  -5.006  0.00  0.00    +0.056 N 
ATOM     36  O   UNL     1      11.741  -1.479  -5.263  0.00  0.00    -0.126 OA
ATOM     37  O   UNL     1      13.220  -0.039  -4.912  0.00  0.00    -0.126 OA
ENDBRANCH  30  35
ENDBRANCH  26  28
ENDBRANCH   1  24
TORSDOF 10
