REMARK  Name = ZINC12500735
REMARK  7 active torsions:
REMARK  status: ('A' for Active; 'I' for Inactive)
REMARK    1  A    between atoms: C_4  and  C_7
REMARK    2  A    between atoms: C_10  and  C_13
REMARK    3  A    between atoms: N_15  and  C_16
REMARK    4  A    between atoms: C_16  and  N_18
REMARK    5  A    between atoms: N_18  and  N_19
REMARK    6  A    between atoms: C_20  and  C_22
REMARK    7  A    between atoms: C_26  and  N_28
REMARK                            x       y       z     vdW  Elec       q    Type
REMARK                         _______ _______ _______ _____ _____    ______ ____
ROOT
ATOM      1  C   UNL     1      -1.270   7.733   0.055  0.00  0.00    +0.153 C 
ATOM      2  S   UNL     1       0.201   8.609   0.045  0.00  0.00    -0.017 S 
ENDROOT
BRANCH   1   5
ATOM      3  C   UNL     1      -0.076   5.727   0.033  0.00  0.00    +0.250 C 
ATOM      4  O   UNL     1       0.969   6.349   0.026  0.00  0.00    -0.270 OA
ATOM      5  N   UNL     1      -1.252   6.385   0.048  0.00  0.00    -0.263 N 
ATOM      6  H   UNL     1      -2.085   5.889   0.053  0.00  0.00    +0.157 HD
BRANCH   3  10
ATOM      7  C   UNL     1      -0.018   1.478   0.010  0.00  0.00    -0.018 A 
ATOM      8  C   UNL     1      -1.236   2.159   0.020  0.00  0.00    +0.009 A 
ATOM      9  C   UNL     1      -1.256   3.535   0.033  0.00  0.00    +0.013 A 
ATOM     10  C   UNL     1      -0.056   4.251   0.025  0.00  0.00    +0.037 A 
ATOM     11  C   UNL     1       1.164   3.568   0.010  0.00  0.00    +0.013 A 
ATOM     12  C   UNL     1       1.181   2.192   0.003  0.00  0.00    +0.009 A 
BRANCH   7  16
ATOM     13  C   UNL     1       0.040  -2.772  -0.013  0.00  0.00    +0.000 A 
ATOM     14  C   UNL     1      -1.169  -2.100   0.002  0.00  0.00    +0.001 A 
ATOM     15  C   UNL     1      -1.194  -0.720   0.010  0.00  0.00    +0.008 A 
ATOM     16  C   UNL     1       0.002  -0.004   0.002  0.00  0.00    -0.018 A 
ATOM     17  C   UNL     1       1.217  -0.687  -0.019  0.00  0.00    +0.008 A 
ATOM     18  C   UNL     1       1.230  -2.067  -0.021  0.00  0.00    +0.001 A 
ENDBRANCH   7  16
ENDBRANCH   3  10
ENDBRANCH   1   5
BRANCH   1  19
ATOM     19  N   UNL     1      -2.446   8.391   0.070  0.00  0.00    -0.245 N 
ATOM     20  H   UNL     1      -2.459   9.361   0.075  0.00  0.00    +0.172 HD
BRANCH  19  21
ATOM     21  N   UNL     1      -3.650   7.674   0.078  0.00  0.00    -0.231 N 
ATOM     22  C   UNL     1      -4.826   8.332   0.092  0.00  0.00    +0.260 C 
ATOM     23  O   UNL     1      -4.843   9.547   0.099  0.00  0.00    -0.269 OA
ATOM     24  H   UNL     1      -3.637   6.704   0.073  0.00  0.00    +0.173 HD
BRANCH  22  25
ATOM     25  C   UNL     1      -6.096   7.575   0.101  0.00  0.00    +0.040 A 
ATOM     26  C   UNL     1      -6.080   6.179   0.088  0.00  0.00    +0.014 A 
ATOM     27  C   UNL     1      -7.268   5.479   0.101  0.00  0.00    +0.023 A 
ATOM     28  C   UNL     1      -8.475   6.158   0.116  0.00  0.00    +0.071 A 
ATOM     29  C   UNL     1      -8.497   7.543   0.124  0.00  0.00    +0.145 A 
ATOM     30  C   UNL     1      -7.316   8.254   0.116  0.00  0.00    +0.047 A 
ATOM     31 CL   UNL     1      -9.967   5.270   0.126  0.00  0.00    -0.081 Cl
BRANCH  29  32
ATOM     32  N   UNL     1      -9.791   8.261   0.140  0.00  0.00    +0.058 N 
ATOM     33  O   UNL     1      -9.812   9.479   0.148  0.00  0.00    -0.126 OA
ATOM     34  O   UNL     1     -10.836   7.634   0.147  0.00  0.00    -0.126 OA
ENDBRANCH  29  32
ENDBRANCH  22  25
ENDBRANCH  19  21
ENDBRANCH   1  19
TORSDOF 7
