REMARK  Name = ZINC63279912
REMARK  8 active torsions:
REMARK  status: ('A' for Active; 'I' for Inactive)
REMARK    1  A    between atoms: C_1  and  C_2
REMARK    2  A    between atoms: C_2  and  C_4
REMARK    3  A    between atoms: C_2  and  N_14
REMARK    4  A    between atoms: C_4  and  C_5
REMARK    5  A    between atoms: C_15  and  C_17
REMARK    6  A    between atoms: C_21  and  C_24
REMARK    7  A    between atoms: C_28  and  O_30
REMARK    8  A    between atoms: O_30  and  C_31
REMARK                            x       y       z     vdW  Elec       q    Type
REMARK                         _______ _______ _______ _____ _____    ______ ____
ROOT
ATOM      1  N   UNL     1      -1.310  -0.671  -0.023  0.00  0.00    -0.309 N 
ATOM      2  C   UNL     1      -2.068  -0.599  -1.135  0.00  0.00    +0.239 C 
ATOM      3  O   UNL     1      -1.624  -0.075  -2.141  0.00  0.00    -0.271 OA
ATOM      4  H   UNL     1      -1.663  -1.089   0.778  0.00  0.00    +0.149 HD
ENDROOT
BRANCH   2   5
ATOM      5  C   UNL     1      -3.378  -1.132  -1.135  0.00  0.00    +0.086 C 
ATOM      6  C   UNL     1      -4.092  -1.169  -2.279  0.00  0.00    +0.020 C 
ATOM      7  C   UNL     1      -5.559  -1.580  -2.309  0.00  0.00    +0.121 C 
ATOM      8  S   UNL     1      -6.119  -0.624  -3.785  0.00  0.00    -0.128 S 
ATOM      9  C   UNL     1      -4.459  -0.414  -4.557  0.00  0.00    +0.159 C 
ATOM     10  N   UNL     1      -3.557  -0.840  -3.472  0.00  0.00    -0.331 N 
ATOM     11  H   UNL     1      -2.599  -0.884  -3.616  0.00  0.00    +0.147 HD
BRANCH   9  12
ATOM     12  C   UNL     1      -4.216   1.027  -4.923  0.00  0.00    -0.014 A 
ATOM     13  C   UNL     1      -3.649   1.888  -4.002  0.00  0.00    +0.006 A 
ATOM     14  C   UNL     1      -3.424   3.211  -4.335  0.00  0.00    +0.004 A 
ATOM     15  C   UNL     1      -3.767   3.676  -5.590  0.00  0.00    +0.045 A 
ATOM     16  C   UNL     1      -4.336   2.815  -6.516  0.00  0.00    +0.120 A 
ATOM     17  C   UNL     1      -4.554   1.486  -6.181  0.00  0.00    +0.052 A 
BRANCH  16  18
ATOM     18  O   UNL     1      -4.673   3.270  -7.751  0.00  0.00    -0.495 OA
ATOM     19  C   UNL     1      -4.414   4.648  -8.028  0.00  0.00    +0.277 C 
ENDBRANCH  16  18
ENDBRANCH   9  12
ENDBRANCH   2   5
BRANCH   1  21
ATOM     20  C   UNL     1      -0.011   1.377   0.289  0.00  0.00    +0.028 C 
ATOM     21  C   UNL     1       0.047  -0.119  -0.024  0.00  0.00    +0.074 C 
BRANCH  21  22
ATOM     22  C   UNL     1       0.888  -0.831   1.038  0.00  0.00    +0.055 C 
BRANCH  22  23
ATOM     23  C   UNL     1       1.048  -2.282   0.663  0.00  0.00    -0.040 C 
ATOM     24  C   UNL     1       2.083  -2.840  -0.005  0.00  0.00    -0.001 A 
ATOM     25  C   UNL     1       3.322  -2.284  -0.562  0.00  0.00    +0.010 A 
ATOM     26  C   UNL     1       4.187  -3.112  -1.192  0.00  0.00    +0.001 A 
ATOM     27  C   UNL     1       3.929  -4.483  -1.327  0.00  0.00    +0.002 A 
ATOM     28  C   UNL     1       2.813  -5.066  -0.842  0.00  0.00    +0.026 A 
ATOM     29  C   UNL     1       1.835  -4.291  -0.160  0.00  0.00    +0.043 A 
ATOM     30  N   UNL     1       0.691  -4.617   0.391  0.00  0.00    -0.380 N 
ATOM     31  C   UNL     1       0.086  -3.409   0.963  0.00  0.00    +0.144 C 
ATOM     32  H   UNL     1       0.310  -5.509   0.418  0.00  0.00    +0.160 HD
ENDBRANCH  22  23
ENDBRANCH  21  22
ENDBRANCH   1  21
TORSDOF 6
