REMARK  Name = ZINC14986866
REMARK  6 active torsions:
REMARK  status: ('A' for Active; 'I' for Inactive)
REMARK    1  A    between atoms: C_4  and  C_7
REMARK    2  A    between atoms: C_7  and  C_8
REMARK    3  A    between atoms: C_8  and  C_9
REMARK    4  A    between atoms: C_11  and  C_14
REMARK    5  A    between atoms: N_16  and  C_17
REMARK    6  A    between atoms: C_26  and  O_29
REMARK                            x       y       z     vdW  Elec       q    Type
REMARK                         _______ _______ _______ _____ _____    ______ ____
ROOT
ATOM      1  C   UNL     1       9.019  -2.190   2.258  0.00  0.00    +0.282 C 
ATOM      2  O   UNL     1       9.399  -1.270   2.956  0.00  0.00    -0.267 OA
ATOM      3  N   UNL     1       9.870  -3.181   1.926  0.00  0.00    -0.305 N 
ATOM      4  H   UNL     1       9.567  -3.914   1.369  0.00  0.00    +0.149 HD
ENDROOT
BRANCH   3   5
ATOM      5  C   UNL     1      11.254  -3.149   2.408  0.00  0.00    +0.080 C 
ATOM      6  C   UNL     1      11.320  -3.760   3.809  0.00  0.00    +0.013 C 
ATOM      7  C   UNL     1      12.764  -3.727   4.312  0.00  0.00    +0.009 C 
ATOM      8  C   UNL     1      13.653  -4.533   3.363  0.00  0.00    -0.008 C 
ATOM      9  C   UNL     1      13.587  -3.922   1.961  0.00  0.00    +0.009 C 
ATOM     10  C   UNL     1      12.143  -3.955   1.458  0.00  0.00    +0.013 C 
ATOM     11  C   UNL     1      11.653  -5.403   1.407  0.00  0.00    +0.040 C 
ATOM     12  C   UNL     1      11.719  -6.014   2.808  0.00  0.00    +0.067 C 
ATOM     13  C   UNL     1      10.830  -5.209   3.758  0.00  0.00    +0.040 C 
ATOM     14  C   UNL     1      13.164  -5.981   3.311  0.00  0.00    +0.038 C 
BRANCH  12  15
ATOM     15  O   UNL     1      11.262  -7.367   2.760  0.00  0.00    -0.389 OA
ATOM     16  H   UNL     1      11.277  -7.818   3.616  0.00  0.00    +0.210 HD
ENDBRANCH  12  15
ENDBRANCH   3   5
BRANCH   1  19
ATOM     17  C   UNL     1       5.487  -1.699   1.381  0.00  0.00    +0.085 A 
ATOM     18  C   UNL     1       6.665  -1.293   2.029  0.00  0.00    +0.081 A 
ATOM     19  C   UNL     1       7.626  -2.221   1.773  0.00  0.00    +0.222 A 
ATOM     20  O   UNL     1       7.076  -3.175   0.995  0.00  0.00    -0.350 OA
ATOM     21  N   UNL     1       5.724  -2.823   0.768  0.00  0.00    -0.082 NA
BRANCH  17  22
ATOM     22  C   UNL     1       4.171  -0.963   1.399  0.00  0.00    +0.063 C 
BRANCH  22  23
ATOM     23  C   UNL     1       3.711  -0.707  -0.038  0.00  0.00    +0.041 C 
BRANCH  23  27
ATOM     24  C   UNL     1      -0.017   1.378   0.010  0.00  0.00    +0.000 A 
ATOM     25  C   UNL     1       1.171   2.086   0.002  0.00  0.00    +0.000 A 
ATOM     26  C   UNL     1       2.377   1.411  -0.013  0.00  0.00    +0.003 A 
ATOM     27  C   UNL     1       2.396   0.029  -0.020  0.00  0.00    -0.047 A 
ATOM     28  C   UNL     1       1.208  -0.679  -0.012  0.00  0.00    +0.003 A 
ATOM     29  C   UNL     1       0.002  -0.004   0.002  0.00  0.00    +0.000 A 
ENDBRANCH  23  27
ENDBRANCH  22  23
ENDBRANCH  17  22
ENDBRANCH   1  19
TORSDOF 6
