REMARK  Name = ZINC36342269
REMARK  4 active torsions:
REMARK  status: ('A' for Active; 'I' for Inactive)
REMARK    1  A    between atoms: C_5  and  C_7
REMARK    2  A    between atoms: C_10  and  C_13
REMARK    3  A    between atoms: C_20  and  C_22
REMARK    4  A    between atoms: C_22  and  N_23
REMARK                            x       y       z     vdW  Elec       q    Type
REMARK                         _______ _______ _______ _____ _____    ______ ____
ROOT
ATOM      1  C   UNL     1       1.251  -2.157  -0.023  0.00  0.00    +0.072 C 
ATOM      2  N   UNL     1       2.317  -2.881  -0.032  0.00  0.00    -0.181 NA
ATOM      3  N   UNL     1       2.074  -4.253  -0.039  0.00  0.00    -0.187 N 
ATOM      4  C   UNL     1       0.619  -4.478  -0.034  0.00  0.00    +0.137 C 
ATOM      5  C   UNL     1       0.032  -3.053  -0.016  0.00  0.00    +0.087 C 
ATOM      6  C   UNL     1       3.016  -5.216  -0.050  0.00  0.00    +0.219 C 
ATOM      7  O   UNL     1       2.690  -6.384  -0.056  0.00  0.00    -0.276 OA
ENDROOT
BRANCH   1  12
ATOM      8  C   UNL     1      -0.017   1.375   0.010  0.00  0.00    +0.001 A 
ATOM      9  C   UNL     1       1.170   2.087   0.002  0.00  0.00    +0.003 A 
ATOM     10  C   UNL     1       2.383   1.424  -0.013  0.00  0.00    +0.039 A 
ATOM     11  C   UNL     1       2.419   0.043  -0.021  0.00  0.00    +0.132 A 
ATOM     12  C   UNL     1       1.223  -0.683  -0.014  0.00  0.00    +0.033 A 
ATOM     13  C   UNL     1       0.002  -0.004   0.002  0.00  0.00    +0.012 A 
ATOM     14  F   UNL     1       3.604  -0.605  -0.037  0.00  0.00    -0.205 F 
ENDBRANCH   1  12
BRANCH   4  15
ATOM     15  C   UNL     1       0.205  -5.236   1.201  0.00  0.00    -0.025 A 
ATOM     16  C   UNL     1       0.804  -4.958   2.416  0.00  0.00    +0.007 A 
ATOM     17  C   UNL     1       0.424  -5.653   3.549  0.00  0.00    +0.020 A 
ATOM     18  C   UNL     1      -0.556  -6.626   3.467  0.00  0.00    +0.041 A 
ATOM     19  C   UNL     1      -1.155  -6.904   2.251  0.00  0.00    +0.020 A 
ATOM     20  C   UNL     1      -0.778  -6.204   1.120  0.00  0.00    +0.007 A 
ATOM     21 CL   UNL     1      -1.033  -7.499   4.889  0.00  0.00    -0.084 Cl
ENDBRANCH   4  15
BRANCH   6  22
ATOM     22  C   UNL     1       4.476  -4.841  -0.054  0.00  0.00    +0.021 C 
BRANCH  22  23
ATOM     23  N   UNL     1       5.295  -6.061  -0.066  0.00  0.00    +0.386 N 
ATOM     24  C   UNL     1       5.067  -6.789  -1.320  0.00  0.00    -0.073 C 
ATOM     25  C   UNL     1       5.851  -8.103  -1.301  0.00  0.00    +0.046 C 
ATOM     26  C   UNL     1       7.342  -7.797  -1.143  0.00  0.00    +0.167 C 
ATOM     27  C   UNL     1       7.563  -6.968   0.125  0.00  0.00    +0.046 C 
ATOM     28  C   UNL     1       6.712  -5.698   0.050  0.00  0.00    -0.073 C 
ATOM     29  O   UNL     1       8.077  -9.028  -1.045  0.00  0.00    -0.346 OA
ATOM     30  C   UNL     1       8.536  -9.292  -2.392  0.00  0.00    +0.191 C 
ATOM     31  C   UNL     1       8.836  -7.863  -2.909  0.00  0.00    +0.191 C 
ATOM     32  O   UNL     1       7.809  -7.067  -2.284  0.00  0.00    -0.346 OA
ATOM     33  H   UNL     1       5.034  -6.647   0.713  0.00  0.00    -0.081 HD
ENDBRANCH  22  23
ENDBRANCH   6  22
TORSDOF 4
