REMARK  Name = ZINC14244227
REMARK  12 active torsions:
REMARK  status: ('A' for Active; 'I' for Inactive)
REMARK    1  A    between atoms: C_1  and  C_2
REMARK    2  A    between atoms: C_2  and  C_3
REMARK    3  A    between atoms: C_3  and  C_4
REMARK    4  A    between atoms: C_4  and  N_5
REMARK    5  A    between atoms: C_11  and  C_16
REMARK    6  A    between atoms: C_16  and  O_18
REMARK    7  A    between atoms: O_18  and  C_19
REMARK    8  A    between atoms: C_19  and  C_21
REMARK    9  A    between atoms: C_19  and  C_22
REMARK   10  A    between atoms: N_24  and  C_25
REMARK   11  A    between atoms: N_24  and  C_27
REMARK   12  A    between atoms: C_25  and  C_26
REMARK                            x       y       z     vdW  Elec       q    Type
REMARK                         _______ _______ _______ _____ _____    ______ ____
ROOT
ATOM      1  C   UNL     1      -0.312   1.740   0.769  0.00  0.00    +0.340 C 
ATOM      2  O   UNL     1       0.742   2.342   0.754  0.00  0.00    -0.245 OA
ENDROOT
BRANCH   1   9
ATOM      3  N   UNL     1       1.318  -4.022   1.587  0.00  0.00    -0.234 N 
ATOM      4  C   UNL     1      -0.020  -3.912   1.498  0.00  0.00    +0.254 C 
ATOM      5  O   UNL     1      -0.813  -4.829   1.568  0.00  0.00    -0.270 OA
ATOM      6  C   UNL     1      -0.363  -2.485   1.298  0.00  0.00    +0.049 A 
ATOM      7  C   UNL     1      -1.553  -1.792   1.143  0.00  0.00    +0.014 A 
ATOM      8  C   UNL     1      -1.534  -0.418   0.977  0.00  0.00    +0.016 A 
ATOM      9  C   UNL     1      -0.322   0.272   0.953  0.00  0.00    +0.060 A 
ATOM     10  C   UNL     1       0.883  -0.420   1.109  0.00  0.00    +0.028 A 
ATOM     11  C   UNL     1       0.866  -1.793   1.281  0.00  0.00    +0.050 A 
ATOM     12  C   UNL     1       1.912  -2.821   1.470  0.00  0.00    +0.254 C 
ATOM     13  O   UNL     1       3.108  -2.614   1.513  0.00  0.00    -0.270 OA
BRANCH   3  14
ATOM     14  C   UNL     1       2.034  -5.284   1.787  0.00  0.00    +0.117 C 
BRANCH  14  15
ATOM     15  C   UNL     1       2.203  -5.544   3.285  0.00  0.00    +0.019 C 
BRANCH  15  17
ATOM     16  C   UNL     1       3.119  -7.122   4.992  0.00  0.00    +0.004 C 
ATOM     17  C   UNL     1       2.950  -6.862   3.493  0.00  0.00    -0.002 C 
ENDBRANCH  15  17
ENDBRANCH  14  15
ENDBRANCH   3  14
ENDBRANCH   1   9
BRANCH   1  18
ATOM     18  O   UNL     1      -1.472   2.407   0.614  0.00  0.00    -0.449 OA
BRANCH  18  19
ATOM     19  C   UNL     1      -1.386   3.846   0.438  0.00  0.00    +0.259 C 
ATOM     20  C   UNL     1      -1.444   4.531   1.805  0.00  0.00    +0.062 C 
BRANCH  19  21
ATOM     21  C   UNL     1      -2.538   4.318  -0.410  0.00  0.00    +0.256 C 
ATOM     22  O   UNL     1      -3.432   3.551  -0.701  0.00  0.00    -0.272 OA
ATOM     23  N   UNL     1      -2.576   5.593  -0.846  0.00  0.00    -0.294 N 
BRANCH  23  24
ATOM     24  C   UNL     1      -3.744   6.080  -1.583  0.00  0.00    +0.099 C 
ATOM     25  C   UNL     1      -3.934   5.236  -2.855  0.00  0.00    +0.046 C 
ATOM     26  C   UNL     1      -5.335   5.560  -3.447  0.00  0.00    +0.168 C 
ATOM     27  S   UNL     1      -6.340   5.646  -1.905  0.00  0.00    -0.029 S 
ATOM     28  O   UNL     1      -6.900   4.366  -1.646  0.00  0.00    -0.174 OA
ATOM     29  O   UNL     1      -7.191   6.782  -1.971  0.00  0.00    -0.174 OA
ATOM     30  C   UNL     1      -5.001   5.971  -0.687  0.00  0.00    +0.188 C 
ENDBRANCH  23  24
BRANCH  23  31
ATOM     31  C   UNL     1      -1.450   6.491  -0.581  0.00  0.00    +0.105 C 
ATOM     32  C   UNL     1      -0.530   6.529  -1.804  0.00  0.00    +0.024 C 
ENDBRANCH  23  31
ENDBRANCH  19  21
ENDBRANCH  18  19
ENDBRANCH   1  18
TORSDOF 9
