REMARK  Name = ZINC16194876
REMARK  11 active torsions:
REMARK  status: ('A' for Active; 'I' for Inactive)
REMARK    1  A    between atoms: C_1  and  O_2
REMARK    2  A    between atoms: O_2  and  C_3
REMARK    3  A    between atoms: C_5  and  C_16
REMARK    4  A    between atoms: C_8  and  O_9
REMARK    5  A    between atoms: O_9  and  C_10
REMARK    6  A    between atoms: C_10  and  C_11
REMARK    7  A    between atoms: C_11  and  O_13
REMARK    8  A    between atoms: O_13  and  C_14
REMARK    9  A    between atoms: C_18  and  C_30
REMARK   10  A    between atoms: C_19  and  C_24
REMARK   11  A    between atoms: C_30  and  C_32
REMARK                            x       y       z     vdW  Elec       q    Type
REMARK                         _______ _______ _______ _____ _____    ______ ____
ROOT
ATOM      1  C   UNL     1       2.446  -0.784   3.389  0.00  0.00    +0.140 C 
ATOM      2  C   UNL     1       2.114  -2.184   3.863  0.00  0.00    +0.046 C 
ATOM      3  C   UNL     1       2.769  -3.227   3.268  0.00  0.00    +0.049 C 
ATOM      4  N   UNL     1       3.692  -3.002   2.277  0.00  0.00    -0.296 N 
ATOM      5  C   UNL     1       4.013  -1.782   1.829  0.00  0.00    +0.135 C 
ATOM      6  S   UNL     1       5.182  -1.642   0.586  0.00  0.00    -0.019 S 
ATOM      7  N   UNL     1       3.450  -0.661   2.320  0.00  0.00    -0.315 N 
ATOM      8  H   UNL     1       4.134  -3.768   1.879  0.00  0.00    +0.154 HD
ATOM      9  H   UNL     1       3.703   0.210   1.976  0.00  0.00    +0.149 HD
ENDROOT
BRANCH   1  12
ATOM     10  C   UNL     1      -0.344   0.369   1.116  0.00  0.00    +0.162 A 
ATOM     11  C   UNL     1       0.825  -0.224   1.566  0.00  0.00    +0.056 A 
ATOM     12  C   UNL     1       1.170  -0.144   2.902  0.00  0.00    -0.001 A 
ATOM     13  C   UNL     1       0.345   0.516   3.795  0.00  0.00    +0.050 A 
ATOM     14  C   UNL     1      -0.826   1.105   3.353  0.00  0.00    +0.069 A 
ATOM     15  C   UNL     1      -1.174   1.033   2.014  0.00  0.00    +0.164 A 
ATOM     16 CL   UNL     1       0.781   0.607   5.473  0.00  0.00    -0.083 Cl
BRANCH  10  18
ATOM     17  C   UNL     1       0.217  -0.402  -1.063  0.00  0.00    +0.277 C 
ATOM     18  O   UNL     1      -0.682   0.296  -0.199  0.00  0.00    -0.491 OA
ENDBRANCH  10  18
BRANCH  15  19
ATOM     19  O   UNL     1      -2.325   1.611   1.577  0.00  0.00    -0.477 OA
BRANCH  19  20
ATOM     20  C   UNL     1      -3.129   2.276   2.554  0.00  0.00    +0.349 C 
BRANCH  20  21
ATOM     21  C   UNL     1      -4.354   2.851   1.891  0.00  0.00    +0.345 C 
ATOM     22  O   UNL     1      -4.522   2.706   0.703  0.00  0.00    -0.247 OA
BRANCH  21  23
ATOM     23  O   UNL     1      -5.258   3.523   2.620  0.00  0.00    -0.466 OA
ATOM     24  C   UNL     1      -6.413   4.049   1.914  0.00  0.00    +0.280 C 
ENDBRANCH  21  23
ENDBRANCH  20  21
ENDBRANCH  19  20
ENDBRANCH  15  19
ENDBRANCH   1  12
BRANCH   3  25
ATOM     25  C   UNL     1       2.480  -4.610   3.697  0.00  0.00    -0.003 A 
ATOM     26  C   UNL     1       2.493  -4.942   5.054  0.00  0.00    +0.010 A 
ATOM     27  C   UNL     1       2.216  -6.234   5.447  0.00  0.00    +0.001 A 
ATOM     28  C   UNL     1       1.938  -7.205   4.500  0.00  0.00    +0.000 A 
ATOM     29  C   UNL     1       1.929  -6.884   3.154  0.00  0.00    +0.001 A 
ATOM     30  C   UNL     1       2.198  -5.595   2.746  0.00  0.00    +0.010 A 
ENDBRANCH   3  25
BRANCH   2  31
ATOM     31  C   UNL     1       1.166  -2.404   4.881  0.00  0.00    +0.193 C 
ATOM     32  O   UNL     1       1.462  -2.196   6.045  0.00  0.00    -0.287 OA
BRANCH  31  33
ATOM     33  C   UNL     1      -0.190  -2.888   4.538  0.00  0.00    +0.022 A 
ATOM     34  C   UNL     1      -0.569  -3.022   3.201  0.00  0.00    +0.012 A 
ATOM     35  C   UNL     1      -1.832  -3.480   2.888  0.00  0.00    +0.001 A 
ATOM     36  C   UNL     1      -2.727  -3.794   3.895  0.00  0.00    +0.000 A 
ATOM     37  C   UNL     1      -2.360  -3.657   5.222  0.00  0.00    +0.001 A 
ATOM     38  C   UNL     1      -1.097  -3.207   5.549  0.00  0.00    +0.012 A 
ENDBRANCH  31  33
ENDBRANCH   2  31
TORSDOF 9
