REMARK  Name = ZINC43147161
REMARK  12 active torsions:
REMARK  status: ('A' for Active; 'I' for Inactive)
REMARK    1  A    between atoms: C_1  and  C_2
REMARK    2  A    between atoms: C_6  and  O_9
REMARK    3  A    between atoms: C_7  and  C_8
REMARK    4  A    between atoms: O_9  and  C_10
REMARK    5  A    between atoms: C_10  and  C_12
REMARK    6  A    between atoms: C_10  and  C_13
REMARK    7  A    between atoms: N_15  and  N_16
REMARK    8  A    between atoms: N_19  and  C_20
REMARK    9  A    between atoms: C_20  and  C_21
REMARK   10  A    between atoms: C_21  and  N_26
REMARK   11  A    between atoms: N_26  and  C_27
REMARK   12  A    between atoms: N_26  and  C_28
REMARK                            x       y       z     vdW  Elec       q    Type
REMARK                         _______ _______ _______ _____ _____    ______ ____
ROOT
ATOM      1  N   UNL     1      -1.826  -6.610   4.830  0.00  0.00    -0.218 N 
ATOM      2  C   UNL     1      -2.020  -7.941   4.920  0.00  0.00    +0.316 C 
ATOM      3  O   UNL     1      -2.635  -8.404   5.862  0.00  0.00    -0.251 OA
ATOM      4  N   UNL     1      -1.534  -8.759   3.965  0.00  0.00    -0.300 N 
ATOM      5  H   UNL     1      -2.177  -6.022   5.517  0.00  0.00    +0.174 HD
ATOM      6  H   UNL     1      -1.044  -8.390   3.214  0.00  0.00    +0.150 HD
ENDROOT
BRANCH   1   9
ATOM      7  C   UNL     1      -0.925  -4.747   3.655  0.00  0.00    +0.270 C 
ATOM      8  O   UNL     1      -1.363  -4.011   4.514  0.00  0.00    -0.270 OA
ATOM      9  N   UNL     1      -1.119  -6.077   3.745  0.00  0.00    -0.230 N 
ATOM     10  H   UNL     1      -0.768  -6.666   3.058  0.00  0.00    +0.173 HD
BRANCH   7  11
ATOM     11  C   UNL     1      -0.164  -4.173   2.488  0.00  0.00    +0.257 C 
ATOM     12  C   UNL     1       1.251  -4.755   2.466  0.00  0.00    +0.062 C 
BRANCH  11  13
ATOM     13  O   UNL     1      -0.092  -2.752   2.618  0.00  0.00    -0.480 OA
BRANCH  13  19
ATOM     14  C   UNL     1       0.171   1.584   0.392  0.00  0.00    +0.044 C 
ATOM     15  C   UNL     1       0.205   0.078   0.350  0.00  0.00    -0.044 A 
ATOM     16  C   UNL     1       0.402  -0.576  -0.852  0.00  0.00    +0.004 A 
ATOM     17  C   UNL     1       0.434  -1.957  -0.893  0.00  0.00    +0.004 A 
ATOM     18  C   UNL     1       0.268  -2.688   0.267  0.00  0.00    +0.046 A 
ATOM     19  C   UNL     1       0.071  -2.035   1.475  0.00  0.00    +0.125 A 
ATOM     20  C   UNL     1       0.045  -0.648   1.514  0.00  0.00    -0.006 A 
ATOM     21  C   UNL     1      -0.162   0.065   2.826  0.00  0.00    +0.048 C 
ENDBRANCH  13  19
ENDBRANCH  11  13
ENDBRANCH   7  11
ENDBRANCH   1   9
BRANCH   4  22
ATOM     22  C   UNL     1      -1.745 -10.205   4.063  0.00  0.00    +0.094 C 
BRANCH  22  23
ATOM     23  C   UNL     1      -0.987 -10.908   2.935  0.00  0.00    -0.050 C 
ATOM     24  C   UNL     1      -1.614 -10.547   1.572  0.00  0.00    -0.010 C 
ATOM     25  C   UNL     1      -1.518 -11.857   0.750  0.00  0.00    -0.001 C 
ATOM     26  C   UNL     1      -1.813 -12.947   1.810  0.00  0.00    -0.001 C 
ATOM     27  C   UNL     1      -1.113 -12.434   3.086  0.00  0.00    -0.010 C 
BRANCH  23  28
ATOM     28  N   UNL     1       0.428 -10.516   2.958  0.00  0.00    +0.381 N 
ATOM     29  C   UNL     1       1.037 -10.954   4.222  0.00  0.00    -0.096 C 
ATOM     30  C   UNL     1       1.130 -11.146   1.832  0.00  0.00    -0.096 C 
ATOM     31  H   UNL     1       0.500  -9.512   2.880  0.00  0.00    -0.082 HD
ENDBRANCH  23  28
ENDBRANCH  22  23
ENDBRANCH   4  22
TORSDOF 7
