REMARK  Name = ZINC10058826
REMARK  12 active torsions:
REMARK  status: ('A' for Active; 'I' for Inactive)
REMARK    1  A    between atoms: C_1  and  C_2
REMARK    2  A    between atoms: C_4  and  C_27
REMARK    3  A    between atoms: C_6  and  C_26
REMARK    4  A    between atoms: C_7  and  C_8
REMARK    5  A    between atoms: C_8  and  C_10
REMARK    6  A    between atoms: C_10  and  C_11
REMARK    7  A    between atoms: C_11  and  O_25
REMARK    8  A    between atoms: N_18  and  C_21
REMARK    9  A    between atoms: C_21  and  C_22
REMARK   10  A    between atoms: C_27  and  C_28
REMARK   11  A    between atoms: C_27  and  C_29
REMARK   12  A    between atoms: C_27  and  C_30
REMARK                            x       y       z     vdW  Elec       q    Type
REMARK                         _______ _______ _______ _____ _____    ______ ____
ROOT
ATOM      1  C   UNL     1      -4.857   3.789   2.696  0.00  0.00    +0.175 C 
ATOM      2  C   UNL     1      -4.316   4.460   3.938  0.00  0.00    +0.016 A 
ATOM      3  C   UNL     1      -4.293   5.770   4.359  0.00  0.00    +0.024 A 
ATOM      4  C   UNL     1      -3.713   6.094   5.575  0.00  0.00    +0.018 A 
ATOM      5  C   UNL     1      -3.159   5.098   6.360  0.00  0.00    +0.017 A 
ATOM      6  C   UNL     1      -3.182   3.785   5.939  0.00  0.00    +0.025 A 
ATOM      7  C   UNL     1      -3.768   3.451   4.720  0.00  0.00    +0.043 A 
ATOM      8  N   UNL     1      -3.908   2.217   4.082  0.00  0.00    -0.265 N 
ATOM      9  C   UNL     1      -4.535   2.324   2.898  0.00  0.00    +0.257 C 
ATOM     10  O   UNL     1      -4.793   1.417   2.136  0.00  0.00    -0.272 OA
ATOM     11 BR   UNL     1      -3.679   7.892   6.160  0.00  0.00    -0.050 Br
ENDROOT
BRANCH   1  12
ATOM     12  O   UNL     1      -4.200   4.290   1.530  0.00  0.00    -0.374 OA
ATOM     13  H   UNL     1      -4.467   3.852   0.710  0.00  0.00    +0.211 HD
ENDBRANCH   1  12
BRANCH   1  14
ATOM     14  C   UNL     1      -6.370   3.996   2.591  0.00  0.00    +0.129 C 
BRANCH  14  15
ATOM     15  C   UNL     1      -6.917   3.143   1.476  0.00  0.00    +0.167 C 
ATOM     16  O   UNL     1      -6.160   2.535   0.750  0.00  0.00    -0.292 OA
BRANCH  15  23
ATOM     17  C   UNL     1      -8.452   1.206   2.982  0.00  0.00    +0.044 C 
ATOM     18  C   UNL     1      -9.125   2.118   1.988  0.00  0.00    -0.039 A 
ATOM     19  C   UNL     1     -10.488   2.040   1.792  0.00  0.00    +0.008 A 
ATOM     20  C   UNL     1     -11.107   2.872   0.876  0.00  0.00    -0.041 A 
ATOM     21  C   UNL     1     -10.367   3.792   0.154  0.00  0.00    +0.008 A 
ATOM     22  C   UNL     1      -9.004   3.886   0.344  0.00  0.00    -0.039 A 
ATOM     23  C   UNL     1      -8.371   3.049   1.268  0.00  0.00    +0.023 A 
ATOM     24  C   UNL     1      -8.200   4.889  -0.442  0.00  0.00    +0.044 C 
BRANCH  20  25
ATOM     25  C   UNL     1     -12.596   2.776   0.663  0.00  0.00    -0.013 C 
ATOM     26  C   UNL     1     -12.881   2.419  -0.797  0.00  0.00    +0.015 C 
ATOM     27  C   UNL     1     -13.173   1.691   1.575  0.00  0.00    +0.015 C 
ATOM     28  C   UNL     1     -13.246   4.120   0.996  0.00  0.00    +0.015 C 
ENDBRANCH  20  25
ENDBRANCH  15  23
ENDBRANCH  14  15
ENDBRANCH   1  14
BRANCH   8  29
ATOM     29  C   UNL     1      -3.430   0.950   4.642  0.00  0.00    +0.140 C 
BRANCH  29  30
ATOM     30  C   UNL     1      -2.015   0.702   4.188  0.00  0.00    -0.015 C 
ATOM     31  C   UNL     1      -1.072   0.486   5.071  0.00  0.00    +0.005 C 
ENDBRANCH  29  30
ENDBRANCH   8  29
TORSDOF 7
