REMARK  Name = ZINC31055938
REMARK  8 active torsions:
REMARK  status: ('A' for Active; 'I' for Inactive)
REMARK    1  A    between atoms: C_1  and  C_2
REMARK    2  A    between atoms: C_9  and  C_37
REMARK    3  A    between atoms: C_9  and  C_38
REMARK    4  A    between atoms: C_11  and  N_13
REMARK    5  A    between atoms: C_14  and  C_16
REMARK    6  A    between atoms: N_21  and  C_23
REMARK    7  A    between atoms: C_23  and  C_24
REMARK    8  A    between atoms: C_26  and  C_29
REMARK                            x       y       z     vdW  Elec       q    Type
REMARK                         _______ _______ _______ _____ _____    ______ ____
ROOT
ATOM      1  C   UNL     1       5.698   8.992   2.868  0.00  0.00    +0.058 C 
ATOM      2  C   UNL     1       6.282   7.888   3.753  0.00  0.00    +0.009 C 
ATOM      3  C   UNL     1       5.398   6.642   3.651  0.00  0.00    -0.018 C 
ATOM      4  C   UNL     1       5.309   6.204   2.188  0.00  0.00    -0.078 C 
ATOM      5  N   UNL     1       4.744   7.294   1.383  0.00  0.00    +0.386 N 
ATOM      6  C   UNL     1       5.601   8.486   1.427  0.00  0.00    -0.065 C 
ATOM      7  H   UNL     1       3.771   7.564   1.820  0.00  0.00    -0.081 HD
ENDROOT
BRANCH   1   9
ATOM      8  N   UNL     1       6.828  10.822   4.091  0.00  0.00    -0.308 N 
ATOM      9  C   UNL     1       6.594  10.203   2.917  0.00  0.00    +0.215 C 
ATOM     10  O   UNL     1       7.104  10.621   1.899  0.00  0.00    -0.276 OA
ATOM     11  H   UNL     1       6.365  10.443   5.014  0.00  0.00    +0.149 HD
BRANCH   8  22
ATOM     12  C   UNL     1       4.571  16.674   2.782  0.00  0.00    +0.044 C 
ATOM     13  C   UNL     1       5.389  15.461   3.144  0.00  0.00    -0.047 A 
ATOM     14  C   UNL     1       5.228  14.282   2.439  0.00  0.00    +0.004 A 
ATOM     15  C   UNL     1       5.979  13.172   2.771  0.00  0.00    +0.009 A 
ATOM     16  C   UNL     1       6.895  13.231   3.808  0.00  0.00    +0.015 A 
ATOM     17  C   UNL     1       7.056  14.408   4.517  0.00  0.00    +0.126 A 
ATOM     18  C   UNL     1       6.299  15.526   4.179  0.00  0.00    +0.049 A 
ATOM     19  O   UNL     1       7.939  14.510   5.545  0.00  0.00    -0.486 OA
ATOM     20  C   UNL     1       8.957  13.514   5.651  0.00  0.00    +0.107 C 
ATOM     21  C   UNL     1       8.297  12.134   5.540  0.00  0.00    +0.074 C 
ATOM     22  C   UNL     1       7.699  11.999   4.138  0.00  0.00    +0.110 C 
ATOM     23  C   UNL     1       9.663  13.641   7.002  0.00  0.00    +0.055 C 
ATOM     24  C   UNL     1       9.973  13.693   4.521  0.00  0.00    +0.055 C 
ENDBRANCH   8  22
ENDBRANCH   1   9
BRANCH   5  25
ATOM     25  C   UNL     1       4.515   6.862  -0.003  0.00  0.00    +0.022 C 
BRANCH  25  26
ATOM     26  C   UNL     1       3.846   5.512  -0.003  0.00  0.00    +0.211 A 
ATOM     27  N   UNL     1       2.556   5.282   0.007  0.00  0.00    -0.193 NA
ATOM     28  C   UNL     1       2.427   3.936   0.001  0.00  0.00    +0.203 A 
ATOM     29  N   UNL     1       3.634   3.432  -0.007  0.00  0.00    -0.056 NA
ATOM     30  O   UNL     1       4.457   4.323  -0.015  0.00  0.00    -0.340 OA
BRANCH  28  31
ATOM     31  C   UNL     1       1.154   3.174   0.008  0.00  0.00    +0.041 A 
ATOM     32  C   UNL     1       1.173   1.780   0.000  0.00  0.00    +0.014 A 
ATOM     33  C   UNL     1      -0.013   1.076   0.008  0.00  0.00    +0.021 A 
ATOM     34  C   UNL     1      -1.222   1.750   0.017  0.00  0.00    +0.042 A 
ATOM     35  C   UNL     1      -1.248   3.134   0.031  0.00  0.00    +0.040 A 
ATOM     36  C   UNL     1      -0.066   3.849   0.023  0.00  0.00    +0.053 A 
ATOM     37 CL   UNL     1      -0.099   5.585   0.032  0.00  0.00    -0.083 Cl
ATOM     38 CL   UNL     1      -2.711   0.857   0.019  0.00  0.00    -0.083 Cl
ENDBRANCH  28  31
ENDBRANCH  25  26
ENDBRANCH   5  25
TORSDOF 5
