REMARK  Name = ZINC35783662
REMARK  6 active torsions:
REMARK  status: ('A' for Active; 'I' for Inactive)
REMARK    1  A    between atoms: C_1  and  N_2
REMARK    2  A    between atoms: N_2  and  C_3
REMARK    3  A    between atoms: N_2  and  C_26
REMARK    4  A    between atoms: C_3  and  C_4
REMARK    5  A    between atoms: C_7  and  C_19
REMARK    6  A    between atoms: C_10  and  C_12
REMARK                            x       y       z     vdW  Elec       q    Type
REMARK                         _______ _______ _______ _____ _____    ______ ____
ROOT
ATOM      1  C   UNL     1       2.137  -0.060  -1.158  0.00  0.00    +0.219 C 
ATOM      2  O   UNL     1       2.554   0.571  -0.209  0.00  0.00    -0.276 OA
ATOM      3  N   UNL     1       2.967  -0.387  -2.168  0.00  0.00    -0.187 N 
ATOM      4  C   UNL     1       4.397  -0.048  -2.244  0.00  0.00    +0.137 C 
ATOM      5  C   UNL     1       4.842  -0.658  -3.588  0.00  0.00    +0.087 C 
ATOM      6  C   UNL     1       3.582  -1.290  -4.136  0.00  0.00    +0.069 C 
ATOM      7  N   UNL     1       2.613  -1.105  -3.308  0.00  0.00    -0.181 NA
ENDROOT
BRANCH   6   8
ATOM      8  C   UNL     1       3.480  -2.011  -5.418  0.00  0.00    -0.002 A 
ATOM      9  C   UNL     1       4.607  -2.158  -6.231  0.00  0.00    +0.012 A 
ATOM     10  C   UNL     1       4.505  -2.833  -7.429  0.00  0.00    +0.039 A 
ATOM     11  C   UNL     1       3.289  -3.365  -7.827  0.00  0.00    +0.123 A 
ATOM     12  C   UNL     1       2.167  -3.222  -7.025  0.00  0.00    +0.039 A 
ATOM     13  C   UNL     1       2.258  -2.554  -5.822  0.00  0.00    +0.012 A 
ATOM     14  F   UNL     1       3.195  -4.026  -9.002  0.00  0.00    -0.205 F 
ENDBRANCH   6   8
BRANCH   4  15
ATOM     15  C   UNL     1       4.589   1.447  -2.247  0.00  0.00    -0.025 A 
ATOM     16  C   UNL     1       3.705   2.255  -2.938  0.00  0.00    +0.008 A 
ATOM     17  C   UNL     1       3.880   3.626  -2.941  0.00  0.00    +0.038 A 
ATOM     18  C   UNL     1       4.940   4.190  -2.252  0.00  0.00    +0.123 A 
ATOM     19  C   UNL     1       5.825   3.379  -1.560  0.00  0.00    +0.038 A 
ATOM     20  C   UNL     1       5.645   2.009  -1.554  0.00  0.00    +0.008 A 
ATOM     21  F   UNL     1       5.112   5.530  -2.254  0.00  0.00    -0.205 F 
ENDBRANCH   4  15
BRANCH   1  22
ATOM     22  C   UNL     1       0.690  -0.478  -1.207  0.00  0.00    +0.021 C 
BRANCH  22  24
ATOM     23  C   UNL     1      -0.018   1.465   0.010  0.00  0.00    -0.095 C 
ATOM     24  N   UNL     1       0.002  -0.004   0.002  0.00  0.00    +0.385 N 
ATOM     25  H   UNL     1       0.490  -0.338   0.820  0.00  0.00    -0.081 HD
BRANCH  24  26
ATOM     26  C   UNL     1      -1.376  -0.512   0.012  0.00  0.00    -0.068 C 
ATOM     27  C   UNL     1      -2.092  -0.019   1.271  0.00  0.00    -0.015 C 
ATOM     28  C   UNL     1      -3.528  -0.549   1.282  0.00  0.00    -0.002 C 
ATOM     29  C   UNL     1      -3.507  -2.079   1.274  0.00  0.00    -0.000 C 
ATOM     30  C   UNL     1      -2.791  -2.572   0.015  0.00  0.00    -0.002 C 
ATOM     31  C   UNL     1      -1.355  -2.042   0.004  0.00  0.00    -0.015 C 
ENDBRANCH  24  26
ENDBRANCH  22  24
ENDBRANCH   1  22
TORSDOF 5
