REMARK  Name = ZINC39683912
REMARK  6 active torsions:
REMARK  status: ('A' for Active; 'I' for Inactive)
REMARK    1  A    between atoms: C_1  and  C_2
REMARK    2  A    between atoms: C_2  and  C_4
REMARK    3  A    between atoms: C_2  and  N_8
REMARK    4  A    between atoms: N_6  and  C_7
REMARK    5  A    between atoms: C_9  and  C_11
REMARK    6  A    between atoms: C_22  and  C_24
REMARK                            x       y       z     vdW  Elec       q    Type
REMARK                         _______ _______ _______ _____ _____    ______ ____
ROOT
ATOM      1  C   UNL     1      -3.052  -0.864  -1.454  0.00  0.00    +0.100 C 
ATOM      2  C   UNL     1      -3.993  -0.157  -0.453  0.00  0.00    +0.121 C 
ATOM      3  N   UNL     1      -4.819   0.746  -1.289  0.00  0.00    -0.296 N 
ATOM      4  C   UNL     1      -5.100  -0.042  -2.514  0.00  0.00    +0.115 C 
ATOM      5  C   UNL     1      -3.784  -0.790  -2.804  0.00  0.00    -0.004 C 
ATOM      6  C   UNL     1      -2.948  -0.011  -3.816  0.00  0.00    -0.010 C 
ATOM      7  C   UNL     1      -3.671   0.001  -5.166  0.00  0.00    -0.082 C 
ATOM      8  N   UNL     1      -3.874  -1.378  -5.627  0.00  0.00    +0.379 N 
ATOM      9  C   UNL     1      -4.754  -2.093  -4.695  0.00  0.00    -0.082 C 
ATOM     10  C   UNL     1      -4.078  -2.193  -3.325  0.00  0.00    -0.010 C 
ATOM     11  C   UNL     1      -5.224   1.998  -1.002  0.00  0.00    +0.249 C 
ATOM     12  O   UNL     1      -5.981   2.580  -1.754  0.00  0.00    -0.270 OA
ATOM     13  H   UNL     1      -4.295  -1.367  -6.543  0.00  0.00    -0.086 HD
ATOM     14  H   UNL     1      -2.983  -1.850  -5.674  0.00  0.00    -0.086 HD
ENDROOT
BRANCH  11  15
ATOM     15  C   UNL     1      -4.747   2.665   0.227  0.00  0.00    +0.073 A 
ATOM     16  C   UNL     1      -4.535   1.922   1.391  0.00  0.00    +0.016 A 
ATOM     17  C   UNL     1      -4.089   2.549   2.535  0.00  0.00    +0.002 A 
ATOM     18  C   UNL     1      -3.852   3.913   2.535  0.00  0.00    +0.023 A 
ATOM     19  C   UNL     1      -4.059   4.658   1.388  0.00  0.00    +0.077 A 
ATOM     20  C   UNL     1      -4.501   4.041   0.230  0.00  0.00    +0.154 A 
ATOM     21  F   UNL     1      -4.699   4.767  -0.892  0.00  0.00    -0.203 F 
ATOM     22 CL   UNL     1      -3.759   6.367   1.399  0.00  0.00    -0.081 Cl
ENDBRANCH  11  15
BRANCH   1  24
ATOM     23  N   UNL     1      -0.613  -0.818  -1.866  0.00  0.00    -0.304 N 
ATOM     24  C   UNL     1      -1.731  -0.142  -1.532  0.00  0.00    +0.219 C 
ATOM     25  O   UNL     1      -1.674   1.046  -1.296  0.00  0.00    -0.275 OA
ATOM     26  H   UNL     1      -0.659  -1.768  -2.055  0.00  0.00    +0.149 HD
BRANCH  23  28
ATOM     27  C   UNL     1       1.301  -0.053  -0.550  0.00  0.00    +0.038 C 
ATOM     28  C   UNL     1       0.671  -0.116  -1.942  0.00  0.00    +0.156 C 
BRANCH  28  29
ATOM     29  C   UNL     1       1.592  -0.856  -2.877  0.00  0.00    +0.233 C 
ATOM     30  O   UNL     1       1.214  -1.869  -3.426  0.00  0.00    -0.274 OA
ATOM     31  N   UNL     1       2.837  -0.391  -3.104  0.00  0.00    -0.317 N 
ATOM     32  C   UNL     1       3.733  -1.111  -4.013  0.00  0.00    +0.128 C 
ATOM     33  H   UNL     1       3.140   0.419  -2.665  0.00  0.00    +0.148 HD
ENDBRANCH  28  29
ENDBRANCH  23  28
ENDBRANCH   1  24
TORSDOF 4
