REMARK  Name = ZINC59889869
REMARK  15 active torsions:
REMARK  status: ('A' for Active; 'I' for Inactive)
REMARK    1  A    between atoms: C_1  and  C_2
REMARK    2  A    between atoms: C_2  and  C_3
REMARK    3  A    between atoms: C_3  and  C_4
REMARK    4  A    between atoms: C_4  and  C_30
REMARK    5  A    between atoms: N_5  and  N_6
REMARK    6  A    between atoms: C_9  and  S_12
REMARK    7  A    between atoms: S_12  and  C_13
REMARK    8  A    between atoms: C_13  and  C_14
REMARK    9  A    between atoms: N_16  and  C_17
REMARK   10  A    between atoms: C_18  and  C_28
REMARK   11  A    between atoms: C_19  and  C_27
REMARK   12  A    between atoms: C_20  and  C_22
REMARK   13  A    between atoms: C_22  and  O_24
REMARK   14  A    between atoms: O_24  and  C_25
REMARK   15  A    between atoms: C_25  and  C_26
REMARK                            x       y       z     vdW  Elec       q    Type
REMARK                         _______ _______ _______ _____ _____    ______ ____
ROOT
ATOM      1  C   UNL     1      -4.821  -6.656   7.591  0.00  0.00    +0.228 C 
ATOM      2  O   UNL     1      -5.071  -5.585   8.102  0.00  0.00    -0.275 OA
ATOM      3  N   UNL     1      -5.103  -7.798   8.248  0.00  0.00    -0.278 N 
ATOM      4  H   UNL     1      -4.903  -8.655   7.840  0.00  0.00    +0.155 HD
ENDROOT
BRANCH   3   5
ATOM      5  C   UNL     1      -5.679  -7.749   9.504  0.00  0.00    +0.090 A 
ATOM      6  C   UNL     1      -6.033  -8.817  10.329  0.00  0.00    +0.084 A 
ATOM      7  C   UNL     1      -6.602  -8.523  11.558  0.00  0.00    -0.010 A 
ATOM      8  C   UNL     1      -6.762  -7.182  11.847  0.00  0.00    +0.102 A 
ATOM      9  S   UNL     1      -6.106  -6.389  10.392  0.00  0.00    -0.065 S 
ATOM     10  C   UNL     1      -7.020  -9.602  12.523  0.00  0.00    +0.046 C 
BRANCH   8  11
ATOM     11  C   UNL     1      -7.325  -6.566  13.048  0.00  0.00    +0.346 C 
ATOM     12  O   UNL     1      -7.727  -7.266  13.958  0.00  0.00    -0.244 OA
BRANCH  11  13
ATOM     13  O   UNL     1      -7.398  -5.223  13.146  0.00  0.00    -0.461 OA
BRANCH  13  14
ATOM     14  C   UNL     1      -7.960  -4.690  14.347  0.00  0.00    +0.229 C 
ATOM     15  C   UNL     1      -7.959  -3.161  14.276  0.00  0.00    +0.048 C 
ENDBRANCH  13  14
ENDBRANCH  11  13
ENDBRANCH   8  11
BRANCH   6  16
ATOM     16  C   UNL     1      -5.817 -10.172   9.918  0.00  0.00    +0.102 C 
ATOM     17  N   UNL     1      -5.646 -11.246   9.593  0.00  0.00    -0.191 NA
ENDBRANCH   6  16
ENDBRANCH   3   5
BRANCH   1  18
ATOM     18  C   UNL     1      -4.193  -6.710   6.222  0.00  0.00    +0.173 C 
BRANCH  18  19
ATOM     19  S   UNL     1      -3.938  -5.022   5.607  0.00  0.00    -0.075 S 
BRANCH  19  23
ATOM     20  N   UNL     1      -1.844  -4.093   1.002  0.00  0.00    -0.205 N 
ATOM     21  C   UNL     1      -2.331  -4.798   2.089  0.00  0.00    +0.232 A 
ATOM     22  N   UNL     1      -2.841  -4.275   3.184  0.00  0.00    -0.186 NA
ATOM     23  C   UNL     1      -3.208  -5.253   4.020  0.00  0.00    +0.211 A 
ATOM     24  N   UNL     1      -2.936  -6.410   3.467  0.00  0.00    -0.144 NA
ATOM     25  N   UNL     1      -2.371  -6.141   2.211  0.00  0.00    -0.245 N 
ATOM     26  H   UNL     1      -1.490  -4.569   0.235  0.00  0.00    +0.177 HD
ATOM     27  H   UNL     1      -2.067  -6.792   1.559  0.00  0.00    +0.192 HD
BRANCH  20  29
ATOM     28  C   UNL     1      -1.413  -2.041   0.005  0.00  0.00    +0.034 C 
ATOM     29  N   UNL     1      -1.863  -2.692   1.010  0.00  0.00    -0.189 NA
ATOM     30  C   UNL     1      -0.863  -2.780  -1.188  0.00  0.00    +0.062 C 
BRANCH  28  31
ATOM     31  C   UNL     1      -1.433  -0.534   0.013  0.00  0.00    +0.052 C 
BRANCH  31  33
ATOM     32  C   UNL     1      -0.019   1.526   0.010  0.00  0.00    +0.004 C 
ATOM     33  C   UNL     1       0.002  -0.004   0.002  0.00  0.00    +0.002 C 
ENDBRANCH  31  33
ENDBRANCH  28  31
ENDBRANCH  20  29
ENDBRANCH  19  23
ENDBRANCH  18  19
ENDBRANCH   1  18
TORSDOF 11
