REMARK  Name = ZINC16266029
REMARK  7 active torsions:
REMARK  status: ('A' for Active; 'I' for Inactive)
REMARK    1  A    between atoms: C_1  and  C_2
REMARK    2  A    between atoms: C_5  and  C_10
REMARK    3  A    between atoms: C_6  and  S_8
REMARK    4  A    between atoms: S_8  and  C_9
REMARK    5  A    between atoms: C_15  and  C_33
REMARK    6  A    between atoms: C_25  and  C_32
REMARK    7  A    between atoms: C_28  and  O_31
REMARK                            x       y       z     vdW  Elec       q    Type
REMARK                         _______ _______ _______ _____ _____    ______ ____
ROOT
ATOM      1  C   UNL     1      -6.824  -2.287   1.216  0.00  0.00    +0.066 C 
ATOM      2  C   UNL     1      -7.031  -0.979   0.495  0.00  0.00    +0.044 A 
ATOM      3  C   UNL     1      -6.072   0.014   0.469  0.00  0.00    -0.016 A 
ATOM      4  C   UNL     1      -6.321   1.216  -0.218  0.00  0.00    -0.022 A 
ATOM      5  C   UNL     1      -7.537   1.416  -0.873  0.00  0.00    +0.087 A 
ATOM      6  C   UNL     1      -8.462   0.350  -0.793  0.00  0.00    +0.115 A 
ATOM      7  N   UNL     1      -8.179  -0.761  -0.140  0.00  0.00    -0.244 NA
ATOM      8  C   UNL     1      -5.114   2.121  -0.101  0.00  0.00    +0.041 C 
ATOM      9  C   UNL     1      -3.998   1.076   0.083  0.00  0.00    +0.007 C 
ATOM     10  C   UNL     1      -4.708   0.131   1.085  0.00  0.00    -0.002 C 
ATOM     11  C   UNL     1      -3.919  -1.135   1.279  0.00  0.00    +0.012 C 
ATOM     12  C   UNL     1      -2.407  -0.878   1.128  0.00  0.00    +0.005 C 
ATOM     13  C   UNL     1      -2.057   0.539   1.552  0.00  0.00    +0.003 C 
ATOM     14  C   UNL     1      -2.665   1.537   0.563  0.00  0.00    +0.001 C 
ATOM     15  C   UNL     1      -2.610   2.926   1.186  0.00  0.00    +0.031 C 
ATOM     16  C   UNL     1      -1.169   3.203   1.539  0.00  0.00    -0.027 C 
ATOM     17  C   UNL     1      -0.282   2.273   1.754  0.00  0.00    -0.065 C 
ATOM     18  C   UNL     1      -0.564   0.795   1.684  0.00  0.00    -0.008 C 
ATOM     19  C   UNL     1      -0.045   0.121   2.958  0.00  0.00    +0.014 C 
ATOM     20  C   UNL     1       1.408   0.500   3.226  0.00  0.00    +0.032 C 
ATOM     21  C   UNL     1       1.550   2.011   3.396  0.00  0.00    +0.119 C 
ATOM     22  C   UNL     1       1.128   2.715   2.105  0.00  0.00    +0.062 C 
ATOM     23  C   UNL     1       0.165   0.205   0.481  0.00  0.00    +0.016 C 
ATOM     24  C   UNL     1      -4.930   0.814   2.440  0.00  0.00    +0.016 C 
ENDROOT
BRANCH   6  25
ATOM     25  S   UNL     1     -10.028   0.512  -1.585  0.00  0.00    -0.108 S 
ATOM     26  C   UNL     1     -10.760  -1.089  -1.165  0.00  0.00    +0.091 C 
ENDBRANCH   6  25
BRANCH   5  27
ATOM     27  C   UNL     1      -7.837   2.624  -1.581  0.00  0.00    +0.102 C 
ATOM     28  N   UNL     1      -8.075   3.582  -2.143  0.00  0.00    -0.191 NA
ENDBRANCH   5  27
BRANCH  21  29
ATOM     29  O   UNL     1       0.727   2.459   4.475  0.00  0.00    -0.391 OA
ATOM     30  H   UNL     1       0.772   3.411   4.635  0.00  0.00    +0.210 HD
ENDBRANCH  21  29
TORSDOF 3
