REMARK  Name = ZINC10962518
REMARK  12 active torsions:
REMARK  status: ('A' for Active; 'I' for Inactive)
REMARK    1  A    between atoms: C_1  and  C_2
REMARK    2  A    between atoms: C_2  and  O_3
REMARK    3  A    between atoms: O_3  and  C_4
REMARK    4  A    between atoms: C_7  and  C_10
REMARK    5  A    between atoms: C_13  and  S_16
REMARK    6  A    between atoms: N_14  and  N_15
REMARK    7  A    between atoms: S_16  and  C_17
REMARK    8  A    between atoms: C_17  and  C_18
REMARK    9  A    between atoms: N_20  and  C_21
REMARK   10  A    between atoms: C_26  and  O_27
REMARK   11  A    between atoms: O_27  and  C_28
REMARK   12  A    between atoms: C_31  and  C_34
REMARK                            x       y       z     vdW  Elec       q    Type
REMARK                         _______ _______ _______ _____ _____    ______ ____
ROOT
ATOM      1  C   UNL     1       1.238   2.255   0.747  0.00  0.00    +0.173 C 
ENDROOT
BRANCH   1   2
ATOM      2  C   UNL     1       1.349   3.750   0.906  0.00  0.00    +0.228 C 
ATOM      3  O   UNL     1       0.371   4.403   1.201  0.00  0.00    -0.275 OA
ATOM      4  N   UNL     1       2.536   4.361   0.720  0.00  0.00    -0.282 N 
ATOM      5  H   UNL     1       3.314   3.841   0.463  0.00  0.00    +0.155 HD
BRANCH   4   6
ATOM      6  C   UNL     1       2.647   5.746   0.899  0.00  0.00    +0.076 A 
ATOM      7  C   UNL     1       1.521   6.551   0.808  0.00  0.00    +0.027 A 
ATOM      8  C   UNL     1       1.632   7.917   0.985  0.00  0.00    +0.002 A 
ATOM      9  C   UNL     1       2.864   8.485   1.253  0.00  0.00    +0.004 A 
ATOM     10  C   UNL     1       3.991   7.689   1.345  0.00  0.00    +0.048 A 
ATOM     11  C   UNL     1       3.887   6.318   1.174  0.00  0.00    +0.150 A 
BRANCH  11  12
ATOM     12  O   UNL     1       4.993   5.533   1.270  0.00  0.00    -0.454 OA
BRANCH  12  13
ATOM     13  C   UNL     1       6.162   6.121   1.639  0.00  0.00    +0.129 A 
ATOM     14  C   UNL     1       7.131   6.398   0.685  0.00  0.00    +0.046 A 
ATOM     15  C   UNL     1       8.316   7.000   1.061  0.00  0.00    +0.007 A 
ATOM     16  C   UNL     1       8.541   7.316   2.388  0.00  0.00    -0.050 A 
ATOM     17  C   UNL     1       7.579   7.036   3.341  0.00  0.00    +0.007 A 
ATOM     18  C   UNL     1       6.390   6.439   2.970  0.00  0.00    +0.046 A 
ATOM     19  C   UNL     1       9.838   7.967   2.797  0.00  0.00    +0.044 C 
ENDBRANCH  12  13
ENDBRANCH  11  12
ENDBRANCH   4   6
ENDBRANCH   1   2
BRANCH   1  20
ATOM     20  S   UNL     1      -0.469   1.741   1.059  0.00  0.00    -0.075 S 
BRANCH  20  24
ATOM     21  C   UNL     1      -0.728  -2.135   0.639  0.00  0.00    +0.182 A 
ATOM     22  N   UNL     1       0.539  -1.902   0.389  0.00  0.00    -0.127 NA
ATOM     23  N   UNL     1       0.781  -0.644   0.486  0.00  0.00    -0.121 NA
ATOM     24  C   UNL     1      -0.315   0.003   0.812  0.00  0.00    +0.209 A 
ATOM     25  N   UNL     1      -1.314  -0.923   0.918  0.00  0.00    -0.224 N 
BRANCH  21  29
ATOM     26  C   UNL     1      -2.655  -5.922   0.596  0.00  0.00    +0.121 A 
ATOM     27  C   UNL     1      -3.413  -4.759   0.583  0.00  0.00    +0.046 A 
ATOM     28  C   UNL     1      -2.792  -3.529   0.597  0.00  0.00    +0.015 A 
ATOM     29  C   UNL     1      -1.398  -3.453   0.625  0.00  0.00    +0.021 A 
ATOM     30  C   UNL     1      -0.639  -4.625   0.632  0.00  0.00    +0.015 A 
ATOM     31  C   UNL     1      -1.268  -5.851   0.624  0.00  0.00    +0.046 A 
BRANCH  26  32
ATOM     32  O   UNL     1      -3.271  -7.133   0.582  0.00  0.00    -0.492 OA
BRANCH  32  34
ATOM     33  C   UNL     1      -3.297  -9.550   0.577  0.00  0.00    +0.048 C 
ATOM     34  C   UNL     1      -2.431  -8.289   0.597  0.00  0.00    +0.225 C 
ENDBRANCH  32  34
ENDBRANCH  26  32
ENDBRANCH  21  29
BRANCH  25  35
ATOM     35  N   UNL     1      -2.623  -0.692   1.235  0.00  0.00    -0.295 N 
ATOM     36  H   UNL     1      -3.173  -0.532   0.405  0.00  0.00    +0.163 HD
ATOM     37  H   UNL     1      -3.002  -1.452   1.780  0.00  0.00    +0.163 HD
ENDBRANCH  25  35
ENDBRANCH  20  24
ENDBRANCH   1  20
TORSDOF 10
