REMARK  Name = ZINC09751789
REMARK  11 active torsions:
REMARK  status: ('A' for Active; 'I' for Inactive)
REMARK    1  A    between atoms: C_1  and  C_2
REMARK    2  A    between atoms: C_2  and  C_3
REMARK    3  A    between atoms: C_2  and  N_4
REMARK    4  A    between atoms: N_4  and  C_5
REMARK    5  A    between atoms: N_4  and  S_6
REMARK    6  A    between atoms: S_6  and  C_9
REMARK    7  A    between atoms: C_13  and  C_15
REMARK    8  A    between atoms: C_15  and  O_17
REMARK    9  A    between atoms: O_17  and  C_18
REMARK   10  A    between atoms: C_18  and  C_19
REMARK   11  A    between atoms: N_24  and  C_25
REMARK                            x       y       z     vdW  Elec       q    Type
REMARK                         _______ _______ _______ _____ _____    ______ ____
ROOT
ATOM      1  C   UNL     1      -0.018   1.448   0.010  0.00  0.00    +0.328 C 
ENDROOT
BRANCH   1   2
ATOM      2  C   UNL     1       1.396   1.969  -0.001  0.00  0.00    +0.258 C 
ATOM      3  O   UNL     1       2.328   1.194  -0.014  0.00  0.00    -0.272 OA
ATOM      4  N   UNL     1       1.625   3.298   0.004  0.00  0.00    -0.237 N 
ATOM      5  C   UNL     1       2.889   3.764  -0.005  0.00  0.00    +0.306 C 
ATOM      6  O   UNL     1       3.823   2.987  -0.018  0.00  0.00    -0.252 OA
ATOM      7  N   UNL     1       3.117   5.093  -0.000  0.00  0.00    -0.294 N 
ATOM      8  H   UNL     1       0.879   3.918   0.015  0.00  0.00    +0.159 HD
ATOM      9  H   UNL     1       2.371   5.713   0.010  0.00  0.00    +0.151 HD
BRANCH   7  10
ATOM     10  C   UNL     1       4.492   5.599  -0.011  0.00  0.00    +0.037 C 
ATOM     11  C   UNL     1       5.231   5.093   1.229  0.00  0.00    +0.029 C 
ATOM     12  C   UNL     1       6.667   5.622   1.218  0.00  0.00    -0.008 C 
ATOM     13  C   UNL     1       6.646   7.152   1.226  0.00  0.00    +0.007 C 
ATOM     14  C   UNL     1       5.906   7.659  -0.013  0.00  0.00    -0.008 C 
ATOM     15  C   UNL     1       4.471   7.129  -0.002  0.00  0.00    +0.029 C 
ATOM     16  C   UNL     1       6.622   7.165  -1.272  0.00  0.00    +0.007 C 
ATOM     17  C   UNL     1       6.643   5.636  -1.280  0.00  0.00    -0.008 C 
ATOM     18  C   UNL     1       7.383   5.129  -0.041  0.00  0.00    +0.007 C 
ATOM     19  C   UNL     1       5.208   5.106  -1.270  0.00  0.00    +0.029 C 
ENDBRANCH   7  10
ENDBRANCH   1   2
BRANCH   1  20
ATOM     20  O   UNL     1       0.002  -0.004   0.002  0.00  0.00    -0.452 OA
BRANCH  20  21
ATOM     21  C   UNL     1      -1.190  -0.632   0.010  0.00  0.00    +0.340 C 
ATOM     22  O   UNL     1      -2.217   0.016   0.023  0.00  0.00    -0.245 OA
BRANCH  21  27
ATOM     23  C   UNL     1      -2.527  -4.141   0.004  0.00  0.00    +0.106 A 
ATOM     24  C   UNL     1      -1.355  -4.875  -0.012  0.00  0.00    +0.028 A 
ATOM     25  C   UNL     1      -0.129  -4.234  -0.021  0.00  0.00    +0.003 A 
ATOM     26  C   UNL     1      -0.068  -2.855  -0.018  0.00  0.00    +0.015 A 
ATOM     27  C   UNL     1      -1.247  -2.108   0.003  0.00  0.00    +0.061 A 
ATOM     28  C   UNL     1      -2.481  -2.762   0.011  0.00  0.00    +0.043 A 
BRANCH  23  29
ATOM     29  S   UNL     1      -4.083  -4.968   0.013  0.00  0.00    +0.061 S 
ATOM     30  O   UNL     1      -3.851  -6.261   0.555  0.00  0.00    -0.153 OA
ATOM     31  O   UNL     1      -5.021  -4.062   0.578  0.00  0.00    -0.153 OA
BRANCH  29  32
ATOM     32  N   UNL     1      -4.530  -5.189  -1.566  0.00  0.00    -0.177 NA
ATOM     33  C   UNL     1      -4.132  -6.407  -2.276  0.00  0.00    +0.132 C 
BRANCH  32  35
ATOM     34  C   UNL     1      -4.549  -3.650  -3.466  0.00  0.00    +0.025 C 
ATOM     35  C   UNL     1      -5.323  -4.166  -2.252  0.00  0.00    +0.073 C 
ATOM     36  C   UNL     1      -6.649  -4.775  -2.714  0.00  0.00    +0.025 C 
ENDBRANCH  32  35
ENDBRANCH  29  32
ENDBRANCH  23  29
ENDBRANCH  21  27
ENDBRANCH  20  21
ENDBRANCH   1  20
TORSDOF 8
