REMARK  Name = ZINC12475659
REMARK  10 active torsions:
REMARK  status: ('A' for Active; 'I' for Inactive)
REMARK    1  A    between atoms: C_1  and  C_2
REMARK    2  A    between atoms: C_3  and  C_29
REMARK    3  A    between atoms: N_4  and  C_24
REMARK    4  A    between atoms: C_5  and  N_9
REMARK    5  A    between atoms: C_6  and  C_7
REMARK    6  A    between atoms: C_10  and  C_12
REMARK    7  A    between atoms: C_12  and  S_13
REMARK    8  A    between atoms: S_13  and  C_14
REMARK    9  A    between atoms: C_17  and  C_20
REMARK   10  A    between atoms: N_18  and  C_19
REMARK                            x       y       z     vdW  Elec       q    Type
REMARK                         _______ _______ _______ _____ _____    ______ ____
ROOT
ATOM      1  N   UNL     1      -4.051   4.256   7.277  0.00  0.00    -0.270 N 
ATOM      2  C   UNL     1      -4.369   2.948   7.346  0.00  0.00    +0.229 C 
ATOM      3  O   UNL     1      -5.226   2.572   8.117  0.00  0.00    -0.275 OA
ATOM      4  H   UNL     1      -3.429   4.569   6.602  0.00  0.00    +0.156 HD
ENDROOT
BRANCH   1   9
ATOM      5  C   UNL     1      -6.101   6.348  11.396  0.00  0.00    +0.047 C 
ATOM      6  C   UNL     1      -5.541   6.129  10.014  0.00  0.00    -0.011 A 
ATOM      7  C   UNL     1      -5.431   7.047   9.039  0.00  0.00    +0.022 A 
ATOM      8  N   UNL     1      -4.875   6.465   7.931  0.00  0.00    -0.329 N 
ATOM      9  C   UNL     1      -4.614   5.154   8.172  0.00  0.00    +0.124 A 
ATOM     10  C   UNL     1      -5.016   4.871   9.470  0.00  0.00    +0.095 A 
ATOM     11  C   UNL     1      -5.853   8.489   9.148  0.00  0.00    +0.064 C 
BRANCH   8  12
ATOM     12  C   UNL     1      -4.600   7.157   6.669  0.00  0.00    +0.089 C 
ATOM     13  C   UNL     1      -5.222   6.377   5.493  0.00  0.00    +0.025 C 
ATOM     14  C   UNL     1      -4.192   6.535   4.346  0.00  0.00    +0.002 C 
ATOM     15  C   UNL     1      -2.836   6.452   5.090  0.00  0.00    +0.002 C 
ATOM     16  C   UNL     1      -3.083   7.205   6.414  0.00  0.00    +0.025 C 
ENDBRANCH   8  12
BRANCH  10  17
ATOM     17  C   UNL     1      -4.932   3.610  10.142  0.00  0.00    +0.103 C 
ATOM     18  N   UNL     1      -4.866   2.609  10.675  0.00  0.00    -0.191 NA
ENDBRANCH  10  17
ENDBRANCH   1   9
BRANCH   2  19
ATOM     19  C   UNL     1      -3.660   1.953   6.464  0.00  0.00    +0.173 C 
BRANCH  19  20
ATOM     20  S   UNL     1      -4.198   0.278   6.890  0.00  0.00    -0.077 S 
BRANCH  20  21
ATOM     21  C   UNL     1      -3.240  -0.652   5.740  0.00  0.00    +0.192 A 
ATOM     22  N   UNL     1      -2.397  -0.171   4.857  0.00  0.00    -0.122 NA
ATOM     23  N   UNL     1      -1.869  -1.133   4.188  0.00  0.00    -0.124 NA
ATOM     24  C   UNL     1      -2.348  -2.275   4.593  0.00  0.00    +0.238 A 
ATOM     25  N   UNL     1      -3.235  -2.010   5.600  0.00  0.00    -0.302 N 
ATOM     26  C   UNL     1      -4.018  -2.982   6.367  0.00  0.00    +0.153 C 
BRANCH  24  27
ATOM     27  C   UNL     1      -1.985  -3.636   4.058  0.00  0.00    +0.452 C 
ATOM     28  F   UNL     1      -0.820  -3.540   3.290  0.00  0.00    -0.163 F 
ATOM     29  F   UNL     1      -3.030  -4.117   3.261  0.00  0.00    -0.163 F 
ATOM     30  F   UNL     1      -1.770  -4.515   5.125  0.00  0.00    -0.163 F 
ENDBRANCH  24  27
ENDBRANCH  20  21
ENDBRANCH  19  20
ENDBRANCH   2  19
TORSDOF 7
