REMARK  Name = ZINC36346582
REMARK  18 active torsions:
REMARK  status: ('A' for Active; 'I' for Inactive)
REMARK    1  A    between atoms: C_1  and  C_2
REMARK    2  A    between atoms: C_3  and  C_22
REMARK    3  A    between atoms: C_4  and  O_14
REMARK    4  A    between atoms: N_5  and  C_7
REMARK    5  A    between atoms: O_14  and  C_15
REMARK    6  A    between atoms: C_22  and  N_23
REMARK    7  A    between atoms: N_23  and  C_24
REMARK    8  A    between atoms: N_23  and  C_34
REMARK    9  A    between atoms: C_24  and  C_25
REMARK   10  A    between atoms: C_25  and  C_27
REMARK   11  A    between atoms: C_25  and  O_33
REMARK   12  A    between atoms: C_27  and  O_28
REMARK   13  A    between atoms: O_28  and  C_29
REMARK   14  A    between atoms: C_29  and  C_30
REMARK   15  A    between atoms: C_30  and  C_31
REMARK   16  A    between atoms: C_30  and  C_32
REMARK   17  A    between atoms: C_34  and  C_35
REMARK   18  A    between atoms: C_34  and  C_36
REMARK                            x       y       z     vdW  Elec       q    Type
REMARK                         _______ _______ _______ _____ _____    ______ ____
ROOT
ATOM      1  C   UNL     1       2.499   2.916  -0.688  0.00  0.00    +0.068 C 
ATOM      2  C   UNL     1       1.644   1.760  -0.238  0.00  0.00    +0.065 A 
ATOM      3  C   UNL     1       0.960   0.874  -1.076  0.00  0.00    +0.021 A 
ATOM      4  C   UNL     1       0.307  -0.024  -0.291  0.00  0.00    +0.225 A 
ATOM      5  N   UNL     1       0.576   0.293   1.004  0.00  0.00    -0.200 N 
ATOM      6  N   UNL     1       1.420   1.411   1.004  0.00  0.00    -0.168 NA
ENDROOT
BRANCH   5   7
ATOM      7  C   UNL     1       0.098  -0.381   2.136  0.00  0.00    +0.069 A 
ATOM      8  C   UNL     1      -1.218  -0.823   2.179  0.00  0.00    +0.031 A 
ATOM      9  C   UNL     1      -1.687  -1.487   3.295  0.00  0.00    +0.040 A 
ATOM     10  C   UNL     1      -0.845  -1.713   4.372  0.00  0.00    +0.124 A 
ATOM     11  C   UNL     1       0.467  -1.273   4.331  0.00  0.00    +0.040 A 
ATOM     12  C   UNL     1       0.941  -0.614   3.214  0.00  0.00    +0.031 A 
ATOM     13  F   UNL     1      -1.306  -2.362   5.463  0.00  0.00    -0.205 F 
ENDBRANCH   5   7
BRANCH   4  14
ATOM     14  O   UNL     1      -0.472  -1.049  -0.721  0.00  0.00    -0.435 OA
BRANCH  14  15
ATOM     15  C   UNL     1      -1.779  -0.789  -0.989  0.00  0.00    +0.165 A 
ATOM     16  C   UNL     1      -2.297   0.477  -0.758  0.00  0.00    +0.049 A 
ATOM     17  C   UNL     1      -3.626   0.739  -1.032  0.00  0.00    +0.004 A 
ATOM     18  C   UNL     1      -4.440  -0.258  -1.535  0.00  0.00    +0.003 A 
ATOM     19  C   UNL     1      -3.928  -1.522  -1.767  0.00  0.00    +0.042 A 
ATOM     20  C   UNL     1      -2.597  -1.789  -1.501  0.00  0.00    +0.165 A 
ATOM     21  F   UNL     1      -2.095  -3.021  -1.732  0.00  0.00    -0.202 F 
ENDBRANCH  14  15
ENDBRANCH   4  14
BRANCH   3  22
ATOM     22  C   UNL     1       0.949   0.908  -2.583  0.00  0.00    -0.035 C 
BRANCH  22  23
ATOM     23  N   UNL     1       2.312   0.698  -3.088  0.00  0.00    +0.386 N 
ATOM     24  H   UNL     1       2.947   1.322  -2.612  0.00  0.00    -0.081 HD
BRANCH  23  25
ATOM     25  C   UNL     1       2.716  -0.693  -2.842  0.00  0.00    -0.074 C 
ATOM     26  C   UNL     1       2.868  -0.921  -1.337  0.00  0.00    -0.014 C 
ATOM     27  C   UNL     1       1.650  -1.639  -3.396  0.00  0.00    -0.014 C 
ENDBRANCH  23  25
BRANCH  23  28
ATOM     28  C   UNL     1       2.347   0.970  -4.531  0.00  0.00    -0.044 C 
BRANCH  28  29
ATOM     29  C   UNL     1       3.796   0.944  -5.020  0.00  0.00    +0.124 C 
BRANCH  29  30
ATOM     30  O   UNL     1       4.303  -0.390  -4.936  0.00  0.00    -0.391 OA
ATOM     31  H   UNL     1       3.863  -1.015  -5.528  0.00  0.00    +0.210 HD
ENDBRANCH  29  30
BRANCH  29  32
ATOM     32  C   UNL     1       3.853   1.421  -6.473  0.00  0.00    +0.189 C 
BRANCH  32  33
ATOM     33  O   UNL     1       5.216   1.508  -6.892  0.00  0.00    -0.377 OA
BRANCH  33  34
ATOM     34  C   UNL     1       5.382   1.947  -8.242  0.00  0.00    +0.163 C 
BRANCH  34  35
ATOM     35  C   UNL     1       6.873   2.002  -8.581  0.00  0.00    +0.009 C 
ATOM     36  C   UNL     1       7.458   0.588  -8.540  0.00  0.00    +0.009 C 
ATOM     37  C   UNL     1       7.056   2.589  -9.982  0.00  0.00    +0.009 C 
ENDBRANCH  34  35
ENDBRANCH  33  34
ENDBRANCH  32  33
ENDBRANCH  29  32
ENDBRANCH  28  29
ENDBRANCH  23  28
ENDBRANCH  22  23
ENDBRANCH   3  22
TORSDOF 13
