REMARK  Name = ZINC05488609
REMARK  2 active torsions:
REMARK  status: ('A' for Active; 'I' for Inactive)
REMARK    1  A    between atoms: C_4  and  C_7
REMARK    2  A    between atoms: C_15  and  N_63
REMARK                            x       y       z     vdW  Elec       q    Type
REMARK                         _______ _______ _______ _____ _____    ______ ____
ROOT
ATOM      1  C   UNL     1      -4.960   0.943  -0.337  0.00  0.00    +0.053 C 
ATOM      2  C   UNL     1      -4.772  -0.222   0.635  0.00  0.00    +0.027 C 
ATOM      3  C   UNL     1      -4.627   0.311   2.061  0.00  0.00    +0.006 C 
ATOM      4  C   UNL     1      -4.420  -0.862   3.022  0.00  0.00    +0.000 C 
ATOM      5  C   UNL     1      -3.158  -1.631   2.629  0.00  0.00    +0.002 C 
ATOM      6  C   UNL     1      -3.301  -2.155   1.199  0.00  0.00    +0.029 C 
ATOM      7  C   UNL     1      -3.501  -0.984   0.232  0.00  0.00    +0.087 C 
ATOM      8  O   UNL     1      -2.393  -0.091   0.367  0.00  0.00    -0.502 OA
ATOM      9  C   UNL     1      -2.497   1.154  -0.160  0.00  0.00    +0.126 C 
ATOM     10  C   UNL     1      -3.661   1.693  -0.503  0.00  0.00    -0.019 C 
ATOM     11  C   UNL     1      -3.714   3.086  -1.084  0.00  0.00    +0.040 C 
ATOM     12  C   UNL     1      -2.683   3.991  -0.413  0.00  0.00    +0.040 C 
ATOM     13  C   UNL     1      -1.332   3.329  -0.463  0.00  0.00    -0.036 A 
ATOM     14  C   UNL     1      -1.252   1.942  -0.352  0.00  0.00    +0.020 A 
ATOM     15  C   UNL     1      -0.013   1.310  -0.400  0.00  0.00    +0.012 A 
ATOM     16  C   UNL     1       1.132   2.066  -0.562  0.00  0.00    +0.001 A 
ATOM     17  C   UNL     1       1.047   3.442  -0.673  0.00  0.00    +0.000 A 
ATOM     18  C   UNL     1      -0.184   4.074  -0.624  0.00  0.00    +0.004 A 
ENDROOT
BRANCH   7  24
ATOM     19  C   UNL     1      -4.879  -2.190  -1.352  0.00  0.00    -0.073 C 
ATOM     20  C   UNL     1      -5.032  -2.549  -2.831  0.00  0.00    -0.018 C 
ATOM     21  C   UNL     1      -3.849  -3.418  -3.266  0.00  0.00    -0.004 C 
ATOM     22  C   UNL     1      -2.545  -2.659  -3.001  0.00  0.00    -0.018 C 
ATOM     23  C   UNL     1      -2.463  -2.297  -1.517  0.00  0.00    -0.073 C 
ATOM     24  N   UNL     1      -3.617  -1.441  -1.168  0.00  0.00    +0.406 N 
ATOM     25  H   UNL     1      -3.623  -0.622  -1.787  0.00  0.00    -0.076 HD
ENDBRANCH   7  24
BRANCH   1  29
ATOM     26  C   UNL     1      -7.944   3.592   1.186  0.00  0.00    +0.000 A 
ATOM     27  C   UNL     1      -8.262   2.699   0.180  0.00  0.00    +0.000 A 
ATOM     28  C   UNL     1      -7.296   1.841  -0.313  0.00  0.00    +0.004 A 
ATOM     29  C   UNL     1      -6.013   1.877   0.200  0.00  0.00    -0.040 A 
ATOM     30  C   UNL     1      -5.697   2.768   1.209  0.00  0.00    +0.004 A 
ATOM     31  C   UNL     1      -6.661   3.628   1.700  0.00  0.00    +0.000 A 
ENDBRANCH   1  29
TORSDOF 2
