REMARK  Name = ZINC63350175
REMARK  7 active torsions:
REMARK  status: ('A' for Active; 'I' for Inactive)
REMARK    1  A    between atoms: C_1  and  C_2
REMARK    2  A    between atoms: C_5  and  C_28
REMARK    3  A    between atoms: C_18  and  C_20
REMARK    4  A    between atoms: C_20  and  C_21
REMARK    5  A    between atoms: C_21  and  C_22
REMARK    6  A    between atoms: C_28  and  O_30
REMARK    7  A    between atoms: O_30  and  C_31
REMARK                            x       y       z     vdW  Elec       q    Type
REMARK                         _______ _______ _______ _____ _____    ______ ____
ROOT
ATOM      1  C   UNL     1       0.355   1.220   0.690  0.00  0.00    +0.109 C 
ATOM      2  C   UNL     1       0.314  -0.266   0.443  0.00  0.00    +0.213 C 
ATOM      3  O   UNL     1       1.334  -0.919   0.503  0.00  0.00    -0.276 OA
ATOM      4  N   UNL     1      -0.857  -0.870   0.157  0.00  0.00    -0.283 N 
ATOM      5  C   UNL     1      -2.085  -0.072   0.082  0.00  0.00    +0.189 C 
ATOM      6  C   UNL     1      -2.724  -0.246  -1.308  0.00  0.00    +0.067 C 
ATOM      7  C   UNL     1      -2.697  -1.723  -1.615  0.00  0.00    -0.034 C 
ATOM      8  C   UNL     1      -3.655  -2.557  -2.000  0.00  0.00    -0.001 A 
ATOM      9  C   UNL     1      -5.061  -2.330  -2.372  0.00  0.00    +0.010 A 
ATOM     10  C   UNL     1      -5.779  -3.435  -2.703  0.00  0.00    +0.001 A 
ATOM     11  C   UNL     1      -5.247  -4.728  -2.700  0.00  0.00    +0.002 A 
ATOM     12  C   UNL     1      -3.963  -5.028  -2.380  0.00  0.00    +0.026 A 
ATOM     13  C   UNL     1      -3.106  -3.947  -2.022  0.00  0.00    +0.043 A 
ATOM     14  N   UNL     1      -1.847  -3.943  -1.697  0.00  0.00    -0.376 N 
ATOM     15  C   UNL     1      -1.428  -2.557  -1.491  0.00  0.00    +0.127 C 
ATOM     16  C   UNL     1      -0.888  -2.321  -0.082  0.00  0.00    +0.104 C 
ATOM     17  H   UNL     1      -1.282  -4.727  -1.607  0.00  0.00    +0.160 HD
ENDROOT
BRANCH   5  18
ATOM     18  C   UNL     1      -3.051  -0.535   1.141  0.00  0.00    +0.328 C 
ATOM     19  O   UNL     1      -2.635  -0.988   2.181  0.00  0.00    -0.249 OA
BRANCH  18  20
ATOM     20  O   UNL     1      -4.373  -0.445   0.929  0.00  0.00    -0.467 OA
ATOM     21  C   UNL     1      -5.231  -0.902   1.976  0.00  0.00    +0.280 C 
ENDBRANCH  18  20
ENDBRANCH   5  18
BRANCH  16  22
ATOM     22  C   UNL     1      -1.806  -2.995   0.940  0.00  0.00    +0.029 C 
BRANCH  22  23
ATOM     23  C   UNL     1      -1.611  -4.511   0.879  0.00  0.00    +0.037 C 
BRANCH  23  24
ATOM     24  C   UNL     1      -2.398  -5.164   1.986  0.00  0.00    -0.047 A 
ATOM     25  C   UNL     1      -1.815  -5.366   3.223  0.00  0.00    +0.003 A 
ATOM     26  C   UNL     1      -2.537  -5.965   4.238  0.00  0.00    +0.000 A 
ATOM     27  C   UNL     1      -3.843  -6.361   4.016  0.00  0.00    +0.000 A 
ATOM     28  C   UNL     1      -4.426  -6.159   2.780  0.00  0.00    +0.000 A 
ATOM     29  C   UNL     1      -3.705  -5.556   1.766  0.00  0.00    +0.003 A 
ENDBRANCH  23  24
ENDBRANCH  22  23
ENDBRANCH  16  22
TORSDOF 5
