REMARK  Name = ZINC20720734
REMARK  5 active torsions:
REMARK  status: ('A' for Active; 'I' for Inactive)
REMARK    1  A    between atoms: C_7  and  C_11
REMARK    2  A    between atoms: C_22  and  S_27
REMARK    3  A    between atoms: S_27  and  N_30
REMARK    4  A    between atoms: N_30  and  C_31
REMARK    5  A    between atoms: C_31  and  C_32
REMARK                            x       y       z     vdW  Elec       q    Type
REMARK                         _______ _______ _______ _____ _____    ______ ____
ROOT
ATOM      1  C   UNL     1      -2.527  -0.809   0.022  0.00  0.00    +0.107 C 
ATOM      2  C   UNL     1      -3.022  -0.601  -1.397  0.00  0.00    +0.029 C 
ATOM      3  C   UNL     1      -4.564  -0.484  -1.435  0.00  0.00    +0.033 C 
ATOM      4  C   UNL     1      -4.908  -0.989  -2.824  0.00  0.00    -0.030 C 
ATOM      5  C   UNL     1      -3.943  -1.742  -3.290  0.00  0.00    -0.023 C 
ATOM      6  C   UNL     1      -2.815  -1.850  -2.273  0.00  0.00    +0.049 C 
ATOM      7  C   UNL     1      -3.002  -3.129  -1.503  0.00  0.00    -0.018 A 
ATOM      8  C   UNL     1      -3.003  -4.323  -2.211  0.00  0.00    +0.034 A 
ATOM      9  C   UNL     1      -3.174  -5.526  -1.556  0.00  0.00    +0.106 A 
ATOM     10  C   UNL     1      -3.346  -5.554  -0.184  0.00  0.00    +0.030 A 
ATOM     11  C   UNL     1      -3.345  -4.373   0.530  0.00  0.00    +0.025 A 
ATOM     12  C   UNL     1      -3.171  -3.162  -0.130  0.00  0.00    +0.031 A 
ATOM     13  N   UNL     1      -3.194  -1.977   0.608  0.00  0.00    -0.336 N 
ATOM     14  H   UNL     1      -3.684  -1.897   1.589  0.00  0.00    +0.147 HD
ENDROOT
BRANCH   1  21
ATOM     15  C   UNL     1       1.160   2.086   0.002  0.00  0.00    +0.001 A 
ATOM     16  C   UNL     1       2.375   1.415  -0.014  0.00  0.00    +0.002 A 
ATOM     17  C   UNL     1       2.417   0.038  -0.021  0.00  0.00    +0.026 A 
ATOM     18  C   UNL     1       1.230  -0.689  -0.013  0.00  0.00    +0.047 A 
ATOM     19  C   UNL     1       0.002  -0.004   0.002  0.00  0.00    +0.005 A 
ATOM     20  C   UNL     1      -0.017   1.392   0.010  0.00  0.00    +0.010 A 
ATOM     21  C   UNL     1      -1.037  -1.036   0.006  0.00  0.00    -0.002 A 
ATOM     22  C   UNL     1      -0.411  -2.224  -0.006  0.00  0.00    +0.089 A 
ATOM     23  N   UNL     1       0.944  -2.036  -0.018  0.00  0.00    -0.360 N 
ATOM     24  H   UNL     1       1.762  -2.772  -0.030  0.00  0.00    +0.165 HD
ENDBRANCH   1  21
BRANCH   9  25
ATOM     25  S   UNL     1      -3.172  -7.031  -2.471  0.00  0.00    +0.058 S 
ATOM     26  O   UNL     1      -3.895  -7.978  -1.697  0.00  0.00    -0.153 OA
ATOM     27  O   UNL     1      -3.539  -6.698  -3.803  0.00  0.00    -0.153 OA
BRANCH  25  28
ATOM     28  N   UNL     1      -1.606  -7.566  -2.532  0.00  0.00    -0.187 NA
ATOM     29  H   UNL     1      -1.038  -7.462  -3.468  0.00  0.00    +0.148 HD
BRANCH  28  30
ATOM     30  C   UNL     1      -0.921  -7.968  -1.300  0.00  0.00    +0.137 C 
BRANCH  30  31
ATOM     31  C   UNL     1       0.341  -8.757  -1.653  0.00  0.00    +0.134 C 
ATOM     32  C   UNL     1       1.065  -9.191  -0.364  0.00  0.00    +0.035 C 
ATOM     33  C   UNL     1       1.122 -10.735  -0.462  0.00  0.00    +0.031 C 
ATOM     34  C   UNL     1       0.936 -10.971  -1.983  0.00  0.00    +0.160 C 
ATOM     35  O   UNL     1      -0.013  -9.951  -2.371  0.00  0.00    -0.375 OA
ENDBRANCH  30  31
ENDBRANCH  28  30
ENDBRANCH  25  28
ENDBRANCH   9  25
TORSDOF 5
