REMARK  Name = ZINC09156262
REMARK  4 active torsions:
REMARK  status: ('A' for Active; 'I' for Inactive)
REMARK    1  A    between atoms: C_1  and  O_2
REMARK    2  A    between atoms: O_2  and  C_3
REMARK    3  A    between atoms: C_7  and  C_10
REMARK    4  A    between atoms: C_8  and  O_9
REMARK                            x       y       z     vdW  Elec       q    Type
REMARK                         _______ _______ _______ _____ _____    ______ ____
ROOT
ATOM      1  C   UNL     1       1.607   3.204  -0.015  0.00  0.00    +0.212 C 
ATOM      2  N   UNL     1       0.344   3.776   0.484  0.00  0.00    -0.293 N 
ATOM      3  C   UNL     1      -0.848   3.180   0.169  0.00  0.00    +0.183 C 
ATOM      4  N   UNL     1      -0.933   1.877  -0.039  0.00  0.00    -0.183 NA
ATOM      5  C   UNL     1       0.204   1.143   0.002  0.00  0.00    +0.236 A 
ATOM      6  N   UNL     1       1.448   1.745   0.017  0.00  0.00    -0.285 N 
ATOM      7  C   UNL     1       2.395   0.749   0.053  0.00  0.00    +0.076 A 
ATOM      8  C   UNL     1       3.784   0.733   0.084  0.00  0.00    +0.077 A 
ATOM      9  C   UNL     1       4.457  -0.473   0.107  0.00  0.00    +0.164 A 
ATOM     10  C   UNL     1       3.754  -1.675   0.103  0.00  0.00    +0.164 A 
ATOM     11  C   UNL     1       2.375  -1.677   0.075  0.00  0.00    +0.079 A 
ATOM     12  C   UNL     1       1.680  -0.463   0.050  0.00  0.00    +0.095 A 
ATOM     13  N   UNL     1       0.354  -0.155   0.018  0.00  0.00    -0.210 NA
ATOM     14  O   UNL     1       4.439  -2.856   0.123  0.00  0.00    -0.488 OA
ATOM     15  C   UNL     1       5.143  -3.150   1.331  0.00  0.00    +0.232 C 
ATOM     16  C   UNL     1       6.511  -2.487   1.334  0.00  0.00    +0.082 C 
ATOM     17  C   UNL     1       6.419  -0.969   1.340  0.00  0.00    +0.232 C 
ATOM     18  O   UNL     1       5.823  -0.493   0.132  0.00  0.00    -0.488 OA
ATOM     19  N   UNL     1      -1.975   3.949   0.065  0.00  0.00    -0.331 N 
ATOM     20  H   UNL     1       0.357   4.574   1.036  0.00  0.00    +0.151 HD
ATOM     21  H   UNL     1      -1.924   4.907   0.215  0.00  0.00    +0.145 HD
ATOM     22  H   UNL     1      -2.825   3.538  -0.158  0.00  0.00    +0.145 HD
ENDROOT
BRANCH   1  27
ATOM     23  C   UNL     1       2.598   5.354  -2.969  0.00  0.00    +0.162 A 
ATOM     24  C   UNL     1       2.322   4.503  -4.028  0.00  0.00    +0.049 A 
ATOM     25  C   UNL     1       1.817   3.240  -3.786  0.00  0.00    +0.004 A 
ATOM     26  C   UNL     1       1.591   2.819  -2.489  0.00  0.00    +0.011 A 
ATOM     27  C   UNL     1       1.859   3.664  -1.428  0.00  0.00    +0.038 A 
ATOM     28  C   UNL     1       2.366   4.932  -1.663  0.00  0.00    +0.165 A 
BRANCH  23  30
ATOM     29  C   UNL     1       3.309   6.962  -4.570  0.00  0.00    +0.277 C 
ATOM     30  O   UNL     1       3.095   6.597  -3.205  0.00  0.00    -0.491 OA
ENDBRANCH  23  30
BRANCH  28  31
ATOM     31  O   UNL     1       2.635   5.763  -0.621  0.00  0.00    -0.503 OA
ATOM     32  H   UNL     1       3.554   5.733  -0.321  0.00  0.00    +0.292 HD
ENDBRANCH  28  31
ENDBRANCH   1  27
TORSDOF 3
