REMARK  Name = ZINC05854640
REMARK  10 active torsions:
REMARK  status: ('A' for Active; 'I' for Inactive)
REMARK    1  A    between atoms: C_1  and  C_2
REMARK    2  A    between atoms: C_2  and  C_24
REMARK    3  A    between atoms: C_3  and  C_4
REMARK    4  A    between atoms: C_4  and  C_5
REMARK    5  A    between atoms: C_7  and  C_13
REMARK    6  A    between atoms: C_8  and  O_12
REMARK    7  A    between atoms: C_10  and  O_11
REMARK    8  A    between atoms: C_13  and  C_15
REMARK    9  A    between atoms: C_16  and  C_17
REMARK   10  A    between atoms: C_20  and  O_23
REMARK                            x       y       z     vdW  Elec       q    Type
REMARK                         _______ _______ _______ _____ _____    ______ ____
ROOT
ATOM      1  C   UNL     1       1.887   0.003  -0.748  0.00  0.00    -0.001 A 
ATOM      2  C   UNL     1       0.760  -0.683  -1.138  0.00  0.00    +0.022 A 
ATOM      3  C   UNL     1      -0.400   0.018  -1.482  0.00  0.00    +0.064 A 
ATOM      4  C   UNL     1      -0.408   1.421  -1.426  0.00  0.00    +0.131 A 
ATOM      5  C   UNL     1       0.731   2.099  -1.031  0.00  0.00    +0.091 A 
ATOM      6  C   UNL     1       1.877   1.394  -0.693  0.00  0.00    +0.124 A 
ENDROOT
BRANCH   6   7
ATOM      7  O   UNL     1       2.993   2.063  -0.307  0.00  0.00    -0.506 OA
ATOM      8  H   UNL     1       3.587   2.291  -1.036  0.00  0.00    +0.292 HD
ENDBRANCH   6   7
BRANCH   4   9
ATOM      9  O   UNL     1      -1.528   2.109  -1.762  0.00  0.00    -0.506 OA
ATOM     10  H   UNL     1      -2.127   2.273  -1.021  0.00  0.00    +0.292 HD
ENDBRANCH   4   9
BRANCH   3  11
ATOM     11  C   UNL     1      -1.610  -0.713  -1.900  0.00  0.00    +0.190 C 
ATOM     12  O   UNL     1      -2.620  -0.100  -2.199  0.00  0.00    -0.287 OA
BRANCH  11  13
ATOM     13  C   UNL     1      -1.598  -2.174  -1.958  0.00  0.00    +0.052 C 
ATOM     14  C   UNL     1      -2.707  -2.844  -2.341  0.00  0.00    +0.012 C 
BRANCH  14  15
ATOM     15  C   UNL     1      -2.695  -4.312  -2.399  0.00  0.00    -0.025 A 
ATOM     16  C   UNL     1      -1.534  -5.019  -2.063  0.00  0.00    +0.011 A 
ATOM     17  C   UNL     1      -1.530  -6.394  -2.113  0.00  0.00    +0.046 A 
ATOM     18  C   UNL     1      -2.672  -7.081  -2.508  0.00  0.00    +0.117 A 
ATOM     19  C   UNL     1      -3.826  -6.384  -2.849  0.00  0.00    +0.046 A 
ATOM     20  C   UNL     1      -3.843  -5.009  -2.796  0.00  0.00    +0.011 A 
BRANCH  18  21
ATOM     21  O   UNL     1      -2.661  -8.438  -2.562  0.00  0.00    -0.507 OA
ATOM     22  H   UNL     1      -2.388  -8.795  -3.418  0.00  0.00    +0.292 HD
ENDBRANCH  18  21
ENDBRANCH  14  15
ENDBRANCH  11  13
ENDBRANCH   3  11
BRANCH   1  23
ATOM     23  C   UNL     1       3.136  -0.754  -0.378  0.00  0.00    +0.066 C 
BRANCH  23  26
ATOM     24  C   UNL     1       4.287  -3.160  -1.297  0.00  0.00    +0.038 C 
ATOM     25  C   UNL     1       4.578  -1.863  -2.007  0.00  0.00    -0.079 C 
ATOM     26  C   UNL     1       4.096  -0.738  -1.540  0.00  0.00    -0.023 C 
ATOM     27  C   UNL     1       5.425  -1.859  -3.254  0.00  0.00    +0.038 C 
ENDBRANCH  23  26
ENDBRANCH   1  23
TORSDOF 8
