REMARK  Name = ZINC04038108
REMARK  5 active torsions:
REMARK  status: ('A' for Active; 'I' for Inactive)
REMARK    1  A    between atoms: C_10  and  C_11
REMARK    2  A    between atoms: C_18  and  C_20
REMARK    3  A    between atoms: C_20  and  O_21
REMARK    4  A    between atoms: C_23  and  N_27
REMARK    5  A    between atoms: C_24  and  C_25
REMARK                            x       y       z     vdW  Elec       q    Type
REMARK                         _______ _______ _______ _____ _____    ______ ____
ROOT
ATOM      1  C   UNL     1       1.250  -2.149  -0.019  0.00  0.00    +0.135 C 
ATOM      2  C   UNL     1       1.184  -0.644  -0.012  0.00  0.00    +0.164 A 
ATOM      3  C   UNL     1      -0.006  -0.009   0.002  0.00  0.00    +0.215 A 
ATOM      4  C   UNL     1      -0.031   1.415   0.012  0.00  0.00    +0.228 A 
ATOM      5  O   UNL     1      -1.091   2.023   0.019  0.00  0.00    -0.284 OA
ATOM      6  C   UNL     1       1.205   2.107   0.006  0.00  0.00    +0.098 A 
ATOM      7  C   UNL     1       2.349   1.395  -0.009  0.00  0.00    +0.134 A 
ATOM      8  O   UNL     1       2.330   0.059  -0.018  0.00  0.00    -0.457 OA
ATOM      9  O   UNL     1      -1.177  -0.693   0.008  0.00  0.00    -0.434 OA
ATOM     10  C   UNL     1      -1.205  -1.977  -0.389  0.00  0.00    +0.199 C 
ATOM     11  C   UNL     1      -0.076  -2.728  -0.424  0.00  0.00    +0.101 C 
ENDROOT
BRANCH   1  21
ATOM     12  C   UNL     1       4.888  -5.152   1.968  0.00  0.00    +0.001 A 
ATOM     13  C   UNL     1       4.576  -4.709   0.684  0.00  0.00    +0.001 A 
ATOM     14  C   UNL     1       3.511  -3.890   0.465  0.00  0.00    +0.009 A 
ATOM     15  C   UNL     1       2.712  -3.484   1.548  0.00  0.00    -0.014 A 
ATOM     16  C   UNL     1       3.029  -3.935   2.853  0.00  0.00    -0.018 A 
ATOM     17  C   UNL     1       4.137  -4.780   3.040  0.00  0.00    +0.008 A 
ATOM     18  C   UNL     1       2.230  -3.530   3.936  0.00  0.00    +0.008 A 
ATOM     19  C   UNL     1       1.165  -2.711   3.717  0.00  0.00    +0.001 A 
ATOM     20  C   UNL     1       0.856  -2.264   2.434  0.00  0.00    +0.005 A 
ATOM     21  C   UNL     1       1.604  -2.640   1.361  0.00  0.00    -0.024 A 
ENDBRANCH   1  21
BRANCH  10  22
ATOM     22  N   UNL     1      -2.399  -2.539  -0.766  0.00  0.00    -0.328 N 
ATOM     23  H   UNL     1      -2.430  -3.465  -1.053  0.00  0.00    +0.145 HD
ATOM     24  H   UNL     1      -3.212  -2.010  -0.744  0.00  0.00    +0.145 HD
ENDBRANCH  10  22
BRANCH  11  25
ATOM     25  C   UNL     1      -0.150  -4.092  -0.853  0.00  0.00    +0.101 C 
ATOM     26  N   UNL     1      -0.208  -5.174  -1.194  0.00  0.00    -0.191 NA
ENDBRANCH  11  25
BRANCH   7  27
ATOM     27  C   UNL     1       3.672   2.117  -0.015  0.00  0.00    +0.230 C 
BRANCH  27  28
ATOM     28  O   UNL     1       4.101   2.336   1.330  0.00  0.00    -0.387 OA
ATOM     29  H   UNL     1       4.948   2.798   1.403  0.00  0.00    +0.210 HD
ENDBRANCH  27  28
ENDBRANCH   7  27
TORSDOF 5
