REMARK  Name = ZINC67158786
REMARK  4 active torsions:
REMARK  status: ('A' for Active; 'I' for Inactive)
REMARK    1  A    between atoms: C_1  and  C_2
REMARK    2  A    between atoms: C_9  and  C_11
REMARK    3  A    between atoms: C_18  and  C_20
REMARK    4  A    between atoms: C_20  and  C_21
REMARK                            x       y       z     vdW  Elec       q    Type
REMARK                         _______ _______ _______ _____ _____    ______ ____
ROOT
ATOM      1  C   UNL     1       0.090  -5.594   2.249  0.00  0.00    +0.072 C 
ATOM      2  C   UNL     1      -0.730  -5.505   3.538  0.00  0.00    +0.014 C 
ATOM      3  C   UNL     1      -0.736  -6.867   4.236  0.00  0.00    +0.020 C 
ATOM      4  C   UNL     1       0.701  -7.254   4.603  0.00  0.00    +0.108 C 
ATOM      5  N   UNL     1       1.529  -7.200   3.391  0.00  0.00    -0.301 N 
ATOM      6  C   UNL     1       1.536  -5.966   2.593  0.00  0.00    +0.119 C 
ATOM      7  C   UNL     1       2.269  -8.263   3.018  0.00  0.00    +0.216 C 
ATOM      8  O   UNL     1       2.949  -8.206   2.015  0.00  0.00    -0.276 OA
ENDROOT
BRANCH   1  17
ATOM      9  C   UNL     1      -0.018   1.503   0.010  0.00  0.00    +0.044 C 
ATOM     10  C   UNL     1       0.002  -0.004   0.002  0.00  0.00    -0.048 A 
ATOM     11  C   UNL     1       0.006  -0.687  -1.206  0.00  0.00    +0.005 A 
ATOM     12  C   UNL     1       0.024  -2.052  -1.235  0.00  0.00    +0.030 A 
ATOM     13  C   UNL     1       0.040  -2.774  -0.039  0.00  0.00    +0.089 A 
ATOM     14  C   UNL     1       0.037  -2.083   1.185  0.00  0.00    +0.066 A 
ATOM     15  C   UNL     1       0.023  -0.695   1.195  0.00  0.00    +0.031 A 
ATOM     16  N   UNL     1       0.055  -3.051   2.169  0.00  0.00    -0.342 N 
ATOM     17  C   UNL     1       0.068  -4.261   1.546  0.00  0.00    +0.113 A 
ATOM     18  N   UNL     1       0.059  -4.099   0.255  0.00  0.00    -0.232 NA
ATOM     19  H   UNL     1       0.058  -2.898   3.127  0.00  0.00    +0.167 HD
ENDBRANCH   1  17
BRANCH   7  20
ATOM     20  C   UNL     1       2.252  -9.522   3.846  0.00  0.00    +0.101 C 
BRANCH  20  21
ATOM     21  C   UNL     1       3.170 -10.566   3.207  0.00  0.00    +0.020 C 
ATOM     22  C   UNL     1       2.594 -11.003   1.850  0.00  0.00    +0.028 C 
ATOM     23  C   UNL     1       3.327 -12.271   1.350  0.00  0.00    +0.166 C 
ATOM     24  S   UNL     1       3.854 -13.078   2.916  0.00  0.00    -0.031 S 
ATOM     25  O   UNL     1       5.273 -13.122   2.959  0.00  0.00    -0.174 OA
ATOM     26  O   UNL     1       3.111 -14.276   3.092  0.00  0.00    -0.174 OA
ATOM     27  C   UNL     1       3.257 -11.820   4.123  0.00  0.00    +0.170 C 
ENDBRANCH  20  21
ENDBRANCH   7  20
TORSDOF 3
