REMARK  Name = ZINC38658081
REMARK  10 active torsions:
REMARK  status: ('A' for Active; 'I' for Inactive)
REMARK    1  A    between atoms: C_2  and  C_3
REMARK    2  A    between atoms: C_3  and  O_4
REMARK    3  A    between atoms: O_4  and  C_5
REMARK    4  A    between atoms: C_8  and  C_11
REMARK    5  A    between atoms: C_16  and  O_25
REMARK    6  A    between atoms: C_20  and  N_24
REMARK    7  A    between atoms: C_21  and  C_22
REMARK    8  A    between atoms: O_25  and  C_26
REMARK    9  A    between atoms: C_26  and  C_28
REMARK   10  A    between atoms: C_31  and  N_34
REMARK                            x       y       z     vdW  Elec       q    Type
REMARK                         _______ _______ _______ _____ _____    ______ ____
ROOT
ATOM      1  C   UNL     1       5.871  -4.972   1.339  0.00  0.00    +0.098 C 
ATOM      2  C   UNL     1       5.540  -6.404   1.009  0.00  0.00    +0.008 A 
ATOM      3  C   UNL     1       5.282  -6.758  -0.303  0.00  0.00    +0.012 A 
ATOM      4  C   UNL     1       4.977  -8.065  -0.624  0.00  0.00    +0.047 A 
ATOM      5  C   UNL     1       4.928  -9.031   0.372  0.00  0.00    +0.135 A 
ATOM      6  C   UNL     1       5.185  -8.679   1.687  0.00  0.00    +0.093 A 
ATOM      7  C   UNL     1       5.492  -7.363   2.008  0.00  0.00    +0.138 A 
ATOM      8  O   UNL     1       5.740  -7.036   3.300  0.00  0.00    -0.441 OA
ATOM      9  C   UNL     1       6.402  -5.902   3.588  0.00  0.00    +0.199 C 
ATOM     10  C   UNL     1       6.499  -4.888   2.702  0.00  0.00    +0.098 C 
ENDROOT
BRANCH   1  14
ATOM     11  C   UNL     1       2.289  -2.642   1.283  0.00  0.00    +0.121 A 
ATOM     12  C   UNL     1       3.331  -2.336   0.419  0.00  0.00    +0.046 A 
ATOM     13  C   UNL     1       4.488  -3.090   0.440  0.00  0.00    +0.008 A 
ATOM     14  C   UNL     1       4.608  -4.150   1.319  0.00  0.00    -0.034 A 
ATOM     15  C   UNL     1       3.571  -4.458   2.181  0.00  0.00    +0.008 A 
ATOM     16  C   UNL     1       2.415  -3.702   2.169  0.00  0.00    +0.046 A 
BRANCH  11  17
ATOM     17  O   UNL     1       1.150  -1.901   1.266  0.00  0.00    -0.488 OA
BRANCH  17  18
ATOM     18  C   UNL     1       1.091  -0.824   0.328  0.00  0.00    +0.256 C 
BRANCH  18  20
ATOM     19  C   UNL     1      -0.285   1.187   0.473  0.00  0.00    +0.007 C 
ATOM     20  C   UNL     1      -0.236  -0.122   0.453  0.00  0.00    +0.006 C 
ENDBRANCH  18  20
ENDBRANCH  17  18
ENDBRANCH  11  17
ENDBRANCH   1  14
BRANCH   9  21
ATOM     21  N   UNL     1       6.994  -5.772   4.820  0.00  0.00    -0.328 N 
ATOM     22  H   UNL     1       6.931  -6.492   5.467  0.00  0.00    +0.145 HD
ATOM     23  H   UNL     1       7.475  -4.960   5.043  0.00  0.00    +0.145 HD
ENDBRANCH   9  21
BRANCH  10  24
ATOM     24  C   UNL     1       7.218  -3.706   3.071  0.00  0.00    +0.101 C 
ATOM     25  N   UNL     1       7.788  -2.768   3.364  0.00  0.00    -0.191 NA
ENDBRANCH  10  24
BRANCH   5  26
ATOM     26  O   UNL     1       4.627 -10.318   0.058  0.00  0.00    -0.422 OA
BRANCH  26  27
ATOM     27  C   UNL     1       5.531 -11.025  -0.648  0.00  0.00    +0.344 C 
ATOM     28  O   UNL     1       6.619 -10.545  -0.894  0.00  0.00    -0.245 OA
BRANCH  27  29
ATOM     29  C   UNL     1       5.199 -12.384  -1.123  0.00  0.00    +0.060 A 
ATOM     30  C   UNL     1       3.947 -12.937  -0.846  0.00  0.00    +0.017 A 
ATOM     31  C   UNL     1       3.643 -14.206  -1.293  0.00  0.00    +0.033 A 
ATOM     32  C   UNL     1       4.576 -14.931  -2.012  0.00  0.00    +0.126 A 
ATOM     33  C   UNL     1       5.819 -14.390  -2.289  0.00  0.00    +0.033 A 
ATOM     34  C   UNL     1       6.133 -13.119  -1.855  0.00  0.00    +0.017 A 
BRANCH  32  35
ATOM     35  N   UNL     1       4.244 -16.293  -2.487  0.00  0.00    +0.056 N 
ATOM     36  O   UNL     1       3.159 -16.770  -2.246  0.00  0.00    -0.126 OA
ATOM     37  O   UNL     1       5.057 -16.930  -3.116  0.00  0.00    -0.126 OA
ENDBRANCH  32  35
ENDBRANCH  27  29
ENDBRANCH  26  27
ENDBRANCH   5  26
TORSDOF 10
