REMARK  Name = ZINC02772129
REMARK  12 active torsions:
REMARK  status: ('A' for Active; 'I' for Inactive)
REMARK    1  A    between atoms: C_1  and  C_2
REMARK    2  A    between atoms: C_2  and  C_3
REMARK    3  A    between atoms: C_3  and  O_4
REMARK    4  A    between atoms: O_4  and  C_5
REMARK    5  A    between atoms: C_5  and  C_7
REMARK    6  A    between atoms: C_8  and  C_37
REMARK    7  A    between atoms: C_12  and  C_14
REMARK    8  A    between atoms: C_24  and  C_27
REMARK    9  A    between atoms: C_30  and  O_35
REMARK   10  A    between atoms: C_31  and  O_33
REMARK   11  A    between atoms: O_33  and  C_34
REMARK   12  A    between atoms: O_35  and  C_36
REMARK                            x       y       z     vdW  Elec       q    Type
REMARK                         _______ _______ _______ _____ _____    ______ ____
ROOT
ATOM      1  C   UNL     1      -2.696  -4.020  -0.216  0.00  0.00    +0.065 C 
ATOM      2  C   UNL     1      -3.854  -4.619   0.111  0.00  0.00    +0.016 C 
ATOM      3  N   UNL     1      -3.900  -5.968   0.323  0.00  0.00    -0.321 N 
ATOM      4  C   UNL     1      -2.913  -6.784  -0.163  0.00  0.00    +0.016 C 
ATOM      5  C   UNL     1      -1.708  -6.277  -0.499  0.00  0.00    +0.024 C 
ATOM      6  C   UNL     1      -1.425  -4.805  -0.353  0.00  0.00    +0.094 C 
ATOM      7  C   UNL     1      -0.685  -7.104  -0.995  0.00  0.00    +0.162 C 
ATOM      8  O   UNL     1       0.382  -6.612  -1.304  0.00  0.00    -0.292 OA
ATOM      9  C   UNL     1      -0.888  -8.586  -1.150  0.00  0.00    +0.088 C 
ATOM     10  C   UNL     1      -1.917  -9.059  -0.117  0.00  0.00    +0.032 C 
ATOM     11  C   UNL     1      -3.205  -8.256  -0.314  0.00  0.00    +0.059 C 
ATOM     12  C   UNL     1      -5.110  -3.797   0.243  0.00  0.00    +0.061 C 
ATOM     13  H   UNL     1      -4.638  -6.352   0.822  0.00  0.00    +0.152 HD
ENDROOT
BRANCH   6  14
ATOM     14  C   UNL     1      -0.574  -4.589   0.872  0.00  0.00    -0.017 A 
ATOM     15  C   UNL     1      -1.054  -4.947   2.118  0.00  0.00    +0.006 A 
ATOM     16  C   UNL     1      -0.275  -4.748   3.242  0.00  0.00    +0.000 A 
ATOM     17  C   UNL     1       0.986  -4.192   3.121  0.00  0.00    +0.001 A 
ATOM     18  C   UNL     1       1.466  -3.834   1.876  0.00  0.00    +0.020 A 
ATOM     19  C   UNL     1       0.689  -4.037   0.750  0.00  0.00    +0.045 A 
ATOM     20 CL   UNL     1       1.294  -3.594  -0.816  0.00  0.00    -0.083 Cl
ENDBRANCH   6  14
BRANCH  10  21
ATOM     21  C   UNL     1      -2.195 -10.527  -0.315  0.00  0.00    -0.040 A 
ATOM     22  C   UNL     1      -2.697 -10.978  -1.522  0.00  0.00    +0.008 A 
ATOM     23  C   UNL     1      -2.953 -12.323  -1.708  0.00  0.00    +0.049 A 
ATOM     24  C   UNL     1      -2.707 -13.224  -0.684  0.00  0.00    +0.161 A 
ATOM     25  C   UNL     1      -2.202 -12.770   0.531  0.00  0.00    +0.162 A 
ATOM     26  C   UNL     1      -1.943 -11.421   0.709  0.00  0.00    +0.053 A 
BRANCH  25  27
ATOM     27  O   UNL     1      -1.959 -13.650   1.539  0.00  0.00    -0.491 OA
ATOM     28  C   UNL     1      -1.441 -13.113   2.757  0.00  0.00    +0.277 C 
ENDBRANCH  25  27
BRANCH  24  29
ATOM     29  O   UNL     1      -2.959 -14.548  -0.865  0.00  0.00    -0.491 OA
ATOM     30  C   UNL     1      -3.478 -14.941  -2.138  0.00  0.00    +0.277 C 
ENDBRANCH  24  29
ENDBRANCH  10  21
BRANCH   1  31
ATOM     31  C   UNL     1      -2.676  -2.623  -0.439  0.00  0.00    +0.338 C 
ATOM     32  O   UNL     1      -3.718  -1.995  -0.456  0.00  0.00    -0.245 OA
BRANCH  31  33
ATOM     33  O   UNL     1      -1.502  -1.987  -0.633  0.00  0.00    -0.461 OA
BRANCH  33  34
ATOM     34  C   UNL     1      -1.557  -0.576  -0.853  0.00  0.00    +0.232 C 
BRANCH  34  36
ATOM     35  C   UNL     1      -0.198   1.475  -1.286  0.00  0.00    +0.007 C 
ATOM     36  C   UNL     1      -0.139  -0.035  -1.051  0.00  0.00    +0.038 C 
ENDBRANCH  34  36
ENDBRANCH  33  34
ENDBRANCH  31  33
ENDBRANCH   1  31
TORSDOF 8
