REMARK  Name = ZINC52565255
REMARK  6 active torsions:
REMARK  status: ('A' for Active; 'I' for Inactive)
REMARK    1  A    between atoms: C_4  and  C_7
REMARK    2  A    between atoms: C_7  and  C_9
REMARK    3  A    between atoms: C_7  and  N_11
REMARK    4  A    between atoms: C_9  and  N_10
REMARK    5  A    between atoms: C_12  and  C_14
REMARK    6  A    between atoms: C_18  and  C_20
REMARK                            x       y       z     vdW  Elec       q    Type
REMARK                         _______ _______ _______ _____ _____    ______ ____
ROOT
ATOM      1  N   UNL     1       3.630  -1.873   0.845  0.00  0.00    -0.309 N 
ATOM      2  C   UNL     1       4.751  -2.385   1.391  0.00  0.00    +0.227 C 
ATOM      3  O   UNL     1       5.828  -1.880   1.151  0.00  0.00    -0.275 OA
ATOM      4  H   UNL     1       2.769  -2.277   1.038  0.00  0.00    +0.149 HD
ENDROOT
BRANCH   2   5
ATOM      5  C   UNL     1       4.668  -3.585   2.299  0.00  0.00    +0.141 C 
ATOM      6  C   UNL     1       5.790  -3.565   3.369  0.00  0.00    +0.052 C 
ATOM      7  C   UNL     1       6.312  -4.942   3.621  0.00  0.00    -0.010 C 
ATOM      8  C   UNL     1       6.085  -5.907   2.708  0.00  0.00    +0.010 C 
ATOM      9  S   UNL     1       5.130  -5.133   1.414  0.00  0.00    -0.112 S 
BRANCH   8  10
ATOM     10  C   UNL     1       6.515  -7.254   2.763  0.00  0.00    -0.005 C 
ATOM     11  C   UNL     1       6.287  -8.247   1.820  0.00  0.00    +0.023 A 
ATOM     12  C   UNL     1       5.603  -8.255   0.582  0.00  0.00    +0.013 A 
ATOM     13  C   UNL     1       5.558  -9.421  -0.122  0.00  0.00    +0.020 A 
ATOM     14  C   UNL     1       6.172 -10.572   0.371  0.00  0.00    +0.113 A 
ATOM     15  N   UNL     1       6.812 -10.598   1.512  0.00  0.00    -0.238 NA
ATOM     16  C   UNL     1       6.916  -9.497   2.286  0.00  0.00    +0.135 A 
ATOM     17  N   UNL     1       7.504  -9.307   3.447  0.00  0.00    -0.365 N 
ATOM     18  C   UNL     1       7.326  -7.912   3.858  0.00  0.00    +0.151 C 
ATOM     19  H   UNL     1       7.984  -9.984   3.950  0.00  0.00    +0.161 HD
ENDBRANCH   8  10
ENDBRANCH   2   5
BRANCH   1  20
ATOM     20  C   UNL     1       3.711  -0.707  -0.038  0.00  0.00    +0.086 C 
BRANCH  20  24
ATOM     21  C   UNL     1      -0.017   1.378   0.010  0.00  0.00    +0.000 A 
ATOM     22  C   UNL     1       1.171   2.086   0.002  0.00  0.00    +0.000 A 
ATOM     23  C   UNL     1       2.377   1.411  -0.013  0.00  0.00    +0.005 A 
ATOM     24  C   UNL     1       2.396   0.029  -0.020  0.00  0.00    -0.029 A 
ATOM     25  C   UNL     1       1.208  -0.679  -0.012  0.00  0.00    +0.005 A 
ATOM     26  C   UNL     1       0.002  -0.004   0.002  0.00  0.00    +0.000 A 
ENDBRANCH  20  24
BRANCH  20  27
ATOM     27  C   UNL     1       4.019  -1.168  -1.464  0.00  0.00    -0.059 C 
BRANCH  27  28
ATOM     28  N   UNL     1       5.239  -1.986  -1.461  0.00  0.00    +0.380 N 
ATOM     29  H   UNL     1       5.442  -2.290  -2.402  0.00  0.00    -0.090 HD
ATOM     30  H   UNL     1       6.011  -1.439  -1.111  0.00  0.00    -0.090 HD
ATOM     31  H   UNL     1       5.102  -2.792  -0.870  0.00  0.00    -0.090 HD
ENDBRANCH  27  28
ENDBRANCH  20  27
ENDBRANCH   1  20
TORSDOF 6
