REMARK  Name = ZINC57371934
REMARK  7 active torsions:
REMARK  status: ('A' for Active; 'I' for Inactive)
REMARK    1  A    between atoms: C_1  and  C_2
REMARK    2  A    between atoms: C_2  and  N_3
REMARK    3  A    between atoms: C_6  and  N_9
REMARK    4  A    between atoms: N_9  and  C_10
REMARK    5  A    between atoms: C_13  and  C_15
REMARK    6  A    between atoms: N_18  and  C_20
REMARK    7  A    between atoms: C_23  and  C_26
REMARK                            x       y       z     vdW  Elec       q    Type
REMARK                         _______ _______ _______ _____ _____    ______ ____
ROOT
ATOM      1  N   UNL     1       2.483  -1.475   5.691  0.00  0.00    -0.290 N 
ATOM      2  C   UNL     1       3.581  -1.508   4.910  0.00  0.00    +0.267 C 
ATOM      3  O   UNL     1       4.461  -2.317   5.132  0.00  0.00    -0.268 OA
ENDROOT
BRANCH   2   4
ATOM      4  C   UNL     1       3.716  -0.561   3.785  0.00  0.00    +0.151 A 
ATOM      5  C   UNL     1       4.875  -0.339   3.006  0.00  0.00    +0.006 A 
ATOM      6  C   UNL     1       4.535   0.603   2.101  0.00  0.00    +0.049 A 
ATOM      7  N   UNL     1       3.234   0.926   2.332  0.00  0.00    -0.236 N 
ATOM      8  N   UNL     1       2.775   0.234   3.312  0.00  0.00    -0.161 NA
ATOM      9  C   UNL     1       5.715   0.917   1.208  0.00  0.00    +0.056 C 
ATOM     10  C   UNL     1       6.945   0.357   1.956  0.00  0.00    +0.011 C 
ATOM     11  C   UNL     1       6.313  -0.758   2.820  0.00  0.00    +0.040 C 
BRANCH   7  12
ATOM     12  C   UNL     1       2.500   1.872   1.604  0.00  0.00    +0.066 A 
ATOM     13  C   UNL     1       2.957   3.179   1.502  0.00  0.00    +0.028 A 
ATOM     14  C   UNL     1       2.232   4.109   0.783  0.00  0.00    +0.005 A 
ATOM     15  C   UNL     1       1.051   3.739   0.165  0.00  0.00    -0.050 A 
ATOM     16  C   UNL     1       0.593   2.438   0.265  0.00  0.00    +0.005 A 
ATOM     17  C   UNL     1       1.317   1.502   0.978  0.00  0.00    +0.028 A 
ATOM     18  C   UNL     1       0.262   4.756  -0.618  0.00  0.00    +0.044 C 
ENDBRANCH   7  12
ENDBRANCH   2   4
BRANCH   1  22
ATOM     19  N   UNL     1       0.235   1.363   3.533  0.00  0.00    +0.380 N 
ATOM     20  C   UNL     1       0.642   1.739   4.893  0.00  0.00    -0.077 C 
ATOM     21  C   UNL     1       1.803   0.851   5.345  0.00  0.00    +0.004 C 
ATOM     22  C   UNL     1       1.354  -0.613   5.332  0.00  0.00    +0.073 C 
ATOM     23  C   UNL     1       0.862  -0.973   3.927  0.00  0.00    +0.004 C 
ATOM     24  C   UNL     1      -0.264  -0.017   3.526  0.00  0.00    -0.077 C 
ATOM     25  H   UNL     1       1.029   1.436   2.914  0.00  0.00    -0.082 HD
BRANCH  19  27
ATOM     26  C   UNL     1      -0.258   3.680   2.911  0.00  0.00    -0.017 C 
ATOM     27  C   UNL     1      -0.826   2.269   3.074  0.00  0.00    -0.082 C 
ENDBRANCH  19  27
ENDBRANCH   1  22
BRANCH   1  28
ATOM     28  C   UNL     1       2.418  -2.302   6.899  0.00  0.00    +0.077 C 
ATOM     29  C   UNL     1       3.728  -2.898   7.418  0.00  0.00    +0.024 C 
ATOM     30  C   UNL     1       2.690  -3.799   6.745  0.00  0.00    +0.024 C 
ENDBRANCH   1  28
TORSDOF 5
