REMARK  Name = ZINC55065831
REMARK  7 active torsions:
REMARK  status: ('A' for Active; 'I' for Inactive)
REMARK    1  A    between atoms: C_1  and  C_2
REMARK    2  A    between atoms: C_2  and  C_3
REMARK    3  A    between atoms: C_3  and  C_5
REMARK    4  A    between atoms: C_3  and  N_6
REMARK    5  A    between atoms: N_9  and  S_12
REMARK    6  A    between atoms: S_12  and  C_15
REMARK    7  A    between atoms: C_18  and  N_22
REMARK                            x       y       z     vdW  Elec       q    Type
REMARK                         _______ _______ _______ _____ _____    ______ ____
ROOT
ATOM      1  S   UNL     1      -2.209  -1.056  -6.133  0.00  0.00    +0.062 S 
ATOM      2  O   UNL     1      -1.161  -1.598  -6.926  0.00  0.00    -0.153 OA
ATOM      3  O   UNL     1      -3.273  -1.852  -5.630  0.00  0.00    -0.153 OA
ENDROOT
BRANCH   1   4
ATOM      4  C   UNL     1      -2.948   0.230  -7.085  0.00  0.00    +0.119 A 
ATOM      5  C   UNL     1      -2.485   0.498  -8.360  0.00  0.00    +0.031 A 
ATOM      6  C   UNL     1      -3.061   1.505  -9.108  0.00  0.00    +0.025 A 
ATOM      7  C   UNL     1      -4.108   2.249  -8.580  0.00  0.00    +0.026 A 
ATOM      8  C   UNL     1      -4.572   1.978  -7.299  0.00  0.00    +0.040 A 
ATOM      9  C   UNL     1      -3.994   0.965  -6.557  0.00  0.00    +0.046 A 
ATOM     10 BR   UNL     1      -4.629   0.589  -4.816  0.00  0.00    -0.048 Br
BRANCH   7  11
ATOM     11  N   UNL     1      -4.693   3.269  -9.334  0.00  0.00    -0.358 N 
ATOM     12  H   UNL     1      -4.368   3.458 -10.229  0.00  0.00    +0.142 HD
ATOM     13  H   UNL     1      -5.424   3.788  -8.964  0.00  0.00    +0.142 HD
ENDBRANCH   7  11
ENDBRANCH   1   4
BRANCH   1  17
ATOM     14  N   UNL     1      -0.057  -0.113  -2.444  0.00  0.00    -0.297 NA
ATOM     15  C   UNL     1      -1.397  -0.714  -2.415  0.00  0.00    +0.102 C 
ATOM     16  C   UNL     1      -2.232  -0.148  -3.568  0.00  0.00    +0.125 C 
ATOM     17  N   UNL     1      -1.490  -0.344  -4.823  0.00  0.00    -0.174 NA
ATOM     18  C   UNL     1      -0.092   0.111  -4.882  0.00  0.00    +0.125 C 
ATOM     19  C   UNL     1       0.659  -0.466  -3.677  0.00  0.00    +0.102 C 
BRANCH  14  20
ATOM     20  C   UNL     1       0.718  -0.497  -1.257  0.00  0.00    +0.053 C 
ATOM     21  C   UNL     1       0.849  -2.021  -1.205  0.00  0.00    +0.024 C 
BRANCH  20  23
ATOM     22  C   UNL     1      -0.019   1.526   0.010  0.00  0.00    +0.005 C 
ATOM     23  C   UNL     1       0.002  -0.004   0.002  0.00  0.00    +0.015 C 
ENDBRANCH  20  23
ENDBRANCH  14  20
ENDBRANCH   1  17
TORSDOF 5
