REMARK  Name = ZINC36598155
REMARK  18 active torsions:
REMARK  status: ('A' for Active; 'I' for Inactive)
REMARK    1  A    between atoms: C_1  and  C_2
REMARK    2  A    between atoms: C_2  and  C_3
REMARK    3  A    between atoms: C_3  and  C_4
REMARK    4  A    between atoms: C_4  and  N_5
REMARK    5  A    between atoms: C_6  and  C_8
REMARK    6  A    between atoms: C_8  and  C_10
REMARK    7  A    between atoms: C_8  and  N_19
REMARK    8  A    between atoms: C_13  and  O_18
REMARK    9  A    between atoms: C_14  and  O_16
REMARK   10  A    between atoms: O_16  and  C_17
REMARK   11  A    between atoms: N_19  and  C_20
REMARK   12  A    between atoms: C_20  and  C_21
REMARK   13  A    between atoms: C_24  and  C_26
REMARK   14  A    between atoms: C_27  and  C_29
REMARK   15  A    between atoms: C_29  and  C_30
REMARK   16  A    between atoms: C_30  and  C_31
REMARK   17  A    between atoms: C_34  and  O_37
REMARK   18  A    between atoms: O_37  and  C_38
REMARK                            x       y       z     vdW  Elec       q    Type
REMARK                         _______ _______ _______ _____ _____    ______ ____
ROOT
ATOM      1  N   UNL     1      -4.333  -5.592  -0.147  0.00  0.00    -0.279 N 
ATOM      2  C   UNL     1      -5.095  -6.179  -1.091  0.00  0.00    +0.217 C 
ATOM      3  O   UNL     1      -5.491  -5.534  -2.038  0.00  0.00    -0.276 OA
ENDROOT
BRANCH   1   4
ATOM      4  C   UNL     1      -3.983  -4.174  -0.266  0.00  0.00    +0.193 C 
BRANCH   4   5
ATOM      5  C   UNL     1      -5.240  -3.358  -0.424  0.00  0.00    -0.015 A 
ATOM      6  C   UNL     1      -6.348  -3.640   0.353  0.00  0.00    +0.010 A 
ATOM      7  C   UNL     1      -7.503  -2.894   0.212  0.00  0.00    +0.049 A 
ATOM      8  C   UNL     1      -7.553  -1.861  -0.711  0.00  0.00    +0.158 A 
ATOM      9  C   UNL     1      -6.437  -1.577  -1.493  0.00  0.00    +0.162 A 
ATOM     10  C   UNL     1      -5.281  -2.326  -1.343  0.00  0.00    +0.055 A 
BRANCH   9  11
ATOM     11  O   UNL     1      -6.481  -0.565  -2.400  0.00  0.00    -0.491 OA
ATOM     12  C   UNL     1      -5.299  -0.331  -3.168  0.00  0.00    +0.277 C 
ENDBRANCH   9  11
BRANCH   8  13
ATOM     13  O   UNL     1      -8.688  -1.127  -0.852  0.00  0.00    -0.503 OA
ATOM     14  H   UNL     1      -8.729  -0.350  -0.277  0.00  0.00    +0.292 HD
ENDBRANCH   8  13
ENDBRANCH   4   5
BRANCH   4  16
ATOM     15  N   UNL     1      -2.089  -3.057   0.867  0.00  0.00    -0.313 N 
ATOM     16  C   UNL     1      -3.250  -3.732   0.975  0.00  0.00    +0.238 C 
ATOM     17  O   UNL     1      -3.705  -3.985   2.070  0.00  0.00    -0.273 OA
ATOM     18  H   UNL     1      -1.725  -2.855  -0.009  0.00  0.00    +0.149 HD
BRANCH  15  19
ATOM     19  C   UNL     1      -1.377  -2.627   2.073  0.00  0.00    +0.104 C 
BRANCH  19  20
ATOM     20  C   UNL     1      -0.099  -1.887   1.673  0.00  0.00    +0.018 C 
BRANCH  20  22
ATOM     21  C   UNL     1       1.923  -0.698   2.534  0.00  0.00    +0.004 C 
ATOM     22  C   UNL     1       0.645  -1.438   2.933  0.00  0.00    -0.002 C 
ENDBRANCH  20  22
ENDBRANCH  19  20
ENDBRANCH  15  19
ENDBRANCH   4  16
ENDBRANCH   1   4
BRANCH   1  23
ATOM     23  C   UNL     1      -3.855  -6.371   0.998  0.00  0.00    +0.183 C 
BRANCH  23  24
ATOM     24  C   UNL     1      -4.948  -6.470   2.030  0.00  0.00    +0.122 A 
ATOM     25  C   UNL     1      -5.790  -7.507   2.188  0.00  0.00    +0.046 A 
ATOM     26  C   UNL     1      -6.645  -7.180   3.265  0.00  0.00    +0.045 A 
ATOM     27  C   UNL     1      -6.275  -5.962   3.701  0.00  0.00    +0.102 A 
ATOM     28  O   UNL     1      -5.243  -5.539   2.953  0.00  0.00    -0.463 OA
ATOM     29  C   UNL     1      -6.908  -5.203   4.838  0.00  0.00    +0.086 C 
ENDBRANCH  23  24
ENDBRANCH   1  23
BRANCH   2  30
ATOM     30  C   UNL     1      -5.455  -7.637  -0.969  0.00  0.00    +0.100 C 
BRANCH  30  31
ATOM     31  C   UNL     1      -6.320  -8.051  -2.161  0.00  0.00    +0.044 C 
BRANCH  31  32
ATOM     32  C   UNL     1      -6.680  -9.509  -2.039  0.00  0.00    -0.047 A 
ATOM     33  C   UNL     1      -5.856 -10.472  -2.591  0.00  0.00    +0.007 A 
ATOM     34  C   UNL     1      -6.184 -11.809  -2.481  0.00  0.00    +0.046 A 
ATOM     35  C   UNL     1      -7.341 -12.186  -1.816  0.00  0.00    +0.120 A 
ATOM     36  C   UNL     1      -8.167 -11.218  -1.262  0.00  0.00    +0.046 A 
ATOM     37  C   UNL     1      -7.831  -9.882  -1.370  0.00  0.00    +0.007 A 
BRANCH  35  38
ATOM     38  O   UNL     1      -7.667 -13.501  -1.706  0.00  0.00    -0.495 OA
ATOM     39  C   UNL     1      -8.873 -13.815  -1.008  0.00  0.00    +0.277 C 
ENDBRANCH  35  38
ENDBRANCH  31  32
ENDBRANCH  30  31
ENDBRANCH   2  30
TORSDOF 14
