REMARK  Name = ZINC03314478
REMARK  7 active torsions:
REMARK  status: ('A' for Active; 'I' for Inactive)
REMARK    1  A    between atoms: C_1  and  C_2
REMARK    2  A    between atoms: C_3  and  C_17
REMARK    3  A    between atoms: N_5  and  C_7
REMARK    4  A    between atoms: C_7  and  C_8
REMARK    5  A    between atoms: N_18  and  N_19
REMARK    6  A    between atoms: N_19  and  C_20
REMARK    7  A    between atoms: C_20  and  N_22
REMARK                            x       y       z     vdW  Elec       q    Type
REMARK                         _______ _______ _______ _____ _____    ______ ____
ROOT
ATOM      1  C   UNL     1      -0.649   1.292  -0.664  0.00  0.00    +0.068 C 
ATOM      2  C   UNL     1      -1.129   1.633   0.723  0.00  0.00    +0.070 A 
ATOM      3  C   UNL     1      -0.341   1.642   1.894  0.00  0.00    +0.054 A 
ATOM      4  C   UNL     1      -1.165   2.007   2.939  0.00  0.00    +0.136 A 
ATOM      5  N   UNL     1      -2.396   2.211   2.428  0.00  0.00    -0.248 N 
ATOM      6  N   UNL     1      -2.346   1.978   1.049  0.00  0.00    -0.174 NA
ATOM      7 CL   UNL     1      -0.703   2.172   4.604  0.00  0.00    -0.062 Cl
ENDROOT
BRANCH   3   8
ATOM      8  C   UNL     1       1.096   1.320   1.984  0.00  0.00    +0.143 C 
ATOM      9  N   UNL     1       1.701   1.367   3.130  0.00  0.00    -0.188 NA
BRANCH   9  10
ATOM     10  N   UNL     1       3.065   1.062   3.216  0.00  0.00    -0.219 N 
ATOM     11  H   UNL     1       3.558   0.815   2.418  0.00  0.00    +0.176 HD
BRANCH  10  12
ATOM     12  C   UNL     1       3.693   1.111   4.407  0.00  0.00    +0.147 C 
ATOM     13  S   UNL     1       5.361   0.738   4.512  0.00  0.00    -0.017 S 
BRANCH  12  14
ATOM     14  N   UNL     1       3.009   1.454   5.516  0.00  0.00    -0.339 N 
ATOM     15  H   UNL     1       2.064   1.666   5.457  0.00  0.00    +0.144 HD
ATOM     16  H   UNL     1       3.461   1.490   6.374  0.00  0.00    +0.144 HD
ENDBRANCH  12  14
ENDBRANCH  10  12
ENDBRANCH   9  10
ENDBRANCH   3   8
BRANCH   5  17
ATOM     17  C   UNL     1      -3.583   2.614   3.186  0.00  0.00    +0.183 C 
BRANCH  17  18
ATOM     18  C   UNL     1      -3.769   4.105   3.072  0.00  0.00    +0.011 A 
ATOM     19  C   UNL     1      -3.292   4.940   4.067  0.00  0.00    +0.047 A 
ATOM     20  C   UNL     1      -3.457   6.309   3.958  0.00  0.00    +0.020 A 
ATOM     21  C   UNL     1      -4.111   6.842   2.863  0.00  0.00    +0.003 A 
ATOM     22  C   UNL     1      -4.594   6.008   1.873  0.00  0.00    +0.020 A 
ATOM     23  C   UNL     1      -4.423   4.639   1.977  0.00  0.00    +0.047 A 
ATOM     24 CL   UNL     1      -5.029   3.591   0.732  0.00  0.00    -0.083 Cl
ATOM     25 CL   UNL     1      -2.477   4.270   5.446  0.00  0.00    -0.083 Cl
ENDBRANCH  17  18
ENDBRANCH   5  17
TORSDOF 6
