REMARK  Name = ZINC23544066
REMARK  5 active torsions:
REMARK  status: ('A' for Active; 'I' for Inactive)
REMARK    1  A    between atoms: C_2  and  C_22
REMARK    2  A    between atoms: N_5  and  C_6
REMARK    3  A    between atoms: C_6  and  C_7
REMARK    4  A    between atoms: C_13  and  C_15
REMARK    5  A    between atoms: C_22  and  N_23
REMARK                            x       y       z     vdW  Elec       q    Type
REMARK                         _______ _______ _______ _____ _____    ______ ____
ROOT
ATOM      1  C   UNL     1      -1.679  -1.392   0.885  0.00  0.00    +0.131 A 
ATOM      2  C   UNL     1      -0.453  -1.857   0.552  0.00  0.00    +0.066 A 
ATOM      3  N   UNL     1       0.196  -0.840  -0.026  0.00  0.00    -0.136 NA
ATOM      4  N   UNL     1      -0.578   0.187  -0.050  0.00  0.00    -0.066 NA
ATOM      5  N   UNL     1      -1.712  -0.099   0.486  0.00  0.00    -0.251 N 
ENDROOT
BRANCH   5   6
ATOM      6  C   UNL     1      -2.847   0.816   0.634  0.00  0.00    +0.148 C 
BRANCH   6   7
ATOM      7  C   UNL     1      -2.395   2.072   1.381  0.00  0.00    +0.013 C 
ATOM      8  C   UNL     1      -1.986   1.698   2.808  0.00  0.00    +0.024 C 
ATOM      9  C   UNL     1      -1.502   2.953   3.542  0.00  0.00    +0.108 C 
ATOM     10  N   UNL     1      -2.549   3.980   3.464  0.00  0.00    -0.301 N 
ATOM     11  C   UNL     1      -3.079   4.350   2.145  0.00  0.00    +0.108 C 
ATOM     12  C   UNL     1      -3.546   3.080   1.427  0.00  0.00    +0.024 C 
ATOM     13  C   UNL     1      -3.014   4.572   4.582  0.00  0.00    +0.219 C 
ATOM     14  O   UNL     1      -2.627   4.202   5.670  0.00  0.00    -0.275 OA
BRANCH  13  15
ATOM     15  C   UNL     1      -4.016   5.693   4.480  0.00  0.00    +0.079 C 
ATOM     16  C   UNL     1      -4.783   5.822   5.802  0.00  0.00    +0.017 C 
ATOM     17  C   UNL     1      -5.908   6.842   5.612  0.00  0.00    +0.027 C 
ATOM     18  C   UNL     1      -5.369   8.094   4.984  0.00  0.00    -0.031 C 
ATOM     19  C   UNL     1      -4.231   8.167   4.372  0.00  0.00    -0.030 C 
ATOM     20  C   UNL     1      -3.286   7.012   4.214  0.00  0.00    +0.039 C 
ENDBRANCH  13  15
ENDBRANCH   6   7
ENDBRANCH   5   6
BRANCH   2  21
ATOM     21  C   UNL     1       0.078  -3.248   0.787  0.00  0.00    -0.018 C 
BRANCH  21  22
ATOM     22  N   UNL     1      -0.128  -4.061  -0.419  0.00  0.00    +0.390 N 
ATOM     23  C   UNL     1       0.182  -5.476  -0.161  0.00  0.00    -0.059 C 
ATOM     24  C   UNL     1      -0.337  -6.314  -1.331  0.00  0.00    +0.085 C 
ATOM     25  N   UNL     1       0.125  -5.749  -2.595  0.00  0.00    -0.319 N 
ATOM     26  C   UNL     1       0.577  -4.495  -2.708  0.00  0.00    +0.196 C 
ATOM     27  O   UNL     1       0.912  -4.095  -3.803  0.00  0.00    -0.278 OA
ATOM     28  C   UNL     1       0.685  -3.561  -1.536  0.00  0.00    +0.019 C 
ATOM     29  H   UNL     1       0.112  -6.361  -3.509  0.00  0.00    +0.149 HD
ATOM     30  H   UNL     1      -1.189  -3.979  -0.697  0.00  0.00    -0.081 HD
ENDBRANCH  21  22
ENDBRANCH   2  21
TORSDOF 5
