REMARK  Name = ZINC43553475
REMARK  10 active torsions:
REMARK  status: ('A' for Active; 'I' for Inactive)
REMARK    1  A    between atoms: C_1  and  C_2
REMARK    2  A    between atoms: C_5  and  O_39
REMARK    3  A    between atoms: C_7  and  C_36
REMARK    4  A    between atoms: C_7  and  C_37
REMARK    5  A    between atoms: C_17  and  C_19
REMARK    6  A    between atoms: C_27  and  C_29
REMARK    7  A    between atoms: C_29  and  C_30
REMARK    8  A    between atoms: N_32  and  C_33
REMARK    9  A    between atoms: C_33  and  C_34
REMARK   10  A    between atoms: C_37  and  O_38
REMARK                            x       y       z     vdW  Elec       q    Type
REMARK                         _______ _______ _______ _____ _____    ______ ____
ROOT
ATOM      1  C   UNL     1       0.114   1.506  -0.019  0.00  0.00    +0.012 C 
ATOM      2  C   UNL     1       0.115  -0.030  -0.009  0.00  0.00    -0.019 C 
ATOM      3  C   UNL     1      -1.326  -0.518   0.066  0.00  0.00    +0.010 C 
ATOM      4  C   UNL     1      -1.978   0.040   1.333  0.00  0.00    +0.032 C 
ATOM      5  C   UNL     1      -1.232  -0.381   2.586  0.00  0.00    +0.123 C 
ATOM      6  C   UNL     1       0.274  -0.193   2.529  0.00  0.00    +0.021 C 
ATOM      7  C   UNL     1       0.890  -0.577   1.184  0.00  0.00    +0.011 C 
ATOM      8  C   UNL     1       0.938  -2.118   1.138  0.00  0.00    +0.049 C 
ATOM      9  C   UNL     1       1.028  -2.630  -0.253  0.00  0.00    +0.015 A 
ATOM     10  C   UNL     1       0.938  -1.925  -1.407  0.00  0.00    +0.058 A 
ATOM     11  N   UNL     1       1.024  -2.644  -2.520  0.00  0.00    -0.229 NA
ATOM     12  C   UNL     1       1.209  -3.946  -2.488  0.00  0.00    +0.165 A 
ATOM     13  S   UNL     1       1.278  -4.284  -0.838  0.00  0.00    -0.057 S 
ATOM     14  N   UNL     1       1.321  -4.828  -3.556  0.00  0.00    -0.261 N 
ATOM     15  C   UNL     1       1.510  -6.143  -3.327  0.00  0.00    +0.255 C 
ATOM     16  O   UNL     1       1.583  -6.557  -2.186  0.00  0.00    -0.270 OA
ATOM     17  C   UNL     1       0.782  -0.420  -1.332  0.00  0.00    +0.054 C 
ATOM     18  C   UNL     1       0.647   1.236   2.946  0.00  0.00    +0.016 C 
ATOM     19  H   UNL     1       1.263  -4.497  -4.466  0.00  0.00    +0.157 HD
ENDROOT
BRANCH  15  20
ATOM     20  C   UNL     1       1.629  -7.079  -4.461  0.00  0.00    +0.107 A 
ATOM     21  C   UNL     1       2.884  -7.360  -5.013  0.00  0.00    +0.138 A 
ATOM     22  C   UNL     1       2.986  -8.238  -6.075  0.00  0.00    +0.039 A 
ATOM     23  C   UNL     1       1.853  -8.838  -6.593  0.00  0.00    +0.006 A 
ATOM     24  C   UNL     1       0.608  -8.566  -6.053  0.00  0.00    +0.039 A 
ATOM     25  C   UNL     1       0.488  -7.695  -4.987  0.00  0.00    +0.138 A 
ATOM     26  F   UNL     1      -0.727  -7.434  -4.458  0.00  0.00    -0.205 F 
ATOM     27  F   UNL     1       3.992  -6.774  -4.509  0.00  0.00    -0.205 F 
ENDBRANCH  15  20
BRANCH   5  28
ATOM     28  O   UNL     1      -1.547  -1.743   2.902  0.00  0.00    -0.391 OA
ATOM     29  H   UNL     1      -2.486  -1.902   3.065  0.00  0.00    +0.210 HD
ENDBRANCH   5  28
BRANCH  17  30
ATOM     30  C   UNL     1      -0.025   0.095  -2.519  0.00  0.00    +0.106 C 
BRANCH  30  31
ATOM     31  C   UNL     1       0.718  -0.197  -3.797  0.00  0.00    +0.214 C 
ATOM     32  O   UNL     1       1.790  -0.763  -3.759  0.00  0.00    -0.276 OA
ATOM     33  N   UNL     1       0.191   0.171  -4.982  0.00  0.00    -0.304 N 
ATOM     34  H   UNL     1      -0.666   0.624  -5.012  0.00  0.00    +0.150 HD
BRANCH  33  35
ATOM     35  C   UNL     1       0.914  -0.113  -6.224  0.00  0.00    +0.193 C 
BRANCH  35  36
ATOM     36  C   UNL     1       0.135   0.385  -7.370  0.00  0.00    -0.087 C 
ATOM     37  C   UNL     1      -0.487   0.781  -8.283  0.00  0.00    +0.005 C 
ENDBRANCH  35  36
ENDBRANCH  33  35
ENDBRANCH  30  31
ENDBRANCH  17  30
BRANCH   6  38
ATOM     38  C   UNL     1       0.886  -1.108   3.622  0.00  0.00    +0.165 C 
BRANCH  38  39
ATOM     39  O   UNL     1       0.377  -0.728   4.902  0.00  0.00    -0.394 OA
ATOM     40  H   UNL     1       0.718  -1.259   5.635  0.00  0.00    +0.209 HD
ENDBRANCH  38  39
ENDBRANCH   6  38
TORSDOF 8
