REMARK  Name = ZINC18279321
REMARK  8 active torsions:
REMARK  status: ('A' for Active; 'I' for Inactive)
REMARK    1  A    between atoms: C_1  and  C_2
REMARK    2  A    between atoms: C_2  and  C_4
REMARK    3  A    between atoms: C_2  and  O_14
REMARK    4  A    between atoms: N_6  and  C_7
REMARK    5  A    between atoms: O_14  and  C_15
REMARK    6  A    between atoms: C_15  and  C_17
REMARK    7  A    between atoms: C_26  and  N_29
REMARK    8  A    between atoms: C_30  and  C_32
REMARK                            x       y       z     vdW  Elec       q    Type
REMARK                         _______ _______ _______ _____ _____    ______ ____
ROOT
ATOM      1  C   UNL     1      -0.085  -0.661  -2.264  0.00  0.00    +0.314 C 
ATOM      2  O   UNL     1      -1.274  -0.450  -2.221  0.00  0.00    -0.250 OA
ENDROOT
BRANCH   1   3
ATOM      3  C   UNL     1       0.547  -1.150  -3.542  0.00  0.00    +0.070 C 
ATOM      4  C   UNL     1       1.604  -0.144  -4.004  0.00  0.00    +0.021 C 
ATOM      5  C   UNL     1       2.246  -0.640  -5.301  0.00  0.00    -0.008 C 
ATOM      6  C   UNL     1       2.907  -1.998  -5.056  0.00  0.00    +0.007 C 
ATOM      7  C   UNL     1       1.851  -3.003  -4.594  0.00  0.00    -0.008 C 
ATOM      8  C   UNL     1       1.209  -2.507  -3.297  0.00  0.00    +0.021 C 
ATOM      9  C   UNL     1       0.776  -3.147  -5.673  0.00  0.00    +0.029 C 
ATOM     10  C   UNL     1       0.115  -1.789  -5.918  0.00  0.00    +0.036 C 
ATOM     11  C   UNL     1       1.171  -0.783  -6.381  0.00  0.00    +0.029 C 
ATOM     12  C   UNL     1      -0.527  -1.293  -4.621  0.00  0.00    +0.043 C 
BRANCH  10  13
ATOM     13  N   UNL     1      -0.914  -1.926  -6.951  0.00  0.00    -0.310 N 
ATOM     14  C   UNL     1      -0.578  -2.352  -8.185  0.00  0.00    +0.210 C 
ATOM     15  O   UNL     1       0.577  -2.621  -8.440  0.00  0.00    -0.276 OA
ATOM     16  C   UNL     1      -1.637  -2.493  -9.248  0.00  0.00    +0.109 C 
ATOM     17  H   UNL     1      -1.838  -1.711  -6.748  0.00  0.00    +0.149 HD
ENDBRANCH  10  13
ENDBRANCH   1   3
BRANCH   1  18
ATOM     18  O   UNL     1       0.671  -0.462  -1.174  0.00  0.00    -0.452 OA
BRANCH  18  20
ATOM     19  C   UNL     1      -0.004   1.532   0.014  0.00  0.00    +0.062 C 
ATOM     20  C   UNL     1       0.005   0.002   0.002  0.00  0.00    +0.259 C 
BRANCH  20  21
ATOM     21  C   UNL     1       0.730  -0.505   1.223  0.00  0.00    +0.258 C 
ATOM     22  O   UNL     1       1.769  -1.118   1.100  0.00  0.00    -0.271 OA
ATOM     23  N   UNL     1       0.223  -0.277   2.451  0.00  0.00    -0.282 N 
ATOM     24  H   UNL     1      -0.571   0.271   2.553  0.00  0.00    +0.155 HD
BRANCH  23  25
ATOM     25  C   UNL     1       0.843  -0.829   3.577  0.00  0.00    +0.034 A 
ATOM     26  C   UNL     1       0.077  -1.256   4.654  0.00  0.00    +0.024 A 
ATOM     27  C   UNL     1       0.691  -1.801   5.764  0.00  0.00    +0.017 A 
ATOM     28  C   UNL     1       2.069  -1.922   5.805  0.00  0.00    +0.018 A 
ATOM     29  C   UNL     1       2.835  -1.498   4.733  0.00  0.00    +0.017 A 
ATOM     30  C   UNL     1       2.225  -0.957   3.618  0.00  0.00    +0.024 A 
ATOM     31 BR   UNL     1       2.906  -2.668   7.327  0.00  0.00    -0.050 Br
ENDBRANCH  23  25
ENDBRANCH  20  21
ENDBRANCH  18  20
ENDBRANCH   1  18
TORSDOF 6
