REMARK  Name = ZINC20564049
REMARK  9 active torsions:
REMARK  status: ('A' for Active; 'I' for Inactive)
REMARK    1  A    between atoms: C_1  and  C_2
REMARK    2  A    between atoms: C_4  and  C_31
REMARK    3  A    between atoms: N_5  and  C_25
REMARK    4  A    between atoms: C_14  and  C_17
REMARK    5  A    between atoms: N_19  and  C_20
REMARK    6  A    between atoms: C_20  and  C_21
REMARK    7  A    between atoms: C_21  and  N_22
REMARK    8  A    between atoms: N_22  and  C_23
REMARK    9  A    between atoms: N_22  and  C_24
REMARK                            x       y       z     vdW  Elec       q    Type
REMARK                         _______ _______ _______ _____ _____    ______ ____
ROOT
ATOM      1  C   UNL     1      -9.228   3.812   1.441  0.00  0.00    +0.068 C 
ATOM      2  C   UNL     1      -7.760   3.478   1.504  0.00  0.00    +0.072 A 
ATOM      3  C   UNL     1      -6.977   3.916   2.594  0.00  0.00    +0.049 A 
ATOM      4  C   UNL     1      -7.181   4.639   3.748  0.00  0.00    +0.051 A 
ATOM      5  N   UNL     1      -6.006   4.721   4.396  0.00  0.00    -0.236 N 
ATOM      6  N   UNL     1      -5.013   4.048   3.672  0.00  0.00    -0.163 NA
ATOM      7  C   UNL     1      -5.548   3.542   2.584  0.00  0.00    +0.137 A 
ATOM      8  C   UNL     1      -5.087   2.764   1.435  0.00  0.00    +0.172 A 
ATOM      9  N   UNL     1      -5.969   2.446   0.507  0.00  0.00    -0.132 NA
ATOM     10  N   UNL     1      -7.201   2.780   0.548  0.00  0.00    -0.152 NA
ATOM     11  N   UNL     1      -3.764   2.367   1.328  0.00  0.00    -0.312 N 
ATOM     12  C   UNL     1      -3.544   1.595   0.098  0.00  0.00    +0.107 C 
ATOM     13  C   UNL     1      -2.114   1.052   0.083  0.00  0.00    +0.031 C 
ATOM     14  C   UNL     1      -1.128   2.222   0.157  0.00  0.00    +0.078 C 
ATOM     15  C   UNL     1      -1.409   3.039   1.421  0.00  0.00    +0.031 C 
ATOM     16  C   UNL     1      -2.861   3.523   1.398  0.00  0.00    +0.107 C 
ATOM     17  C   UNL     1      -8.488   5.235   4.202  0.00  0.00    +0.066 C 
ENDROOT
BRANCH   5  18
ATOM     18  C   UNL     1      -5.804   5.382   5.615  0.00  0.00    +0.066 A 
ATOM     19  C   UNL     1      -4.674   6.167   5.803  0.00  0.00    +0.028 A 
ATOM     20  C   UNL     1      -4.481   6.821   7.003  0.00  0.00    +0.002 A 
ATOM     21  C   UNL     1      -5.405   6.686   8.023  0.00  0.00    +0.000 A 
ATOM     22  C   UNL     1      -6.528   5.900   7.842  0.00  0.00    +0.002 A 
ATOM     23  C   UNL     1      -6.730   5.248   6.641  0.00  0.00    +0.028 A 
ENDBRANCH   5  18
BRANCH  14  24
ATOM     24  C   UNL     1       0.281   1.691   0.204  0.00  0.00    +0.216 C 
ATOM     25  O   UNL     1       0.480   0.494   0.178  0.00  0.00    -0.276 OA
ATOM     26  N   UNL     1       1.322   2.545   0.268  0.00  0.00    -0.317 N 
ATOM     27  H   UNL     1       1.142   3.630   0.292  0.00  0.00    +0.149 HD
BRANCH  26  28
ATOM     28  C   UNL     1       2.692   2.029   0.307  0.00  0.00    +0.085 C 
BRANCH  28  29
ATOM     29  C   UNL     1       3.676   3.198   0.379  0.00  0.00    -0.061 C 
BRANCH  29  30
ATOM     30  N   UNL     1       5.050   2.680   0.418  0.00  0.00    +0.377 N 
ATOM     31  C   UNL     1       6.026   3.765   0.248  0.00  0.00    -0.097 C 
ATOM     32  C   UNL     1       5.298   1.939   1.662  0.00  0.00    -0.097 C 
ATOM     33  H   UNL     1       5.172   1.981  -0.422  0.00  0.00    -0.083 HD
ENDBRANCH  29  30
ENDBRANCH  28  29
ENDBRANCH  26  28
ENDBRANCH  14  24
TORSDOF 5
