REMARK  Name = ZINC66923016
REMARK  12 active torsions:
REMARK  status: ('A' for Active; 'I' for Inactive)
REMARK    1  A    between atoms: C_1  and  C_2
REMARK    2  A    between atoms: C_2  and  C_4
REMARK    3  A    between atoms: C_2  and  N_11
REMARK    4  A    between atoms: N_6  and  C_7
REMARK    5  A    between atoms: C_7  and  C_8
REMARK    6  A    between atoms: C_7  and  C_9
REMARK    7  A    between atoms: C_7  and  C_10
REMARK    8  A    between atoms: C_12  and  C_14
REMARK    9  A    between atoms: C_17  and  O_20
REMARK   10  A    between atoms: O_20  and  C_21
REMARK   11  A    between atoms: C_21  and  C_22
REMARK   12  A    between atoms: C_27  and  C_28
REMARK                            x       y       z     vdW  Elec       q    Type
REMARK                         _______ _______ _______ _____ _____    ______ ____
ROOT
ATOM      1  C   UNL     1      -3.436  -1.154  -1.134  0.00  0.00    +0.037 A 
ATOM      2  C   UNL     1      -4.047  -1.496   0.075  0.00  0.00    +0.016 A 
ATOM      3  C   UNL     1      -5.339  -1.972   0.081  0.00  0.00    +0.046 A 
ATOM      4  C   UNL     1      -6.035  -2.112  -1.114  0.00  0.00    +0.121 A 
ATOM      5  C   UNL     1      -5.431  -1.773  -2.319  0.00  0.00    +0.046 A 
ATOM      6  C   UNL     1      -4.141  -1.291  -2.333  0.00  0.00    +0.016 A 
ENDROOT
BRANCH   1   8
ATOM      7  N   UNL     1      -1.372  -0.511   0.012  0.00  0.00    -0.300 N 
ATOM      8  C   UNL     1      -2.051  -0.643  -1.145  0.00  0.00    +0.245 C 
ATOM      9  O   UNL     1      -1.522  -0.341  -2.197  0.00  0.00    -0.270 OA
ATOM     10  H   UNL     1      -1.794  -0.752   0.852  0.00  0.00    +0.150 HD
BRANCH   7  12
ATOM     11  C   UNL     1      -0.019   1.526   0.010  0.00  0.00    +0.038 C 
ATOM     12  C   UNL     1       0.002  -0.004   0.002  0.00  0.00    +0.156 C 
BRANCH  12  13
ATOM     13  C   UNL     1       0.731  -0.503   1.223  0.00  0.00    +0.233 C 
ATOM     14  O   UNL     1       0.159  -1.213   2.023  0.00  0.00    -0.274 OA
ATOM     15  N   UNL     1       2.019  -0.161   1.426  0.00  0.00    -0.309 N 
ATOM     16  H   UNL     1       2.476   0.406   0.786  0.00  0.00    +0.149 HD
BRANCH  15  17
ATOM     17  C   UNL     1       2.727  -0.647   2.613  0.00  0.00    +0.026 C 
ATOM     18  C   UNL     1       2.748  -2.176   2.604  0.00  0.00    +0.031 C 
ATOM     19  C   UNL     1       4.163  -0.117   2.602  0.00  0.00    +0.031 C 
ATOM     20  C   UNL     1       2.011  -0.153   3.871  0.00  0.00    +0.031 C 
ENDBRANCH  15  17
ENDBRANCH  12  13
ENDBRANCH   7  12
ENDBRANCH   1   8
BRANCH   4  21
ATOM     21  O   UNL     1      -7.308  -2.582  -1.105  0.00  0.00    -0.487 OA
BRANCH  21  22
ATOM     22  C   UNL     1      -7.965  -2.702  -2.368  0.00  0.00    +0.265 C 
BRANCH  22  23
ATOM     23  C   UNL     1      -9.359  -3.236  -2.161  0.00  0.00    +0.007 A 
ATOM     24  C   UNL     1      -9.809  -3.519  -0.888  0.00  0.00    +0.008 A 
ATOM     25  C   UNL     1     -11.088  -4.009  -0.696  0.00  0.00    +0.000 A 
ATOM     26  C   UNL     1     -11.925  -4.219  -1.778  0.00  0.00    +0.001 A 
ATOM     27  C   UNL     1     -11.488  -3.941  -3.056  0.00  0.00    +0.019 A 
ATOM     28  C   UNL     1     -10.200  -3.439  -3.256  0.00  0.00    +0.058 A 
BRANCH  28  29
ATOM     29  C   UNL     1      -9.742  -3.142  -4.580  0.00  0.00    +0.100 C 
ATOM     30  N   UNL     1      -9.379  -2.905  -5.630  0.00  0.00    -0.191 NA
ENDBRANCH  28  29
ENDBRANCH  22  23
ENDBRANCH  21  22
ENDBRANCH   4  21
TORSDOF 8
