REMARK  Name = ZINC53851490
REMARK  6 active torsions:
REMARK  status: ('A' for Active; 'I' for Inactive)
REMARK    1  A    between atoms: C_1  and  C_2
REMARK    2  A    between atoms: C_4  and  C_7
REMARK    3  A    between atoms: C_9  and  C_13
REMARK    4  A    between atoms: N_15  and  C_16
REMARK    5  A    between atoms: C_16  and  C_18
REMARK    6  A    between atoms: C_16  and  C_19
REMARK                            x       y       z     vdW  Elec       q    Type
REMARK                         _______ _______ _______ _____ _____    ______ ____
ROOT
ATOM      1  C   UNL     1      -5.521  -4.022  -0.136  0.00  0.00    +0.261 C 
ATOM      2  O   UNL     1      -6.207  -3.022  -0.239  0.00  0.00    -0.269 OA
ATOM      3  N   UNL     1      -6.102  -5.237  -0.087  0.00  0.00    -0.304 N 
ATOM      4  H   UNL     1      -5.555  -6.033  -0.005  0.00  0.00    +0.150 HD
ENDROOT
BRANCH   1   7
ATOM      5  C   UNL     1      -1.984  -3.085  -0.006  0.00  0.00    +0.019 A 
ATOM      6  C   UNL     1      -3.345  -2.740  -0.102  0.00  0.00    +0.042 A 
ATOM      7  C   UNL     1      -4.060  -3.904  -0.064  0.00  0.00    +0.102 A 
ATOM      8  N   UNL     1      -3.169  -4.947   0.053  0.00  0.00    -0.356 N 
ATOM      9  H   UNL     1      -3.403  -5.887   0.102  0.00  0.00    +0.165 HD
ATOM     10  C   UNL     1      -1.910  -4.445   0.083  0.00  0.00    +0.093 A 
BRANCH   5  14
ATOM     11  C   UNL     1      -0.018   1.503   0.010  0.00  0.00    +0.073 C 
ATOM     12  C   UNL     1       0.002  -0.004   0.002  0.00  0.00    +0.076 A 
ATOM     13  N   UNL     1      -1.014  -0.828   0.002  0.00  0.00    -0.244 NA
ATOM     14  C   UNL     1      -0.836  -2.141  -0.006  0.00  0.00    +0.080 A 
ATOM     15  C   UNL     1       0.458  -2.583  -0.014  0.00  0.00    +0.075 A 
ATOM     16  S   UNL     1       1.337  -1.028  -0.017  0.00  0.00    -0.080 S 
ENDBRANCH   5  14
ENDBRANCH   1   7
BRANCH   3  17
ATOM     17  C   UNL     1      -7.561  -5.354  -0.159  0.00  0.00    +0.100 C 
ATOM     18  C   UNL     1      -8.156  -5.176   1.239  0.00  0.00    +0.033 C 
BRANCH  17  19
ATOM     19  C   UNL     1      -7.929  -6.715  -0.692  0.00  0.00    -0.025 A 
ATOM     20  C   UNL     1      -7.223  -7.832  -0.279  0.00  0.00    +0.007 A 
ATOM     21  C   UNL     1      -7.553  -9.082  -0.762  0.00  0.00    +0.028 A 
ATOM     22  C   UNL     1      -8.597  -9.220  -1.664  0.00  0.00    +0.067 A 
ATOM     23  C   UNL     1      -9.310  -8.094  -2.080  0.00  0.00    +0.067 A 
ATOM     24  C   UNL     1      -8.974  -6.843  -1.586  0.00  0.00    +0.033 A 
ATOM     25  N   UNL     1     -10.283  -8.540  -2.972  0.00  0.00    -0.306 N 
ATOM     26  H   UNL     1     -10.932  -7.983  -3.429  0.00  0.00    +0.170 HD
ATOM     27  C   UNL     1     -10.167  -9.876  -3.092  0.00  0.00    +0.325 A 
ATOM     28  O   UNL     1     -10.867 -10.580  -3.796  0.00  0.00    -0.247 OA
ATOM     29  N   UNL     1      -9.159 -10.316  -2.315  0.00  0.00    -0.306 N 
ATOM     30  H   UNL     1      -8.873 -11.238  -2.225  0.00  0.00    +0.170 HD
ENDBRANCH  17  19
ENDBRANCH   3  17
TORSDOF 4
