REMARK  Name = ZINC06413465
REMARK  5 active torsions:
REMARK  status: ('A' for Active; 'I' for Inactive)
REMARK    1  A    between atoms: C_1  and  C_2
REMARK    2  A    between atoms: C_5  and  N_8
REMARK    3  A    between atoms: C_9  and  C_22
REMARK    4  A    between atoms: C_11  and  C_15
REMARK    5  A    between atoms: C_15  and  C_16
REMARK                            x       y       z     vdW  Elec       q    Type
REMARK                         _______ _______ _______ _____ _____    ______ ____
ROOT
ATOM      1  N   UNL     1       5.310  -2.427  -2.335  0.00  0.00    -0.283 N 
ATOM      2  C   UNL     1       4.057  -2.645  -3.068  0.00  0.00    +0.056 C 
ATOM      3  C   UNL     1       3.707  -0.959  -1.511  0.00  0.00    +0.024 C 
ATOM      4  C   UNL     1       5.138  -1.446  -1.426  0.00  0.00    +0.205 C 
ATOM      5  O   UNL     1       5.986  -1.025  -0.668  0.00  0.00    -0.277 OA
ATOM      6  N   UNL     1       3.031  -2.013  -2.254  0.00  0.00    +0.402 N 
ATOM      7  H   UNL     1       2.617  -2.696  -1.608  0.00  0.00    -0.082 HD
ATOM      8  H   UNL     1       2.296  -1.615  -2.850  0.00  0.00    -0.082 HD
ENDROOT
BRANCH   1  13
ATOM      9  C   UNL     1      10.143  -5.270  -3.199  0.00  0.00    +0.044 C 
ATOM     10  C   UNL     1       8.859  -4.515  -2.970  0.00  0.00    -0.050 A 
ATOM     11  C   UNL     1       8.803  -3.527  -2.004  0.00  0.00    +0.005 A 
ATOM     12  C   UNL     1       7.628  -2.833  -1.792  0.00  0.00    +0.024 A 
ATOM     13  C   UNL     1       6.502  -3.128  -2.549  0.00  0.00    +0.035 A 
ATOM     14  C   UNL     1       6.560  -4.125  -3.514  0.00  0.00    +0.024 A 
ATOM     15  C   UNL     1       7.740  -4.811  -3.726  0.00  0.00    +0.005 A 
ENDBRANCH   1  13
BRANCH   2  16
ATOM     16  C   UNL     1       4.125  -1.986  -4.422  0.00  0.00    -0.044 A 
ATOM     17  C   UNL     1       3.802  -2.706  -5.557  0.00  0.00    +0.003 A 
ATOM     18  C   UNL     1       3.859  -2.100  -6.798  0.00  0.00    +0.000 A 
ATOM     19  C   UNL     1       4.249  -0.778  -6.905  0.00  0.00    +0.000 A 
ATOM     20  C   UNL     1       4.577  -0.060  -5.770  0.00  0.00    +0.000 A 
ATOM     21  C   UNL     1       4.515  -0.665  -4.528  0.00  0.00    +0.003 A 
ENDBRANCH   2  16
BRANCH   3  22
ATOM     22  C   UNL     1       3.117  -0.795  -0.109  0.00  0.00    +0.028 C 
BRANCH  22  23
ATOM     23  C   UNL     1       1.696  -0.302  -0.217  0.00  0.00    -0.048 A 
ATOM     24  C   UNL     1       0.655  -1.208  -0.298  0.00  0.00    +0.003 A 
ATOM     25  C   UNL     1      -0.648  -0.756  -0.396  0.00  0.00    +0.000 A 
ATOM     26  C   UNL     1      -0.909   0.602  -0.413  0.00  0.00    +0.000 A 
ATOM     27  C   UNL     1       0.132   1.507  -0.331  0.00  0.00    +0.000 A 
ATOM     28  C   UNL     1       1.435   1.055  -0.235  0.00  0.00    +0.003 A 
ENDBRANCH  22  23
ENDBRANCH   3  22
TORSDOF 4
