REMARK  Name = ZINC02730523
REMARK  5 active torsions:
REMARK  status: ('A' for Active; 'I' for Inactive)
REMARK    1  A    between atoms: C_1  and  C_2
REMARK    2  A    between atoms: C_6  and  C_7
REMARK    3  A    between atoms: N_8  and  N_9
REMARK    4  A    between atoms: C_10  and  C_12
REMARK    5  A    between atoms: C_14  and  C_23
REMARK                            x       y       z     vdW  Elec       q    Type
REMARK                         _______ _______ _______ _____ _____    ______ ____
ROOT
ATOM      1  C   UNL     1       2.852   3.365   0.943  0.00  0.00    +0.049 A 
ATOM      2  C   UNL     1       1.616   2.729   0.953  0.00  0.00    +0.037 A 
ATOM      3  C   UNL     1       1.344   1.742   0.009  0.00  0.00    +0.046 A 
ATOM      4  N   UNL     1       2.224   1.385  -0.893  0.00  0.00    -0.251 NA
ATOM      5  C   UNL     1       3.430   1.956  -0.966  0.00  0.00    +0.072 A 
ATOM      6  C   UNL     1       3.791   2.970  -0.044  0.00  0.00    +0.014 A 
ATOM      7  C   UNL     1       5.058   3.560  -0.123  0.00  0.00    +0.026 A 
ATOM      8  C   UNL     1       5.933   3.153  -1.086  0.00  0.00    +0.019 A 
ATOM      9  C   UNL     1       5.582   2.156  -1.995  0.00  0.00    +0.017 A 
ATOM     10  C   UNL     1       4.359   1.562  -1.946  0.00  0.00    +0.029 A 
ATOM     11 BR   UNL     1       7.645   3.951  -1.190  0.00  0.00    -0.050 Br
ENDROOT
BRANCH   1  13
ATOM     12  N   UNL     1       2.231   4.858   2.781  0.00  0.00    -0.203 N 
ATOM     13  C   UNL     1       3.178   4.417   1.929  0.00  0.00    +0.264 C 
ATOM     14  O   UNL     1       4.300   4.884   1.971  0.00  0.00    -0.268 OA
ATOM     15  H   UNL     1       1.337   4.485   2.747  0.00  0.00    +0.178 HD
BRANCH  12  17
ATOM     16  C   UNL     1       1.626   6.281   4.538  0.00  0.00    +0.145 C 
ATOM     17  N   UNL     1       2.540   5.855   3.716  0.00  0.00    -0.187 NA
BRANCH  16  23
ATOM     18  C   UNL     1      -0.312   7.503   6.604  0.00  0.00    +0.045 C 
ATOM     19  C   UNL     1       1.131   7.914   6.465  0.00  0.00    -0.035 A 
ATOM     20  C   UNL     1       1.670   8.881   7.281  0.00  0.00    +0.011 A 
ATOM     21  C   UNL     1       2.974   9.232   7.126  0.00  0.00    +0.046 A 
ATOM     22  S   UNL     1       3.497   8.172   5.788  0.00  0.00    -0.095 S 
ATOM     23  C   UNL     1       1.949   7.324   5.516  0.00  0.00    +0.035 A 
ENDBRANCH  16  23
ENDBRANCH  12  17
ENDBRANCH   1  13
BRANCH   3  24
ATOM     24  C   UNL     1       0.000   1.060   0.031  0.00  0.00    +0.038 C 
ATOM     25  C   UNL     1      -1.121   1.734   0.825  0.00  0.00    +0.010 C 
ATOM     26  C   UNL     1      -1.152   1.747  -0.706  0.00  0.00    +0.010 C 
ENDBRANCH   3  24
TORSDOF 4
