REMARK  Name = ZINC07036236
REMARK  5 active torsions:
REMARK  status: ('A' for Active; 'I' for Inactive)
REMARK    1  A    between atoms: C_11  and  C_13
REMARK    2  A    between atoms: C_13  and  S_14
REMARK    3  A    between atoms: S_14  and  C_15
REMARK    4  A    between atoms: N_19  and  C_20
REMARK    5  A    between atoms: C_23  and  O_26
REMARK                            x       y       z     vdW  Elec       q    Type
REMARK                         _______ _______ _______ _____ _____    ______ ____
ROOT
ATOM      1  S   UNL     1       0.172   6.383  -2.892  0.00  0.00    -0.075 S 
ENDROOT
BRANCH   1   2
ATOM      2  C   UNL     1      -0.338   8.005  -2.430  0.00  0.00    +0.214 A 
ATOM      3  N   UNL     1      -1.153   8.318  -1.446  0.00  0.00    -0.101 NA
ATOM      4  N   UNL     1      -1.314   9.590  -1.382  0.00  0.00    -0.022 NA
ATOM      5  N   UNL     1      -0.627  10.177  -2.302  0.00  0.00    -0.038 NA
ATOM      6  N   UNL     1       0.041   9.168  -3.018  0.00  0.00    -0.187 N 
BRANCH   6   7
ATOM      7  C   UNL     1       0.909   9.328  -4.108  0.00  0.00    +0.070 A 
ATOM      8  C   UNL     1       1.998   8.480  -4.259  0.00  0.00    +0.031 A 
ATOM      9  C   UNL     1       2.850   8.635  -5.335  0.00  0.00    +0.047 A 
ATOM     10  C   UNL     1       2.624   9.646  -6.258  0.00  0.00    +0.117 A 
ATOM     11  C   UNL     1       1.539  10.497  -6.105  0.00  0.00    +0.047 A 
ATOM     12  C   UNL     1       0.684  10.339  -5.032  0.00  0.00    +0.031 A 
BRANCH  10  13
ATOM     13  O   UNL     1       3.466   9.802  -7.314  0.00  0.00    -0.507 OA
ATOM     14  H   UNL     1       4.208  10.396  -7.140  0.00  0.00    +0.292 HD
ENDBRANCH  10  13
ENDBRANCH   6   7
ENDBRANCH   1   2
BRANCH   1  15
ATOM     15  C   UNL     1      -0.729   5.408  -1.662  0.00  0.00    +0.173 C 
BRANCH  15  26
ATOM     16  C   UNL     1      -1.036   1.276   3.621  0.00  0.00    +0.000 A 
ATOM     17  C   UNL     1      -1.898   2.357   3.632  0.00  0.00    +0.000 A 
ATOM     18  C   UNL     1      -2.161   3.033   2.461  0.00  0.00    +0.005 A 
ATOM     19  C   UNL     1      -1.568   2.636   1.270  0.00  0.00    -0.027 A 
ATOM     20  C   UNL     1      -0.704   1.565   1.257  0.00  0.00    -0.041 A 
ATOM     21  C   UNL     1      -0.443   0.883   2.440  0.00  0.00    +0.004 A 
ATOM     22  C   UNL     1      -0.013   1.086   0.008  0.00  0.00    +0.054 C 
ATOM     23  C   UNL     1      -0.739   1.585  -1.240  0.00  0.00    +0.113 C 
ATOM     24  N   UNL     1      -1.003   3.023  -1.064  0.00  0.00    -0.296 N 
ATOM     25  C   UNL     1      -1.908   3.413   0.022  0.00  0.00    +0.143 C 
ATOM     26  C   UNL     1      -0.437   3.944  -1.869  0.00  0.00    +0.226 C 
ATOM     27  O   UNL     1       0.307   3.594  -2.761  0.00  0.00    -0.275 OA
ENDBRANCH  15  26
ENDBRANCH   1  15
TORSDOF 5
