REMARK  Name = ZINC39653984
REMARK  13 active torsions:
REMARK  status: ('A' for Active; 'I' for Inactive)
REMARK    1  A    between atoms: C_1  and  C_2
REMARK    2  A    between atoms: C_2  and  O_3
REMARK    3  A    between atoms: O_3  and  C_4
REMARK    4  A    between atoms: C_7  and  C_10
REMARK    5  A    between atoms: C_10  and  C_11
REMARK    6  A    between atoms: C_11  and  N_12
REMARK    7  A    between atoms: C_13  and  C_15
REMARK    8  A    between atoms: C_26  and  C_28
REMARK    9  A    between atoms: C_30  and  C_37
REMARK   10  A    between atoms: N_32  and  C_33
REMARK   11  A    between atoms: C_33  and  C_34
REMARK   12  A    between atoms: C_33  and  C_35
REMARK   13  A    between atoms: C_33  and  C_36
REMARK                            x       y       z     vdW  Elec       q    Type
REMARK                         _______ _______ _______ _____ _____    ______ ____
ROOT
ATOM      1  C   UNL     1      -1.257  -9.903  -3.807  0.00  0.00    +0.100 C 
ATOM      2  C   UNL     1      -1.188 -10.626  -2.443  0.00  0.00    +0.121 C 
ATOM      3  N   UNL     1      -2.555 -11.157  -2.231  0.00  0.00    -0.295 N 
ATOM      4  C   UNL     1      -2.981 -11.626  -3.572  0.00  0.00    +0.115 C 
ATOM      5  C   UNL     1      -2.432 -10.565  -4.546  0.00  0.00    -0.004 C 
ATOM      6  C   UNL     1      -1.943 -11.229  -5.830  0.00  0.00    -0.010 C 
ATOM      7  C   UNL     1      -3.138 -11.830  -6.576  0.00  0.00    -0.082 C 
ATOM      8  N   UNL     1      -4.105 -10.771  -6.887  0.00  0.00    +0.379 N 
ATOM      9  C   UNL     1      -4.640 -10.200  -5.645  0.00  0.00    -0.082 C 
ATOM     10  C   UNL     1      -3.509  -9.531  -4.859  0.00  0.00    -0.010 C 
ATOM     11  C   UNL     1      -3.255 -11.202  -1.080  0.00  0.00    +0.265 C 
ATOM     12  O   UNL     1      -4.380 -11.663  -1.069  0.00  0.00    -0.268 OA
ATOM     13  H   UNL     1      -3.648 -10.045  -7.419  0.00  0.00    -0.086 HD
ATOM     14  H   UNL     1      -4.861 -11.157  -7.432  0.00  0.00    -0.086 HD
ENDROOT
BRANCH  11  15
ATOM     15  C   UNL     1      -2.656 -10.693   0.165  0.00  0.00    +0.124 A 
ATOM     16  C   UNL     1      -1.334 -10.338   0.366  0.00  0.00    +0.057 A 
ATOM     17  C   UNL     1      -1.261  -9.921   1.697  0.00  0.00    +0.061 A 
ATOM     18  N   UNL     1      -2.457 -10.030   2.217  0.00  0.00    -0.175 NA
ATOM     19  N   UNL     1      -3.296 -10.471   1.351  0.00  0.00    -0.254 N 
ATOM     20  C   UNL     1      -0.026  -9.432   2.408  0.00  0.00    +0.067 C 
BRANCH  19  21
ATOM     21  C   UNL     1      -4.721 -10.705   1.598  0.00  0.00    +0.056 C 
ATOM     22  C   UNL     1      -5.025 -12.198   1.457  0.00  0.00    +0.036 C 
ATOM     23  C   UNL     1      -5.075 -10.244   3.014  0.00  0.00    +0.036 C 
ATOM     24  C   UNL     1      -5.551  -9.917   0.583  0.00  0.00    +0.036 C 
ENDBRANCH  19  21
ENDBRANCH  11  15
BRANCH   1  26
ATOM     25  N   UNL     1      -1.217  -7.556  -4.585  0.00  0.00    -0.315 N 
ATOM     26  C   UNL     1      -1.523  -8.433  -3.609  0.00  0.00    +0.218 C 
ATOM     27  O   UNL     1      -2.011  -8.040  -2.571  0.00  0.00    -0.275 OA
ATOM     28  H   UNL     1      -0.761  -7.860  -5.385  0.00  0.00    +0.149 HD
BRANCH  25  29
ATOM     29  C   UNL     1      -1.575  -6.143  -4.439  0.00  0.00    +0.109 C 
BRANCH  29  30
ATOM     30  C   UNL     1      -1.119  -5.370  -5.678  0.00  0.00    +0.054 C 
BRANCH  30  34
ATOM     31  C   UNL     1      -2.163  -1.248  -5.250  0.00  0.00    +0.121 A 
ATOM     32  C   UNL     1      -0.934  -1.704  -4.796  0.00  0.00    +0.046 A 
ATOM     33  C   UNL     1      -0.599  -3.037  -4.935  0.00  0.00    +0.007 A 
ATOM     34  C   UNL     1      -1.488  -3.916  -5.527  0.00  0.00    -0.046 A 
ATOM     35  C   UNL     1      -2.713  -3.464  -5.980  0.00  0.00    +0.007 A 
ATOM     36  C   UNL     1      -3.055  -2.133  -5.838  0.00  0.00    +0.046 A 
BRANCH  31  37
ATOM     37  O   UNL     1      -2.495   0.063  -5.114  0.00  0.00    -0.492 OA
BRANCH  37  39
ATOM     38  C   UNL     1      -2.076   2.344  -4.433  0.00  0.00    +0.048 C 
ATOM     39  C   UNL     1      -1.528   0.916  -4.499  0.00  0.00    +0.225 C 
ENDBRANCH  37  39
ENDBRANCH  31  37
ENDBRANCH  30  34
ENDBRANCH  29  30
ENDBRANCH  25  29
ENDBRANCH   1  26
TORSDOF 8
