REMARK  Name = ZINC63384459
REMARK  5 active torsions:
REMARK  status: ('A' for Active; 'I' for Inactive)
REMARK    1  A    between atoms: C_1  and  O_2
REMARK    2  A    between atoms: O_2  and  C_3
REMARK    3  A    between atoms: C_7  and  N_9
REMARK    4  A    between atoms: C_14  and  C_31
REMARK    5  A    between atoms: C_31  and  C_32
REMARK                            x       y       z     vdW  Elec       q    Type
REMARK                         _______ _______ _______ _____ _____    ______ ____
ROOT
ATOM      1  N   UNL     1      -2.542  -4.067   0.016  0.00  0.00    -0.210 N 
ATOM      2  C   UNL     1      -1.453  -4.837  -0.086  0.00  0.00    +0.232 C 
ATOM      3  O   UNL     1      -0.315  -4.430  -0.184  0.00  0.00    -0.274 OA
ATOM      4  C   UNL     1      -1.861  -6.292  -0.057  0.00  0.00    +0.107 C 
ATOM      5  C   UNL     1      -1.605  -6.917  -1.445  0.00  0.00    +0.072 C 
ATOM      6  N   UNL     1      -2.839  -7.688  -1.750  0.00  0.00    -0.295 NA
ATOM      7  C   UNL     1      -3.931  -6.841  -1.234  0.00  0.00    +0.136 C 
ATOM      8  C   UNL     1      -3.407  -6.227   0.087  0.00  0.00    +0.123 C 
ATOM      9  C   UNL     1      -3.692  -4.743   0.121  0.00  0.00    +0.233 C 
ATOM     10  O   UNL     1      -4.792  -4.243   0.225  0.00  0.00    -0.274 OA
ATOM     11  C   UNL     1      -4.323  -5.784  -2.227  0.00  0.00    +0.003 A 
ATOM     12  C   UNL     1      -3.641  -4.755  -2.837  0.00  0.00    +0.008 A 
ATOM     13  C   UNL     1      -4.293  -3.925  -3.732  0.00  0.00    +0.000 A 
ATOM     14  C   UNL     1      -5.631  -4.132  -4.012  0.00  0.00    +0.002 A 
ATOM     15  C   UNL     1      -6.319  -5.162  -3.404  0.00  0.00    +0.023 A 
ATOM     16  C   UNL     1      -5.670  -6.001  -2.502  0.00  0.00    +0.039 A 
ATOM     17  N   UNL     1      -6.142  -7.093  -1.770  0.00  0.00    -0.283 N 
ATOM     18  C   UNL     1      -5.183  -7.642  -1.001  0.00  0.00    +0.243 C 
ATOM     19  O   UNL     1      -5.304  -8.598  -0.264  0.00  0.00    -0.273 OA
ATOM     20  H   UNL     1      -2.936  -7.838  -2.743  0.00  0.00    +0.124 HD
ATOM     21  H   UNL     1      -7.056  -7.417  -1.810  0.00  0.00    +0.155 HD
ENDROOT
BRANCH   1  26
ATOM     22  C   UNL     1      -2.761  -0.573   1.159  0.00  0.00    +0.122 A 
ATOM     23  C   UNL     1      -2.366   0.102   0.012  0.00  0.00    +0.046 A 
ATOM     24  C   UNL     1      -2.031  -0.606  -1.127  0.00  0.00    +0.005 A 
ATOM     25  C   UNL     1      -2.089  -1.986  -1.128  0.00  0.00    +0.024 A 
ATOM     26  C   UNL     1      -2.484  -2.666   0.017  0.00  0.00    +0.047 A 
ATOM     27  C   UNL     1      -2.815  -1.958   1.163  0.00  0.00    +0.069 A 
BRANCH  22  29
ATOM     28  C   UNL     1      -3.012   1.549   2.202  0.00  0.00    +0.277 C 
ATOM     29  O   UNL     1      -3.090   0.124   2.278  0.00  0.00    -0.495 OA
ENDBRANCH  22  29
ENDBRANCH   1  26
BRANCH   5  30
ATOM     30  C   UNL     1      -0.392  -7.848  -1.394  0.00  0.00    +0.052 C 
BRANCH  30  31
ATOM     31  C   UNL     1      -0.085  -8.350  -2.781  0.00  0.00    -0.040 C 
ATOM     32  C   UNL     1       0.809  -7.833  -3.655  0.00  0.00    -0.001 A 
ATOM     33  C   UNL     1       1.728  -6.691  -3.577  0.00  0.00    +0.010 A 
ATOM     34  C   UNL     1       2.519  -6.412  -4.638  0.00  0.00    +0.001 A 
ATOM     35  C   UNL     1       2.483  -7.185  -5.807  0.00  0.00    +0.002 A 
ATOM     36  C   UNL     1       1.666  -8.249  -5.953  0.00  0.00    +0.026 A 
ATOM     37  C   UNL     1       0.791  -8.633  -4.900  0.00  0.00    +0.043 A 
ATOM     38  N   UNL     1      -0.081  -9.607  -4.801  0.00  0.00    -0.380 N 
ATOM     39  C   UNL     1      -0.710  -9.539  -3.477  0.00  0.00    +0.144 C 
ATOM     40  H   UNL     1      -0.274 -10.266  -5.486  0.00  0.00    +0.160 HD
ENDBRANCH  30  31
ENDBRANCH   5  30
TORSDOF 4
