REMARK  Name = ZINC40143291
REMARK  6 active torsions:
REMARK  status: ('A' for Active; 'I' for Inactive)
REMARK    1  A    between atoms: C_8  and  C_11
REMARK    2  A    between atoms: N_13  and  C_14
REMARK    3  A    between atoms: C_14  and  C_15
REMARK    4  A    between atoms: C_15  and  C_16
REMARK    5  A    between atoms: C_19  and  S_22
REMARK    6  A    between atoms: S_22  and  N_25
REMARK                            x       y       z     vdW  Elec       q    Type
REMARK                         _______ _______ _______ _____ _____    ______ ____
ROOT
ATOM      1  C   UNL     1       3.713  -3.384  -0.051  0.00  0.00    +0.262 C 
ATOM      2  O   UNL     1       3.142  -4.458  -0.051  0.00  0.00    -0.269 OA
ATOM      3  N   UNL     1       5.060  -3.336  -0.065  0.00  0.00    -0.310 N 
ATOM      4  H   UNL     1       5.514  -2.479  -0.065  0.00  0.00    +0.149 HD
ENDROOT
BRANCH   1  12
ATOM      5  C   UNL     1      -0.016   1.360   0.009  0.00  0.00    +0.001 A 
ATOM      6  C   UNL     1       1.170   2.084   0.002  0.00  0.00    +0.002 A 
ATOM      7  C   UNL     1       2.385   1.438  -0.013  0.00  0.00    +0.026 A 
ATOM      8  C   UNL     1       2.430   0.047  -0.021  0.00  0.00    +0.048 A 
ATOM      9  C   UNL     1       1.226  -0.684  -0.013  0.00  0.00    +0.019 A 
ATOM     10  C   UNL     1       0.002  -0.004   0.002  0.00  0.00    +0.011 A 
ATOM     11  C   UNL     1       1.576  -2.058  -0.024  0.00  0.00    +0.078 A 
ATOM     12  C   UNL     1       2.934  -2.139  -0.038  0.00  0.00    +0.121 A 
ATOM     13  N   UNL     1       3.463  -0.861  -0.036  0.00  0.00    -0.349 N 
ATOM     14  H   UNL     1       4.408  -0.641  -0.045  0.00  0.00    +0.166 HD
ATOM     15 CL   UNL     1       0.470  -3.396  -0.020  0.00  0.00    -0.081 Cl
ENDBRANCH   1  12
BRANCH   3  16
ATOM     16  C   UNL     1       5.837  -4.578  -0.078  0.00  0.00    +0.109 C 
BRANCH  16  17
ATOM     17  C   UNL     1       7.330  -4.245  -0.092  0.00  0.00    +0.054 C 
BRANCH  17  18
ATOM     18  C   UNL     1       8.129  -5.522  -0.105  0.00  0.00    -0.046 A 
ATOM     19  C   UNL     1       8.503  -6.117   1.085  0.00  0.00    +0.005 A 
ATOM     20  C   UNL     1       9.236  -7.289   1.072  0.00  0.00    +0.029 A 
ATOM     21  C   UNL     1       9.595  -7.866  -0.131  0.00  0.00    +0.105 A 
ATOM     22  C   UNL     1       9.221  -7.272  -1.322  0.00  0.00    +0.029 A 
ATOM     23  C   UNL     1       8.484  -6.103  -1.309  0.00  0.00    +0.005 A 
BRANCH  21  24
ATOM     24  S   UNL     1      10.531  -9.359  -0.147  0.00  0.00    +0.056 S 
ATOM     25  O   UNL     1      11.205  -9.402  -1.398  0.00  0.00    -0.153 OA
ATOM     26  O   UNL     1      11.222  -9.419   1.093  0.00  0.00    -0.153 OA
BRANCH  24  27
ATOM     27  N   UNL     1       9.450 -10.614  -0.149  0.00  0.00    -0.204 NA
ATOM     28  H   UNL     1       8.498 -10.434  -0.141  0.00  0.00    +0.144 HD
ATOM     29  H   UNL     1       9.771 -11.530  -0.157  0.00  0.00    +0.144 HD
ENDBRANCH  24  27
ENDBRANCH  21  24
ENDBRANCH  17  18
ENDBRANCH  16  17
ENDBRANCH   3  16
TORSDOF 6
