REMARK  Name = ZINC35307283
REMARK  7 active torsions:
REMARK  status: ('A' for Active; 'I' for Inactive)
REMARK    1  A    between atoms: C_1  and  C_2
REMARK    2  A    between atoms: C_7  and  C_10
REMARK    3  A    between atoms: C_11  and  C_13
REMARK    4  A    between atoms: C_13  and  S_14
REMARK    5  A    between atoms: S_14  and  C_15
REMARK    6  A    between atoms: N_22  and  C_23
REMARK    7  A    between atoms: N_22  and  C_24
REMARK                            x       y       z     vdW  Elec       q    Type
REMARK                         _______ _______ _______ _____ _____    ______ ____
ROOT
ATOM      1  C   UNL     1      -2.843  -6.851  -1.308  0.00  0.00    +0.192 A 
ATOM      2  N   UNL     1      -3.468  -7.742  -2.063  0.00  0.00    -0.207 NA
ATOM      3  C   UNL     1      -3.356  -9.042  -1.810  0.00  0.00    +0.127 A 
ATOM      4  C   UNL     1      -2.567  -9.458  -0.736  0.00  0.00    +0.083 A 
ATOM      5  C   UNL     1      -1.931  -8.495   0.027  0.00  0.00    +0.135 A 
ATOM      6  N   UNL     1      -2.084  -7.216  -0.285  0.00  0.00    -0.210 NA
ATOM      7 CL   UNL     1      -0.939  -8.958   1.374  0.00  0.00    -0.062 Cl
ATOM      8  N   UNL     1      -4.012  -9.971  -2.602  0.00  0.00    -0.315 N 
ATOM      9  C   UNL     1      -3.970 -11.393  -2.249  0.00  0.00    +0.131 C 
ENDROOT
BRANCH   8  10
ATOM     10  C   UNL     1      -4.747  -9.532  -3.790  0.00  0.00    +0.075 C 
ATOM     11  C   UNL     1      -6.220  -9.922  -3.651  0.00  0.00    +0.022 C 
ATOM     12  C   UNL     1      -6.988  -9.464  -4.893  0.00  0.00    +0.002 C 
ATOM     13  C   UNL     1      -6.397 -10.135  -6.135  0.00  0.00    +0.000 C 
ATOM     14  C   UNL     1      -4.925  -9.745  -6.273  0.00  0.00    +0.002 C 
ATOM     15  C   UNL     1      -4.157 -10.204  -5.032  0.00  0.00    +0.022 C 
ENDBRANCH   8  10
BRANCH   1  16
ATOM     16  S   UNL     1      -3.018  -5.137  -1.679  0.00  0.00    -0.077 S 
BRANCH  16  17
ATOM     17  C   UNL     1      -2.006  -4.310  -0.421  0.00  0.00    +0.173 C 
BRANCH  17  26
ATOM     18  C   UNL     1      -0.019   1.526   0.010  0.00  0.00    +0.039 C 
ATOM     19  C   UNL     1       0.002  -0.004   0.002  0.00  0.00    +0.133 C 
ATOM     20  C   UNL     1      -1.436  -0.536   0.015  0.00  0.00    +0.139 C 
ATOM     21  N   UNL     1      -1.389  -1.995   0.196  0.00  0.00    -0.296 N 
ATOM     22  C   UNL     1      -0.578  -2.530   1.302  0.00  0.00    +0.139 C 
ATOM     23  C   UNL     1       0.818  -1.901   1.226  0.00  0.00    +0.133 C 
ATOM     24  O   UNL     1       0.691  -0.479   1.161  0.00  0.00    -0.371 OA
ATOM     25  C   UNL     1       1.539  -2.407  -0.025  0.00  0.00    +0.039 C 
ATOM     26  C   UNL     1      -2.069  -2.818  -0.627  0.00  0.00    +0.226 C 
ATOM     27  O   UNL     1      -2.732  -2.358  -1.532  0.00  0.00    -0.275 OA
ENDBRANCH  17  26
ENDBRANCH  16  17
ENDBRANCH   1  16
TORSDOF 4
