REMARK  Name = ZINC14699244
REMARK  10 active torsions:
REMARK  status: ('A' for Active; 'I' for Inactive)
REMARK    1  A    between atoms: C_1  and  C_2
REMARK    2  A    between atoms: C_2  and  C_3
REMARK    3  A    between atoms: C_3  and  C_4
REMARK    4  A    between atoms: C_4  and  N_5
REMARK    5  A    between atoms: C_6  and  N_28
REMARK    6  A    between atoms: C_7  and  N_14
REMARK    7  A    between atoms: N_14  and  C_15
REMARK    8  A    between atoms: C_15  and  C_16
REMARK    9  A    between atoms: C_16  and  C_17
REMARK   10  A    between atoms: C_18  and  C_20
REMARK                            x       y       z     vdW  Elec       q    Type
REMARK                         _______ _______ _______ _____ _____    ______ ____
ROOT
ATOM      1  N   UNL     1       5.500   6.241  -0.477  0.00  0.00    -0.280 N 
ATOM      2  C   UNL     1       4.386   5.435  -0.425  0.00  0.00    +0.127 A 
ATOM      3  C   UNL     1       3.162   5.994  -0.120  0.00  0.00    +0.140 A 
ATOM      4  C   UNL     1       3.091   7.379   0.124  0.00  0.00    +0.277 A 
ATOM      5  O   UNL     1       2.021   7.900   0.391  0.00  0.00    -0.266 OA
ATOM      6  N   UNL     1       4.212   8.123   0.066  0.00  0.00    -0.273 N 
ATOM      7  H   UNL     1       4.164   9.105   0.247  0.00  0.00    +0.173 HD
ATOM      8  C   UNL     1       5.396   7.560  -0.233  0.00  0.00    +0.331 A 
ATOM      9  O   UNL     1       6.392   8.256  -0.282  0.00  0.00    -0.246 OA
ENDROOT
BRANCH   3  10
ATOM     10  N   UNL     1       2.003   5.194  -0.060  0.00  0.00    -0.260 N 
ATOM     11  C   UNL     1       1.925   4.186   0.831  0.00  0.00    +0.252 C 
ATOM     12  O   UNL     1       0.916   3.511   0.898  0.00  0.00    -0.270 OA
BRANCH  11  13
ATOM     13  C   UNL     1       3.065   3.902   1.726  0.00  0.00    +0.057 A 
ATOM     14  C   UNL     1       3.901   4.938   2.148  0.00  0.00    +0.029 A 
ATOM     15  C   UNL     1       4.965   4.666   2.984  0.00  0.00    +0.019 A 
ATOM     16  C   UNL     1       5.201   3.369   3.410  0.00  0.00    +0.017 A 
ATOM     17  C   UNL     1       4.380   2.337   2.992  0.00  0.00    +0.022 A 
ATOM     18  C   UNL     1       3.312   2.596   2.155  0.00  0.00    +0.053 A 
ATOM     19 CL   UNL     1       2.279   1.300   1.637  0.00  0.00    -0.083 Cl
ATOM     20 BR   UNL     1       6.098   6.067   3.556  0.00  0.00    -0.050 Br
ENDBRANCH  11  13
BRANCH  10  21
ATOM     21  C   UNL     1       0.883   5.459  -0.967  0.00  0.00    +0.114 C 
BRANCH  21  22
ATOM     22  C   UNL     1      -0.171   6.301  -0.244  0.00  0.00    +0.016 C 
ATOM     23  C   UNL     1      -1.400   6.460  -1.141  0.00  0.00    +0.005 C 
ENDBRANCH  21  22
ENDBRANCH  10  21
ENDBRANCH   3  10
BRANCH   2  24
ATOM     24  N   UNL     1       4.492   4.087  -0.674  0.00  0.00    -0.343 N 
ATOM     25  H   UNL     1       3.694   3.538  -0.716  0.00  0.00    +0.144 HD
ATOM     26  H   UNL     1       5.365   3.686  -0.808  0.00  0.00    +0.144 HD
ENDBRANCH   2  24
BRANCH   1  27
ATOM     27  C   UNL     1       6.805   5.660  -0.800  0.00  0.00    +0.128 C 
BRANCH  27  28
ATOM     28  C   UNL     1       7.020   5.699  -2.314  0.00  0.00    +0.021 C 
BRANCH  28  30
ATOM     29  C   UNL     1       8.599   5.132  -4.166  0.00  0.00    +0.004 C 
ATOM     30  C   UNL     1       8.384   5.093  -2.651  0.00  0.00    -0.002 C 
ENDBRANCH  28  30
ENDBRANCH  27  28
ENDBRANCH   1  27
TORSDOF 8
