REMARK  Name = ZINC63349937
REMARK  5 active torsions:
REMARK  status: ('A' for Active; 'I' for Inactive)
REMARK    1  A    between atoms: C_1  and  O_2
REMARK    2  A    between atoms: O_2  and  C_3
REMARK    3  A    between atoms: C_6  and  C_21
REMARK    4  A    between atoms: C_8  and  C_9
REMARK    5  A    between atoms: C_9  and  N_10
REMARK                            x       y       z     vdW  Elec       q    Type
REMARK                         _______ _______ _______ _____ _____    ______ ____
ROOT
ATOM      1  C   UNL     1       0.626  -0.618   1.042  0.00  0.00    +0.125 A 
ATOM      2  C   UNL     1       1.381   0.126   1.936  0.00  0.00    +0.046 A 
ATOM      3  C   UNL     1       2.014  -0.501   2.992  0.00  0.00    +0.009 A 
ATOM      4  C   UNL     1       1.895  -1.869   3.158  0.00  0.00    -0.028 A 
ATOM      5  C   UNL     1       1.143  -2.612   2.268  0.00  0.00    +0.014 A 
ATOM      6  C   UNL     1       0.503  -1.989   1.213  0.00  0.00    +0.012 A 
ENDROOT
BRANCH   4   7
ATOM      7  C   UNL     1       2.586  -2.550   4.311  0.00  0.00    +0.111 C 
ATOM      8  C   UNL     1       4.074  -2.194   4.303  0.00  0.00    +0.128 C 
ATOM      9  C   UNL     1       4.157  -0.701   4.596  0.00  0.00    -0.035 C 
ATOM     10  C   UNL     1       4.869  -0.164   3.615  0.00  0.00    -0.001 A 
ATOM     11  C   UNL     1       5.355   1.207   3.391  0.00  0.00    +0.010 A 
ATOM     12  C   UNL     1       6.059   1.414   2.247  0.00  0.00    +0.001 A 
ATOM     13  C   UNL     1       6.325   0.407   1.314  0.00  0.00    +0.002 A 
ATOM     14  C   UNL     1       5.922  -0.883   1.442  0.00  0.00    +0.026 A 
ATOM     15  C   UNL     1       5.177  -1.225   2.608  0.00  0.00    +0.043 A 
ATOM     16  N   UNL     1       4.693  -2.390   2.993  0.00  0.00    -0.376 N 
ATOM     17  C   UNL     1       3.428  -0.082   5.765  0.00  0.00    +0.048 C 
ATOM     18  C   UNL     1       1.989  -0.626   5.710  0.00  0.00    +0.086 C 
ATOM     19  N   UNL     1       2.005  -2.086   5.581  0.00  0.00    -0.307 NA
ATOM     20  H   UNL     1       1.084  -2.473   5.720  0.00  0.00    +0.123 HD
ATOM     21  H   UNL     1       4.731  -3.226   2.502  0.00  0.00    +0.160 HD
ENDBRANCH   4   7
BRANCH   1  23
ATOM     22  C   UNL     1       0.172   1.410  -0.112  0.00  0.00    +0.277 C 
ATOM     23  O   UNL     1       0.002  -0.004   0.002  0.00  0.00    -0.495 OA
ENDBRANCH   1  23
BRANCH   6  24
ATOM     24  C   UNL     1      -0.321  -2.800   0.246  0.00  0.00    +0.155 C 
BRANCH  24  25
ATOM     25  N   UNL     1      -1.745  -2.574   0.510  0.00  0.00    -0.230 N 
ATOM     26  C   UNL     1      -2.485  -3.301   1.365  0.00  0.00    +0.254 C 
ATOM     27  O   UNL     1      -2.087  -4.236   2.030  0.00  0.00    -0.270 OA
ATOM     28  C   UNL     1      -3.866  -2.773   1.359  0.00  0.00    +0.049 A 
ATOM     29  C   UNL     1      -5.035  -3.113   2.022  0.00  0.00    +0.014 A 
ATOM     30  C   UNL     1      -6.194  -2.393   1.783  0.00  0.00    +0.001 A 
ATOM     31  C   UNL     1      -6.193  -1.339   0.888  0.00  0.00    +0.001 A 
ATOM     32  C   UNL     1      -5.031  -0.988   0.218  0.00  0.00    +0.014 A 
ATOM     33  C   UNL     1      -3.864  -1.699   0.447  0.00  0.00    +0.049 A 
ATOM     34  C   UNL     1      -2.482  -1.607  -0.067  0.00  0.00    +0.254 C 
ATOM     35  O   UNL     1      -2.079  -0.796  -0.877  0.00  0.00    -0.270 OA
ENDBRANCH  24  25
ENDBRANCH   6  24
TORSDOF 4
