REMARK  Name = ZINC45411942
REMARK  8 active torsions:
REMARK  status: ('A' for Active; 'I' for Inactive)
REMARK    1  A    between atoms: C_1  and  C_2
REMARK    2  A    between atoms: C_7  and  C_8
REMARK    3  A    between atoms: C_8  and  N_9
REMARK    4  A    between atoms: C_12  and  N_15
REMARK    5  A    between atoms: N_18  and  C_19
REMARK    6  A    between atoms: C_19  and  C_20
REMARK    7  A    between atoms: C_25  and  O_26
REMARK    8  A    between atoms: O_26  and  C_27
REMARK                            x       y       z     vdW  Elec       q    Type
REMARK                         _______ _______ _______ _____ _____    ______ ____
ROOT
ATOM      1  N   UNL     1      -5.040   1.128   4.739  0.00  0.00    -0.297 N 
ATOM      2  C   UNL     1      -5.448   1.492   5.970  0.00  0.00    +0.300 C 
ATOM      3  O   UNL     1      -4.683   1.413   6.912  0.00  0.00    -0.253 OA
ATOM      4  N   UNL     1      -6.705   1.942   6.158  0.00  0.00    -0.295 N 
ATOM      5  H   UNL     1      -5.650   1.190   3.987  0.00  0.00    +0.151 HD
ATOM      6  H   UNL     1      -7.315   2.004   5.407  0.00  0.00    +0.151 HD
ENDROOT
BRANCH   1  10
ATOM      7  N   UNL     1      -1.342   0.478   2.824  0.00  0.00    +0.382 N 
ATOM      8  C   UNL     1      -2.189  -0.701   3.041  0.00  0.00    -0.077 C 
ATOM      9  C   UNL     1      -3.631  -0.258   3.294  0.00  0.00    +0.004 C 
ATOM     10  C   UNL     1      -3.674   0.639   4.535  0.00  0.00    +0.071 C 
ATOM     11  C   UNL     1      -2.730   1.826   4.327  0.00  0.00    +0.004 C 
ATOM     12  C   UNL     1      -1.321   1.306   4.035  0.00  0.00    -0.077 C 
ATOM     13  H   UNL     1      -1.711   1.018   2.055  0.00  0.00    -0.081 HD
BRANCH   7  14
ATOM     14  C   UNL     1       0.025   0.045   2.504  0.00  0.00    -0.043 C 
BRANCH  14  21
ATOM     15  C   UNL     1      -0.018   1.503   0.010  0.00  0.00    +0.044 C 
ATOM     16  C   UNL     1       0.002  -0.004   0.002  0.00  0.00    -0.049 A 
ATOM     17  C   UNL     1       0.006  -0.689  -1.199  0.00  0.00    +0.003 A 
ATOM     18  C   UNL     1       0.025  -2.071  -1.207  0.00  0.00    +0.000 A 
ATOM     19  C   UNL     1       0.040  -2.768  -0.013  0.00  0.00    +0.000 A 
ATOM     20  C   UNL     1       0.037  -2.084   1.188  0.00  0.00    +0.002 A 
ATOM     21  C   UNL     1       0.023  -0.702   1.195  0.00  0.00    -0.061 A 
ENDBRANCH  14  21
ENDBRANCH   7  14
ENDBRANCH   1  10
BRANCH   4  22
ATOM     22  C   UNL     1      -7.149   2.337   7.497  0.00  0.00    +0.144 C 
BRANCH  22  23
ATOM     23  C   UNL     1      -8.582   2.800   7.435  0.00  0.00    +0.012 A 
ATOM     24  C   UNL     1      -8.871   4.150   7.401  0.00  0.00    +0.009 A 
ATOM     25  C   UNL     1     -10.186   4.575   7.344  0.00  0.00    +0.001 A 
ATOM     26  C   UNL     1     -11.213   3.650   7.321  0.00  0.00    +0.004 A 
ATOM     27  C   UNL     1     -10.929   2.299   7.355  0.00  0.00    +0.046 A 
ATOM     28  C   UNL     1      -9.610   1.870   7.406  0.00  0.00    +0.132 A 
BRANCH  28  29
ATOM     29  O   UNL     1      -9.328   0.541   7.433  0.00  0.00    -0.434 OA
BRANCH  29  30
ATOM     30  C   UNL     1     -10.437  -0.359   7.401  0.00  0.00    +0.541 C 
ATOM     31  F   UNL     1     -11.258  -0.127   8.509  0.00  0.00    -0.166 F 
ATOM     32  F   UNL     1     -11.169  -0.155   6.227  0.00  0.00    -0.166 F 
ENDBRANCH  29  30
ENDBRANCH  28  29
ENDBRANCH  22  23
ENDBRANCH   4  22
TORSDOF 7
