REMARK  Name = ZINC39324413
REMARK  14 active torsions:
REMARK  status: ('A' for Active; 'I' for Inactive)
REMARK    1  A    between atoms: C_1  and  C_2
REMARK    2  A    between atoms: C_2  and  C_3
REMARK    3  A    between atoms: C_2  and  C_4
REMARK    4  A    between atoms: C_2  and  C_5
REMARK    5  A    between atoms: C_9  and  C_10
REMARK    6  A    between atoms: C_13  and  C_16
REMARK    7  A    between atoms: C_16  and  O_18
REMARK    8  A    between atoms: O_18  and  C_19
REMARK    9  A    between atoms: C_23  and  C_31
REMARK   10  A    between atoms: C_25  and  C_29
REMARK   11  A    between atoms: C_26  and  N_28
REMARK   12  A    between atoms: C_34  and  C_37
REMARK   13  A    between atoms: C_37  and  O_39
REMARK   14  A    between atoms: O_39  and  C_40
REMARK                            x       y       z     vdW  Elec       q    Type
REMARK                         _______ _______ _______ _____ _____    ______ ____
ROOT
ATOM      1  C   UNL     1       0.427  -0.285  -1.682  0.00  0.00    +0.003 C 
ATOM      2  C   UNL     1       0.485  -1.808  -1.496  0.00  0.00    +0.043 C 
ATOM      3  C   UNL     1       1.310  -2.360  -2.638  0.00  0.00    -0.004 C 
ATOM      4  C   UNL     1       0.943  -3.489  -3.273  0.00  0.00    +0.015 C 
ATOM      5  C   UNL     1       2.527  -1.627  -3.038  0.00  0.00    +0.133 C 
ATOM      6  C   UNL     1       2.773  -0.408  -2.559  0.00  0.00    -0.014 C 
ATOM      7  C   UNL     1       1.841   0.278  -1.593  0.00  0.00    +0.039 C 
ATOM      8  C   UNL     1       4.018   0.339  -2.982  0.00  0.00    +0.094 C 
ATOM      9  C   UNL     1       5.033  -0.612  -3.550  0.00  0.00    +0.098 C 
ATOM     10  C   UNL     1       4.660  -1.844  -3.977  0.00  0.00    +0.199 C 
ATOM     11  O   UNL     1       3.378  -2.237  -3.902  0.00  0.00    -0.441 OA
ENDROOT
BRANCH   4  12
ATOM     12  C   UNL     1      -0.174  -4.294  -2.755  0.00  0.00    -0.025 A 
ATOM     13  C   UNL     1      -1.001  -4.996  -3.640  0.00  0.00    +0.009 A 
ATOM     14  C   UNL     1      -2.036  -5.744  -3.159  0.00  0.00    +0.015 A 
ATOM     15  C   UNL     1      -2.272  -5.809  -1.782  0.00  0.00    +0.059 A 
ATOM     16  C   UNL     1      -1.446  -5.108  -0.897  0.00  0.00    +0.015 A 
ATOM     17  C   UNL     1      -0.406  -4.364  -1.377  0.00  0.00    +0.009 A 
BRANCH  15  18
ATOM     18  C   UNL     1      -3.391  -6.617  -1.262  0.00  0.00    +0.339 C 
ATOM     19  O   UNL     1      -4.108  -7.226  -2.031  0.00  0.00    -0.245 OA
BRANCH  18  20
ATOM     20  O   UNL     1      -3.618  -6.680   0.065  0.00  0.00    -0.464 OA
ATOM     21  C   UNL     1      -4.719  -7.481   0.497  0.00  0.00    +0.280 C 
ENDBRANCH  18  20
ENDBRANCH  15  18
ENDBRANCH   4  12
BRANCH   8  22
ATOM     22  C   UNL     1       3.655   1.358  -4.031  0.00  0.00    -0.035 A 
ATOM     23  C   UNL     1       3.080   0.947  -5.221  0.00  0.00    +0.005 A 
ATOM     24  C   UNL     1       2.745   1.875  -6.186  0.00  0.00    +0.015 A 
ATOM     25  C   UNL     1       2.988   3.231  -5.959  0.00  0.00    +0.059 A 
ATOM     26  C   UNL     1       3.568   3.639  -4.756  0.00  0.00    +0.015 A 
ATOM     27  C   UNL     1       3.893   2.701  -3.798  0.00  0.00    +0.005 A 
BRANCH  25  28
ATOM     28  C   UNL     1       2.632   4.230  -6.988  0.00  0.00    +0.339 C 
ATOM     29  O   UNL     1       2.128   3.873  -8.033  0.00  0.00    -0.245 OA
BRANCH  28  30
ATOM     30  O   UNL     1       2.868   5.538  -6.766  0.00  0.00    -0.464 OA
ATOM     31  C   UNL     1       2.499   6.448  -7.804  0.00  0.00    +0.280 C 
ENDBRANCH  28  30
ENDBRANCH  25  28
ENDBRANCH   8  22
BRANCH   1  33
ATOM     32  C   UNL     1      -0.492   1.851  -0.768  0.00  0.00    +0.011 C 
ATOM     33  C   UNL     1      -0.442   0.333  -0.584  0.00  0.00    -0.034 C 
ATOM     34  C   UNL     1       0.157   0.005   0.785  0.00  0.00    +0.011 C 
ATOM     35  C   UNL     1      -1.858  -0.238  -0.672  0.00  0.00    +0.011 C 
ENDBRANCH   1  33
BRANCH  10  36
ATOM     36  N   UNL     1       5.604  -2.698  -4.491  0.00  0.00    -0.328 N 
ATOM     37  H   UNL     1       6.531  -2.420  -4.548  0.00  0.00    +0.145 HD
ATOM     38  H   UNL     1       5.343  -3.581  -4.798  0.00  0.00    +0.145 HD
ENDBRANCH  10  36
BRANCH   9  39
ATOM     39  C   UNL     1       6.405  -0.213  -3.640  0.00  0.00    +0.101 C 
ATOM     40  N   UNL     1       7.494   0.102  -3.712  0.00  0.00    -0.191 NA
ENDBRANCH   9  39
TORSDOF 9
