REMARK  Name = ZINC31057018
REMARK  7 active torsions:
REMARK  status: ('A' for Active; 'I' for Inactive)
REMARK    1  A    between atoms: C_4  and  C_7
REMARK    2  A    between atoms: C_7  and  C_8
REMARK    3  A    between atoms: C_7  and  N_14
REMARK    4  A    between atoms: C_15  and  C_17
REMARK    5  A    between atoms: N_22  and  C_24
REMARK    6  A    between atoms: C_24  and  C_25
REMARK    7  A    between atoms: C_27  and  C_30
REMARK                            x       y       z     vdW  Elec       q    Type
REMARK                         _______ _______ _______ _____ _____    ______ ____
ROOT
ATOM      1  C   UNL     1      -1.330   1.944   0.019  0.00  0.00    +0.058 C 
ATOM      2  C   UNL     1      -1.417   2.817   1.274  0.00  0.00    +0.009 C 
ATOM      3  C   UNL     1      -2.780   3.514   1.307  0.00  0.00    -0.018 C 
ATOM      4  C   UNL     1      -3.888   2.459   1.275  0.00  0.00    -0.078 C 
ATOM      5  N   UNL     1      -3.761   1.651   0.055  0.00  0.00    +0.386 N 
ATOM      6  C   UNL     1      -2.480   0.935   0.024  0.00  0.00    -0.065 C 
ATOM      7  H   UNL     1      -3.783   2.337  -0.805  0.00  0.00    -0.081 HD
ENDROOT
BRANCH   1   9
ATOM      8  N   UNL     1       1.143   1.898   0.001  0.00  0.00    -0.304 N 
ATOM      9  C   UNL     1      -0.014   1.209   0.009  0.00  0.00    +0.215 C 
ATOM     10  O   UNL     1       0.002  -0.004   0.002  0.00  0.00    -0.276 OA
ATOM     11  H   UNL     1       1.129   2.998   0.007  0.00  0.00    +0.150 HD
BRANCH   8  12
ATOM     12  C   UNL     1       2.422   1.183  -0.015  0.00  0.00    +0.134 C 
BRANCH  12  16
ATOM     13  C   UNL     1       3.454   0.203  -4.042  0.00  0.00    +0.000 A 
ATOM     14  C   UNL     1       3.684  -0.708  -3.029  0.00  0.00    +0.000 A 
ATOM     15  C   UNL     1       3.350  -0.391  -1.725  0.00  0.00    +0.006 A 
ATOM     16  C   UNL     1       2.786   0.838  -1.435  0.00  0.00    -0.023 A 
ATOM     17  C   UNL     1       2.551   1.747  -2.450  0.00  0.00    +0.006 A 
ATOM     18  C   UNL     1       2.890   1.431  -3.753  0.00  0.00    +0.000 A 
ENDBRANCH  12  16
BRANCH  12  19
ATOM     19  C   UNL     1       3.495   2.058   0.580  0.00  0.00    -0.023 A 
ATOM     20  C   UNL     1       3.524   3.410   0.290  0.00  0.00    +0.006 A 
ATOM     21  C   UNL     1       4.505   4.214   0.840  0.00  0.00    +0.000 A 
ATOM     22  C   UNL     1       5.463   3.664   1.671  0.00  0.00    +0.000 A 
ATOM     23  C   UNL     1       5.437   2.312   1.957  0.00  0.00    +0.000 A 
ATOM     24  C   UNL     1       4.453   1.509   1.412  0.00  0.00    +0.006 A 
ENDBRANCH  12  19
ENDBRANCH   8  12
ENDBRANCH   1   9
BRANCH   5  25
ATOM     25  C   UNL     1      -4.889   0.719  -0.079  0.00  0.00    +0.022 C 
BRANCH  25  26
ATOM     26  C   UNL     1      -6.161   1.497  -0.295  0.00  0.00    +0.211 A 
ATOM     27  N   UNL     1      -6.660   1.866  -1.448  0.00  0.00    -0.192 NA
ATOM     28  C   UNL     1      -7.801   2.532  -1.155  0.00  0.00    +0.209 A 
ATOM     29  N   UNL     1      -7.921   2.534   0.150  0.00  0.00    -0.056 NA
ATOM     30  O   UNL     1      -6.988   1.945   0.654  0.00  0.00    -0.340 OA
BRANCH  28  31
ATOM     31  C   UNL     1      -8.733   3.146  -2.123  0.00  0.00    +0.060 A 
ATOM     32  C   UNL     1      -9.894   3.833  -1.887  0.00  0.00    +0.019 A 
ATOM     33  C   UNL     1     -10.605   4.319  -2.959  0.00  0.00    +0.008 A 
ATOM     34  C   UNL     1     -10.137   4.105  -4.217  0.00  0.00    +0.046 A 
ATOM     35  S   UNL     1      -8.635   3.192  -3.905  0.00  0.00    -0.093 S 
ENDBRANCH  28  31
ENDBRANCH  25  26
ENDBRANCH   5  25
TORSDOF 7
