REMARK  Name = ZINC08971870
REMARK  9 active torsions:
REMARK  status: ('A' for Active; 'I' for Inactive)
REMARK    1  A    between atoms: C_1  and  S_2
REMARK    2  A    between atoms: S_2  and  C_5
REMARK    3  A    between atoms: C_8  and  C_10
REMARK    4  A    between atoms: C_10  and  C_11
REMARK    5  A    between atoms: C_11  and  N_12
REMARK    6  A    between atoms: C_13  and  C_15
REMARK    7  A    between atoms: C_15  and  C_16
REMARK    8  A    between atoms: C_16  and  C_17
REMARK    9  A    between atoms: C_17  and  N_18
REMARK                            x       y       z     vdW  Elec       q    Type
REMARK                         _______ _______ _______ _____ _____    ______ ____
ROOT
ATOM      1  N   UNL     1      -0.018   1.461   0.010  0.00  0.00    -0.315 N 
ATOM      2  C   UNL     1       1.140   2.151   0.003  0.00  0.00    +0.213 C 
ATOM      3  O   UNL     1       2.199   1.558  -0.011  0.00  0.00    -0.276 OA
ATOM      4  H   UNL     1      -0.864   1.934   0.017  0.00  0.00    +0.149 HD
ENDROOT
BRANCH   1   5
ATOM      5  C   UNL     1       0.002  -0.004   0.002  0.00  0.00    +0.113 C 
BRANCH   5   6
ATOM      6  C   UNL     1      -1.433  -0.534   0.013  0.00  0.00    +0.116 C 
BRANCH   6  10
ATOM      7  C   UNL     1      -1.391  -4.095  -0.632  0.00  0.00    +0.360 A 
ATOM      8  N   UNL     1      -1.379  -4.046   0.670  0.00  0.00    -0.090 NA
ATOM      9  N   UNL     1      -1.387  -2.817   1.050  0.00  0.00    -0.111 NA
ATOM     10  C   UNL     1      -1.413  -2.041   0.005  0.00  0.00    +0.220 A 
ATOM     11  O   UNL     1      -1.412  -2.830  -1.083  0.00  0.00    -0.407 OA
BRANCH   7  13
ATOM     12  C   UNL     1      -3.131  -5.964  -1.865  0.00  0.00    +0.206 C 
ATOM     13  S   UNL     1      -1.381  -5.554  -1.620  0.00  0.00    +0.047 S 
ATOM     14  O   UNL     1      -0.795  -5.154  -2.852  0.00  0.00    -0.165 OA
ATOM     15  O   UNL     1      -0.756  -6.538  -0.807  0.00  0.00    -0.165 OA
ENDBRANCH   7  13
ENDBRANCH   6  10
ENDBRANCH   5   6
ENDBRANCH   1   5
BRANCH   2  16
ATOM     16  C   UNL     1       1.120   3.657   0.011  0.00  0.00    +0.097 C 
BRANCH  16  17
ATOM     17  C   UNL     1       2.555   4.187   0.000  0.00  0.00    +0.029 C 
BRANCH  17  18
ATOM     18  C   UNL     1       2.534   5.717   0.009  0.00  0.00    +0.117 C 
BRANCH  18  19
ATOM     19  N   UNL     1       3.909   6.224  -0.002  0.00  0.00    -0.234 N 
ATOM     20  C   UNL     1       4.631   6.487   1.102  0.00  0.00    +0.254 C 
ATOM     21  O   UNL     1       4.254   6.343   2.247  0.00  0.00    -0.270 OA
ATOM     22  C   UNL     1       5.963   6.977   0.687  0.00  0.00    +0.049 A 
ATOM     23  C   UNL     1       7.097   7.390   1.368  0.00  0.00    +0.014 A 
ATOM     24  C   UNL     1       8.211   7.808   0.657  0.00  0.00    +0.001 A 
ATOM     25  C   UNL     1       8.198   7.815  -0.725  0.00  0.00    +0.001 A 
ATOM     26  C   UNL     1       7.071   7.404  -1.420  0.00  0.00    +0.014 A 
ATOM     27  C   UNL     1       5.950   6.984  -0.722  0.00  0.00    +0.049 A 
ATOM     28  C   UNL     1       4.612   6.493  -1.116  0.00  0.00    +0.254 C 
ATOM     29  O   UNL     1       4.215   6.356  -2.256  0.00  0.00    -0.270 OA
ENDBRANCH  18  19
ENDBRANCH  17  18
ENDBRANCH  16  17
ENDBRANCH   2  16
TORSDOF 8
