REMARK  Name = ZINC35551677
REMARK  7 active torsions:
REMARK  status: ('A' for Active; 'I' for Inactive)
REMARK    1  A    between atoms: C_1  and  C_2
REMARK    2  A    between atoms: C_2  and  C_3
REMARK    3  A    between atoms: C_4  and  C_38
REMARK    4  A    between atoms: C_6  and  C_28
REMARK    5  A    between atoms: C_8  and  N_9
REMARK    6  A    between atoms: N_17  and  C_18
REMARK    7  A    between atoms: C_31  and  C_34
REMARK                            x       y       z     vdW  Elec       q    Type
REMARK                         _______ _______ _______ _____ _____    ______ ____
ROOT
ATOM      1  C   UNL     1       0.920   0.299   2.621  0.00  0.00    +0.011 A 
ATOM      2  C   UNL     1       2.273   0.079   2.440  0.00  0.00    +0.021 A 
ATOM      3  N   UNL     1       2.700  -1.145   2.170  0.00  0.00    -0.343 N 
ATOM      4  C   UNL     1       1.849  -2.157   2.071  0.00  0.00    +0.140 A 
ATOM      5  N   UNL     1       0.545  -1.988   2.237  0.00  0.00    -0.214 NA
ATOM      6  C   UNL     1       0.048  -0.788   2.516  0.00  0.00    +0.128 A 
ATOM      7  C   UNL     1       3.251   1.220   2.549  0.00  0.00    +0.064 C 
ATOM      8  H   UNL     1       3.648  -1.304   2.043  0.00  0.00    +0.167 HD
ENDROOT
BRANCH   6   9
ATOM      9  N   UNL     1      -1.315  -0.615   2.694  0.00  0.00    -0.312 N 
ATOM     10  C   UNL     1      -2.183  -0.292   1.554  0.00  0.00    +0.125 C 
ATOM     11  C   UNL     1      -3.304  -1.336   1.480  0.00  0.00    +0.128 C 
ATOM     12  N   UNL     1      -3.907  -1.473   2.813  0.00  0.00    -0.283 N 
ATOM     13  C   UNL     1      -3.038  -1.797   3.953  0.00  0.00    +0.128 C 
ATOM     14  C   UNL     1      -1.919  -0.758   4.027  0.00  0.00    +0.125 C 
ATOM     15  C   UNL     1      -5.233  -1.305   2.986  0.00  0.00    +0.303 C 
ATOM     16  O   UNL     1      -5.955  -1.131   2.023  0.00  0.00    -0.253 OA
ATOM     17  N   UNL     1      -5.759  -1.330   4.227  0.00  0.00    -0.294 N 
ATOM     18  H   UNL     1      -5.196  -1.541   4.988  0.00  0.00    +0.151 HD
BRANCH  17  19
ATOM     19  C   UNL     1      -7.181  -1.039   4.426  0.00  0.00    +0.037 C 
ATOM     20  C   UNL     1      -7.487   0.373   3.923  0.00  0.00    +0.029 C 
ATOM     21  C   UNL     1      -8.972   0.677   4.130  0.00  0.00    -0.008 C 
ATOM     22  C   UNL     1      -9.309   0.582   5.620  0.00  0.00    +0.007 C 
ATOM     23  C   UNL     1      -9.002  -0.830   6.123  0.00  0.00    -0.008 C 
ATOM     24  C   UNL     1      -7.517  -1.134   5.915  0.00  0.00    +0.029 C 
ATOM     25  C   UNL     1      -9.844  -1.843   5.345  0.00  0.00    +0.007 C 
ATOM     26  C   UNL     1      -9.508  -1.748   3.855  0.00  0.00    -0.008 C 
ATOM     27  C   UNL     1      -9.814  -0.336   3.352  0.00  0.00    +0.007 C 
ATOM     28  C   UNL     1      -8.023  -2.052   3.647  0.00  0.00    +0.029 C 
ENDBRANCH  17  19
ENDBRANCH   6   9
BRANCH   4  29
ATOM     29  C   UNL     1       2.369  -3.512   1.766  0.00  0.00    +0.017 A 
ATOM     30  C   UNL     1       3.738  -3.713   1.593  0.00  0.00    +0.012 A 
ATOM     31  C   UNL     1       4.216  -4.976   1.309  0.00  0.00    +0.013 A 
ATOM     32  C   UNL     1       3.341  -6.041   1.197  0.00  0.00    +0.055 A 
ATOM     33  C   UNL     1       1.982  -5.848   1.368  0.00  0.00    +0.013 A 
ATOM     34  C   UNL     1       1.493  -4.590   1.657  0.00  0.00    +0.012 A 
BRANCH  32  35
ATOM     35  C   UNL     1       3.870  -7.418   0.886  0.00  0.00    +0.417 C 
ATOM     36  F   UNL     1       4.162  -8.086   2.081  0.00  0.00    -0.166 F 
ATOM     37  F   UNL     1       2.905  -8.138   0.173  0.00  0.00    -0.166 F 
ATOM     38  F   UNL     1       5.033  -7.308   0.117  0.00  0.00    -0.166 F 
ENDBRANCH  32  35
ENDBRANCH   4  29
BRANCH   1  40
ATOM     39  C   UNL     1       0.501   1.937   4.434  0.00  0.00    +0.009 C 
ATOM     40  C   UNL     1       0.399   1.678   2.930  0.00  0.00    +0.037 C 
ENDBRANCH   1  40
TORSDOF 5
