REMARK  Name = ZINC64410878
REMARK  8 active torsions:
REMARK  status: ('A' for Active; 'I' for Inactive)
REMARK    1  A    between atoms: C_1  and  C_2
REMARK    2  A    between atoms: C_2  and  C_3
REMARK    3  A    between atoms: C_3  and  S_4
REMARK    4  A    between atoms: S_4  and  N_7
REMARK    5  A    between atoms: N_10  and  C_13
REMARK    6  A    between atoms: C_13  and  C_14
REMARK    7  A    between atoms: C_20  and  O_24
REMARK    8  A    between atoms: O_24  and  C_25
REMARK                            x       y       z     vdW  Elec       q    Type
REMARK                         _______ _______ _______ _____ _____    ______ ____
ROOT
ATOM      1  C   UNL     1       3.083  -5.526  -5.371  0.00  0.00    +0.131 C 
ENDROOT
BRANCH   1   2
ATOM      2  C   UNL     1       2.579  -5.452  -6.813  0.00  0.00    +0.188 C 
ATOM      3  N   UNL     1       3.186  -4.307  -7.501  0.00  0.00    -0.362 N 
ATOM      4  C   UNL     1       2.222  -3.513  -7.870  0.00  0.00    +0.060 A 
ATOM      5  C   UNL     1       2.216  -2.230  -8.587  0.00  0.00    +0.031 A 
ATOM      6  C   UNL     1       1.048  -1.611  -8.843  0.00  0.00    +0.048 A 
ATOM      7  C   UNL     1      -0.229  -2.176  -8.427  0.00  0.00    +0.122 A 
ATOM      8  C   UNL     1      -0.307  -3.354  -7.761  0.00  0.00    +0.073 A 
ATOM      9  C   UNL     1       0.918  -4.092  -7.445  0.00  0.00    +0.064 A 
ATOM     10  N   UNL     1       1.129  -5.224  -6.828  0.00  0.00    -0.362 N 
ATOM     11  H   UNL     1       4.134  -4.166  -7.653  0.00  0.00    +0.162 HD
ATOM     12  H   UNL     1       0.452  -5.808  -6.451  0.00  0.00    +0.162 HD
BRANCH   7  13
ATOM     13  O   UNL     1      -1.371  -1.504  -8.713  0.00  0.00    -0.495 OA
ATOM     14  C   UNL     1      -1.238  -0.267  -9.415  0.00  0.00    +0.277 C 
ENDBRANCH   7  13
ENDBRANCH   1   2
BRANCH   1  18
ATOM     15  N   UNL     1       2.331  -2.317  -2.772  0.00  0.00    -0.179 NA
ATOM     16  C   UNL     1       1.348  -2.557  -3.840  0.00  0.00    +0.124 C 
ATOM     17  C   UNL     1       1.515  -3.996  -4.341  0.00  0.00    +0.101 C 
ATOM     18  N   UNL     1       2.916  -4.218  -4.725  0.00  0.00    -0.296 NA
ATOM     19  C   UNL     1       3.813  -4.081  -3.570  0.00  0.00    +0.101 C 
ATOM     20  C   UNL     1       3.741  -2.641  -3.039  0.00  0.00    +0.124 C 
BRANCH  15  21
ATOM     21  S   UNL     1       1.864  -1.693  -1.311  0.00  0.00    +0.032 S 
ATOM     22  O   UNL     1       2.845  -2.153  -0.391  0.00  0.00    -0.158 OA
ATOM     23  O   UNL     1       0.503  -2.077  -1.172  0.00  0.00    -0.158 OA
BRANCH  21  24
ATOM     24  C   UNL     1       1.990   0.105  -1.511  0.00  0.00    +0.185 C 
BRANCH  24  26
ATOM     25  C   UNL     1       1.683   2.310  -0.377  0.00  0.00    +0.005 C 
ATOM     26  C   UNL     1       1.577   0.793  -0.208  0.00  0.00    +0.021 C 
ENDBRANCH  24  26
ENDBRANCH  21  24
ENDBRANCH  15  21
ENDBRANCH   1  18
TORSDOF 6
