REMARK  Name = ZINC15002830
REMARK  12 active torsions:
REMARK  status: ('A' for Active; 'I' for Inactive)
REMARK    1  A    between atoms: C_1  and  C_2
REMARK    2  A    between atoms: C_2  and  C_3
REMARK    3  A    between atoms: C_2  and  N_4
REMARK    4  A    between atoms: C_6  and  C_18
REMARK    5  A    between atoms: C_9  and  C_11
REMARK    6  A    between atoms: N_13  and  C_14
REMARK    7  A    between atoms: C_14  and  C_15
REMARK    8  A    between atoms: C_14  and  C_16
REMARK    9  A    between atoms: C_14  and  C_17
REMARK   10  A    between atoms: N_20  and  C_21
REMARK   11  A    between atoms: C_21  and  C_23
REMARK   12  A    between atoms: C_21  and  C_29
REMARK                            x       y       z     vdW  Elec       q    Type
REMARK                         _______ _______ _______ _____ _____    ______ ____
ROOT
ATOM      1  N   UNL     1       0.044  -4.200  -0.047  0.00  0.00    -0.349 N 
ATOM      2  C   UNL     1       0.621  -4.947   0.909  0.00  0.00    +0.102 A 
ATOM      3  C   UNL     1       1.249  -4.370   1.991  0.00  0.00    +0.100 A 
ATOM      4  C   UNL     1       1.277  -2.900   2.080  0.00  0.00    +0.206 A 
ATOM      5  O   UNL     1       1.818  -2.330   3.013  0.00  0.00    -0.286 OA
ATOM      6  C   UNL     1       0.624  -2.148   0.995  0.00  0.00    +0.100 A 
ATOM      7  C   UNL     1       0.028  -2.857  -0.024  0.00  0.00    +0.102 A 
ENDROOT
BRANCH   6   8
ATOM      8  C   UNL     1       0.604  -0.675   1.004  0.00  0.00    +0.250 C 
ATOM      9  O   UNL     1       1.131  -0.065   1.914  0.00  0.00    -0.270 OA
ATOM     10  N   UNL     1       0.002  -0.004   0.002  0.00  0.00    -0.306 N 
ATOM     11  H   UNL     1      -0.418  -0.491  -0.724  0.00  0.00    +0.150 HD
BRANCH  10  12
ATOM     12  C   UNL     1      -0.018   1.461   0.010  0.00  0.00    +0.026 C 
ATOM     13  C   UNL     1       1.418   1.990  -0.001  0.00  0.00    +0.031 C 
ATOM     14  C   UNL     1      -0.758   1.968  -1.230  0.00  0.00    +0.031 C 
ATOM     15  C   UNL     1      -0.734   1.954   1.269  0.00  0.00    +0.031 C 
ENDBRANCH  10  12
ENDBRANCH   6   8
BRANCH   3  16
ATOM     16  C   UNL     1       1.878  -5.202   3.031  0.00  0.00    +0.250 C 
ATOM     17  O   UNL     1       2.429  -4.676   3.980  0.00  0.00    -0.270 OA
ATOM     18  N   UNL     1       1.842  -6.545   2.933  0.00  0.00    -0.300 N 
ATOM     19  H   UNL     1       1.403  -6.965   2.177  0.00  0.00    +0.150 HD
BRANCH  18  20
ATOM     20  C   UNL     1       2.467  -7.372   3.968  0.00  0.00    +0.134 C 
BRANCH  20  21
ATOM     21  C   UNL     1       1.808  -8.727   3.994  0.00  0.00    -0.023 A 
ATOM     22  C   UNL     1       1.454  -9.347   2.810  0.00  0.00    +0.007 A 
ATOM     23  C   UNL     1       0.855 -10.592   2.833  0.00  0.00    +0.020 A 
ATOM     24  C   UNL     1       0.599 -11.214   4.042  0.00  0.00    +0.041 A 
ATOM     25  C   UNL     1       0.948 -10.591   5.227  0.00  0.00    +0.020 A 
ATOM     26  C   UNL     1       1.553  -9.348   5.202  0.00  0.00    +0.007 A 
ATOM     27 CL   UNL     1      -0.161 -12.774   4.072  0.00  0.00    -0.084 Cl
ENDBRANCH  20  21
BRANCH  20  28
ATOM     28  C   UNL     1       3.935  -7.533   3.664  0.00  0.00    -0.023 A 
ATOM     29  C   UNL     1       4.353  -7.730   2.361  0.00  0.00    +0.006 A 
ATOM     30  C   UNL     1       5.699  -7.873   2.082  0.00  0.00    +0.000 A 
ATOM     31  C   UNL     1       6.626  -7.829   3.106  0.00  0.00    +0.000 A 
ATOM     32  C   UNL     1       6.207  -7.638   4.410  0.00  0.00    +0.000 A 
ATOM     33  C   UNL     1       4.862  -7.490   4.689  0.00  0.00    +0.006 A 
ENDBRANCH  20  28
ENDBRANCH  18  20
ENDBRANCH   3  16
BRANCH   1  35
ATOM     34  C   UNL     1       0.424  -5.743  -1.906  0.00  0.00    +0.030 C 
ATOM     35  C   UNL     1      -0.605  -4.885  -1.167  0.00  0.00    +0.081 C 
ATOM     36  C   UNL     1      -1.728  -5.778  -0.637  0.00  0.00    +0.030 C 
ENDBRANCH   1  35
TORSDOF 7
