REMARK  Name = ZINC21240013
REMARK  7 active torsions:
REMARK  status: ('A' for Active; 'I' for Inactive)
REMARK    1  A    between atoms: C_1  and  C_2
REMARK    2  A    between atoms: C_2  and  C_3
REMARK    3  A    between atoms: C_6  and  C_9
REMARK    4  A    between atoms: C_14  and  C_24
REMARK    5  A    between atoms: C_26  and  O_32
REMARK    6  A    between atoms: C_27  and  O_31
REMARK    7  A    between atoms: O_32  and  C_33
REMARK                            x       y       z     vdW  Elec       q    Type
REMARK                         _______ _______ _______ _____ _____    ______ ____
ROOT
ATOM      1  C   UNL     1       0.110   1.857  -0.094  0.00  0.00    +0.032 C 
ATOM      2  C   UNL     1       0.088   0.335   0.033  0.00  0.00    +0.059 C 
ATOM      3  C   UNL     1       0.751  -0.294  -1.182  0.00  0.00    +0.017 C 
ATOM      4  C   UNL     1       1.774   0.325  -1.794  0.00  0.00    +0.036 C 
ATOM      5  C   UNL     1       2.535  -0.194  -2.991  0.00  0.00    +0.136 C 
ATOM      6  N   UNL     1       1.923  -1.333  -3.642  0.00  0.00    -0.331 N 
ATOM      7  C   UNL     1       1.793  -2.555  -2.984  0.00  0.00    +0.049 A 
ATOM      8  C   UNL     1       2.511  -3.670  -3.383  0.00  0.00    +0.025 A 
ATOM      9  C   UNL     1       2.433  -4.832  -2.635  0.00  0.00    +0.002 A 
ATOM     10  C   UNL     1       1.645  -4.882  -1.500  0.00  0.00    +0.002 A 
ATOM     11  C   UNL     1       0.909  -3.776  -1.111  0.00  0.00    +0.025 A 
ATOM     12  C   UNL     1       0.973  -2.619  -1.868  0.00  0.00    +0.052 A 
ATOM     13  N   UNL     1       0.226  -1.487  -1.560  0.00  0.00    -0.316 N 
ATOM     14  C   UNL     1       2.221   1.587  -1.335  0.00  0.00    +0.163 C 
ATOM     15  O   UNL     1       3.162   2.114  -1.896  0.00  0.00    -0.292 OA
ATOM     16  C   UNL     1       1.577   2.297  -0.183  0.00  0.00    +0.088 C 
ATOM     17  H   UNL     1       1.552  -1.242  -4.674  0.00  0.00    +0.147 HD
ATOM     18  H   UNL     1      -0.864  -1.608  -1.640  0.00  0.00    +0.152 HD
ENDROOT
BRANCH   5  19
ATOM     19  C   UNL     1       3.918  -0.588  -2.539  0.00  0.00    -0.018 A 
ATOM     20  C   UNL     1       5.020   0.102  -3.010  0.00  0.00    +0.055 A 
ATOM     21  C   UNL     1       6.292  -0.259  -2.597  0.00  0.00    +0.163 A 
ATOM     22  C   UNL     1       6.458  -1.315  -1.707  0.00  0.00    +0.173 A 
ATOM     23  C   UNL     1       5.349  -2.002  -1.237  0.00  0.00    +0.063 A 
ATOM     24  C   UNL     1       4.081  -1.633  -1.651  0.00  0.00    +0.025 A 
ATOM     25 BR   UNL     1       5.569  -3.439  -0.028  0.00  0.00    -0.046 Br
BRANCH  22  26
ATOM     26  O   UNL     1       7.705  -1.673  -1.298  0.00  0.00    -0.503 OA
ATOM     27  H   UNL     1       7.834  -2.509  -0.594  0.00  0.00    +0.292 HD
ENDBRANCH  22  26
BRANCH  21  28
ATOM     28  O   UNL     1       7.377   0.418  -3.060  0.00  0.00    -0.491 OA
ATOM     29  C   UNL     1       7.131   1.491  -3.972  0.00  0.00    +0.277 C 
ENDBRANCH  21  28
ENDBRANCH   5  19
BRANCH   1  33
ATOM     30  C   UNL     1      -1.724   3.622   3.336  0.00  0.00    -0.048 A 
ATOM     31  C   UNL     1      -2.245   3.855   2.077  0.00  0.00    +0.004 A 
ATOM     32  C   UNL     1      -1.651   3.284   0.967  0.00  0.00    +0.004 A 
ATOM     33  C   UNL     1      -0.537   2.480   1.116  0.00  0.00    -0.043 A 
ATOM     34  C   UNL     1      -0.019   2.243   2.376  0.00  0.00    +0.004 A 
ATOM     35  C   UNL     1      -0.610   2.817   3.486  0.00  0.00    +0.004 A 
BRANCH  30  37
ATOM     36  C   UNL     1      -3.443   3.302   5.095  0.00  0.00    +0.009 C 
ATOM     37  C   UNL     1      -2.371   4.246   4.546  0.00  0.00    +0.032 C 
ENDBRANCH  30  37
ENDBRANCH   1  33
TORSDOF 5
