REMARK  Name = ZINC45330307
REMARK  7 active torsions:
REMARK  status: ('A' for Active; 'I' for Inactive)
REMARK    1  A    between atoms: C_4  and  N_7
REMARK    2  A    between atoms: N_10  and  C_13
REMARK    3  A    between atoms: C_13  and  C_14
REMARK    4  A    between atoms: C_14  and  C_15
REMARK    5  A    between atoms: N_17  and  N_18
REMARK    6  A    between atoms: C_19  and  C_20
REMARK    7  A    between atoms: C_23  and  C_25
REMARK                            x       y       z     vdW  Elec       q    Type
REMARK                         _______ _______ _______ _____ _____    ______ ____
ROOT
ATOM      1  C   UNL     1       7.912  -4.654  -2.737  0.00  0.00    +0.230 C 
ATOM      2  O   UNL     1       8.314  -3.974  -3.658  0.00  0.00    -0.274 OA
ATOM      3  N   UNL     1       8.275  -5.949  -2.646  0.00  0.00    -0.207 N 
ATOM      4  H   UNL     1       7.954  -6.492  -1.910  0.00  0.00    +0.177 HD
ENDROOT
BRANCH   3   5
ATOM      5  N   UNL     1       9.118  -6.510  -3.615  0.00  0.00    -0.185 NA
ATOM      6  C   UNL     1       9.469  -7.760  -3.526  0.00  0.00    +0.176 C 
BRANCH   6   7
ATOM      7  C   UNL     1      10.350  -8.346  -4.539  0.00  0.00    +0.148 A 
ATOM      8  C   UNL     1      10.792  -9.650  -4.569  0.00  0.00    +0.051 A 
ATOM      9  C   UNL     1      11.606  -9.775  -5.702  0.00  0.00    +0.050 A 
ATOM     10  C   UNL     1      11.630  -8.557  -6.315  0.00  0.00    +0.136 A 
ATOM     11  O   UNL     1      10.865  -7.704  -5.607  0.00  0.00    -0.454 OA
BRANCH  10  12
ATOM     12  C   UNL     1      12.368  -8.230  -7.550  0.00  0.00    +0.017 A 
ATOM     13  C   UNL     1      13.121  -9.212  -8.199  0.00  0.00    +0.014 A 
ATOM     14  C   UNL     1      13.807  -8.900  -9.353  0.00  0.00    +0.039 A 
ATOM     15  C   UNL     1      13.752  -7.615  -9.870  0.00  0.00    +0.123 A 
ATOM     16  C   UNL     1      13.007  -6.636  -9.231  0.00  0.00    +0.039 A 
ATOM     17  C   UNL     1      12.311  -6.938  -8.079  0.00  0.00    +0.014 A 
ATOM     18  F   UNL     1      14.427  -7.315 -11.001  0.00  0.00    -0.205 F 
ENDBRANCH  10  12
ENDBRANCH   6   7
ENDBRANCH   3   5
BRANCH   1  19
ATOM     19  C   UNL     1       7.005  -4.051  -1.695  0.00  0.00    +0.079 C 
BRANCH  19  20
ATOM     20  C   UNL     1       6.750  -2.580  -2.031  0.00  0.00    -0.069 C 
BRANCH  20  24
ATOM     21  N   UNL     1       3.620  -0.649  -0.036  0.00  0.00    -0.333 N 
ATOM     22  C   UNL     1       4.892   0.081  -0.149  0.00  0.00    +0.086 C 
ATOM     23  C   UNL     1       5.719  -0.554  -1.271  0.00  0.00    -0.060 C 
ATOM     24  N   UNL     1       5.867  -1.992  -1.016  0.00  0.00    +0.382 N 
ATOM     25  C   UNL     1       4.554  -2.648  -1.073  0.00  0.00    -0.060 C 
ATOM     26  C   UNL     1       3.669  -2.116   0.065  0.00  0.00    +0.086 C 
ATOM     27  H   UNL     1       6.270  -2.130  -0.101  0.00  0.00    -0.082 HD
BRANCH  21  31
ATOM     28  C   UNL     1      -0.017   1.379   0.011  0.00  0.00    +0.000 A 
ATOM     29  C   UNL     1       0.002  -0.004  -0.011  0.00  0.00    +0.002 A 
ATOM     30  C   UNL     1       1.206  -0.680  -0.027  0.00  0.00    +0.023 A 
ATOM     31  C   UNL     1       2.400   0.031  -0.021  0.00  0.00    +0.030 A 
ATOM     32  C   UNL     1       2.377   1.420   0.002  0.00  0.00    +0.023 A 
ATOM     33  C   UNL     1       1.170   2.089   0.018  0.00  0.00    +0.002 A 
ENDBRANCH  21  31
ENDBRANCH  20  24
ENDBRANCH  19  20
ENDBRANCH   1  19
TORSDOF 7
