REMARK  Name = ZINC00608085
REMARK  6 active torsions:
REMARK  status: ('A' for Active; 'I' for Inactive)
REMARK    1  A    between atoms: C_1  and  N_53
REMARK    2  A    between atoms: C_6  and  C_8
REMARK    3  A    between atoms: C_8  and  C_9
REMARK    4  A    between atoms: C_9  and  N_10
REMARK    5  A    between atoms: C_21  and  S_24
REMARK    6  A    between atoms: S_24  and  C_27
REMARK                            x       y       z     vdW  Elec       q    Type
REMARK                         _______ _______ _______ _____ _____    ______ ____
ROOT
ATOM      1  N   UNL     1      -2.751   1.619   4.263  0.00  0.00    -0.298 N 
ATOM      2  C   UNL     1      -3.954   1.047   4.669  0.00  0.00    +0.048 A 
ATOM      3  C   UNL     1      -4.172  -0.304   4.423  0.00  0.00    +0.024 A 
ATOM      4  C   UNL     1      -5.357  -0.902   4.808  0.00  0.00    +0.002 A 
ATOM      5  C   UNL     1      -6.336  -0.161   5.442  0.00  0.00    +0.001 A 
ATOM      6  C   UNL     1      -6.129   1.183   5.694  0.00  0.00    +0.017 A 
ATOM      7  C   UNL     1      -4.941   1.789   5.313  0.00  0.00    +0.034 A 
ATOM      8  S   UNL     1      -4.689   3.498   5.655  0.00  0.00    -0.086 S 
ATOM      9  C   UNL     1      -2.950   3.715   5.485  0.00  0.00    +0.034 A 
ATOM     10  C   UNL     1      -2.181   2.759   4.823  0.00  0.00    +0.050 A 
ATOM     11  C   UNL     1      -0.807   2.946   4.711  0.00  0.00    +0.051 A 
ATOM     12  C   UNL     1      -0.209   4.069   5.252  0.00  0.00    +0.090 A 
ATOM     13  C   UNL     1      -0.972   5.015   5.909  0.00  0.00    +0.028 A 
ATOM     14  C   UNL     1      -2.345   4.843   6.021  0.00  0.00    +0.019 A 
ENDROOT
BRANCH  12  15
ATOM     15  S   UNL     1       1.532   4.294   5.103  0.00  0.00    -0.006 S 
ATOM     16  O   UNL     1       1.888   5.112   6.209  0.00  0.00    -0.170 OA
ATOM     17  O   UNL     1       2.058   2.980   4.975  0.00  0.00    -0.170 OA
ATOM     18  C   UNL     1       1.753   5.209   3.552  0.00  0.00    +0.200 C 
ENDBRANCH  12  15
BRANCH   1  19
ATOM     19  C   UNL     1      -2.029   0.969   3.167  0.00  0.00    +0.109 C 
BRANCH  19  20
ATOM     20  C   UNL     1      -1.090  -0.097   3.736  0.00  0.00    +0.004 C 
BRANCH  20  26
ATOM     21  C   UNL     1      -0.341  -2.791   4.049  0.00  0.00    -0.096 C 
ATOM     22  C   UNL     1       1.037  -2.717   2.060  0.00  0.00    -0.079 C 
ATOM     23  C   UNL     1       1.935  -1.812   1.214  0.00  0.00    -0.019 C 
ATOM     24  C   UNL     1       1.095  -0.678   0.620  0.00  0.00    -0.003 C 
ATOM     25  C   UNL     1       0.422   0.097   1.756  0.00  0.00    -0.015 C 
ATOM     26  C   UNL     1      -0.432  -0.864   2.587  0.00  0.00    -0.067 C 
ATOM     27  N   UNL     1       0.440  -1.916   3.150  0.00  0.00    +0.380 N 
ATOM     28  H   UNL     1       1.193  -1.473   3.688  0.00  0.00    -0.082 HD
ENDBRANCH  20  26
ENDBRANCH  19  20
ENDBRANCH   1  19
TORSDOF 4
