REMARK  Name = ZINC39564016
REMARK  11 active torsions:
REMARK  status: ('A' for Active; 'I' for Inactive)
REMARK    1  A    between atoms: C_1  and  C_2
REMARK    2  A    between atoms: C_5  and  S_22
REMARK    3  A    between atoms: C_7  and  C_8
REMARK    4  A    between atoms: C_13  and  C_16
REMARK    5  A    between atoms: C_16  and  N_17
REMARK    6  A    between atoms: N_17  and  C_18
REMARK    7  A    between atoms: N_17  and  C_19
REMARK    8  A    between atoms: C_19  and  C_20
REMARK    9  A    between atoms: C_19  and  C_21
REMARK   10  A    between atoms: S_22  and  N_25
REMARK   11  A    between atoms: N_25  and  C_26
REMARK                            x       y       z     vdW  Elec       q    Type
REMARK                         _______ _______ _______ _____ _____    ______ ____
ROOT
ATOM      1  C   UNL     1      -1.181   1.234   0.699  0.00  0.00    +0.044 C 
ATOM      2  C   UNL     1      -0.024   0.294   0.482  0.00  0.00    -0.038 A 
ATOM      3  C   UNL     1       0.172  -0.288  -0.753  0.00  0.00    +0.006 A 
ATOM      4  C   UNL     1       1.234  -1.152  -0.954  0.00  0.00    +0.029 A 
ATOM      5  C   UNL     1       2.107  -1.437   0.081  0.00  0.00    +0.109 A 
ATOM      6  C   UNL     1       1.923  -0.861   1.321  0.00  0.00    +0.042 A 
ATOM      7  C   UNL     1       0.856   0.015   1.529  0.00  0.00    +0.042 A 
ENDROOT
BRANCH   7   8
ATOM      8  C   UNL     1       0.656   0.640   2.853  0.00  0.00    +0.247 C 
ATOM      9  O   UNL     1       0.559   1.848   2.947  0.00  0.00    -0.270 OA
ATOM     10  N   UNL     1       0.582  -0.129   3.957  0.00  0.00    -0.298 N 
ATOM     11  C   UNL     1       0.593  -1.595   3.851  0.00  0.00    +0.108 C 
ATOM     12  C   UNL     1      -0.627  -2.152   4.591  0.00  0.00    +0.021 C 
ATOM     13  C   UNL     1      -0.631  -1.627   6.028  0.00  0.00    -0.025 C 
ATOM     14  C   UNL     1      -0.730  -0.100   6.015  0.00  0.00    +0.021 C 
ATOM     15  C   UNL     1       0.494   0.481   5.291  0.00  0.00    +0.108 C 
BRANCH  13  16
ATOM     16  C   UNL     1      -1.829  -2.209   6.781  0.00  0.00    -0.075 C 
BRANCH  16  17
ATOM     17  N   UNL     1      -1.679  -3.666   6.888  0.00  0.00    +0.380 N 
ATOM     18  C   UNL     1      -0.517  -3.978   7.730  0.00  0.00    -0.096 C 
ATOM     19  H   UNL     1      -1.543  -4.059   5.968  0.00  0.00    -0.082 HD
BRANCH  17  20
ATOM     20  C   UNL     1      -2.889  -4.240   7.491  0.00  0.00    -0.075 C 
ATOM     21  C   UNL     1      -4.100  -3.915   6.613  0.00  0.00    -0.014 C 
ATOM     22  C   UNL     1      -2.733  -5.758   7.602  0.00  0.00    -0.014 C 
ENDBRANCH  17  20
ENDBRANCH  16  17
ENDBRANCH  13  16
ENDBRANCH   7   8
BRANCH   5  23
ATOM     23  S   UNL     1       3.456  -2.539  -0.185  0.00  0.00    +0.072 S 
ATOM     24  O   UNL     1       3.729  -3.156   1.065  0.00  0.00    -0.150 OA
ATOM     25  O   UNL     1       3.145  -3.288  -1.352  0.00  0.00    -0.150 OA
BRANCH  23  26
ATOM     26  N   UNL     1       4.778  -1.614  -0.555  0.00  0.00    -0.216 N 
ATOM     27  H   UNL     1       5.564  -1.641   0.013  0.00  0.00    +0.174 HD
BRANCH  26  28
ATOM     28  C   UNL     1       4.763  -0.793  -1.687  0.00  0.00    +0.048 A 
ATOM     29  C   UNL     1       4.299  -1.288  -2.899  0.00  0.00    +0.027 A 
ATOM     30  C   UNL     1       4.284  -0.476  -4.016  0.00  0.00    +0.040 A 
ATOM     31  C   UNL     1       4.731   0.832  -3.928  0.00  0.00    +0.124 A 
ATOM     32  C   UNL     1       5.194   1.328  -2.720  0.00  0.00    +0.040 A 
ATOM     33  C   UNL     1       5.206   0.520  -1.600  0.00  0.00    +0.027 A 
ATOM     34  F   UNL     1       4.716   1.625  -5.021  0.00  0.00    -0.205 F 
ENDBRANCH  26  28
ENDBRANCH  23  26
ENDBRANCH   5  23
TORSDOF 7
