REMARK  Name = ZINC65347480
REMARK  3 active torsions:
REMARK  status: ('A' for Active; 'I' for Inactive)
REMARK    1  A    between atoms: C_2  and  C_9
REMARK    2  A    between atoms: C_6  and  O_7
REMARK    3  A    between atoms: C_14  and  C_15
REMARK                            x       y       z     vdW  Elec       q    Type
REMARK                         _______ _______ _______ _____ _____    ______ ____
ROOT
ATOM      1  C   UNL     1       1.168   3.573   0.010  0.00  0.00    +0.013 A 
ATOM      2  C   UNL     1       0.679   4.256   1.088  0.00  0.00    +0.095 A 
ATOM      3  N   UNL     1       0.662   5.609   1.101  0.00  0.00    -0.328 N 
ATOM      4  C   UNL     1       1.121   6.335   0.068  0.00  0.00    +0.250 A 
ATOM      5  C   UNL     1       1.643   5.709  -1.083  0.00  0.00    +0.085 A 
ATOM      6  C   UNL     1       1.684   4.327  -1.136  0.00  0.00    +0.077 A 
ATOM      7  O   UNL     1       1.085   7.553   0.126  0.00  0.00    -0.268 OA
ATOM      8  H   UNL     1       0.309   6.068   1.879  0.00  0.00    +0.168 HD
ENDROOT
BRANCH   1  10
ATOM      9  C   UNL     1      -0.017   1.381   0.010  0.00  0.00    +0.054 A 
ATOM     10  C   UNL     1       1.182   2.091   0.002  0.00  0.00    -0.010 A 
ATOM     11  C   UNL     1       2.395   1.404  -0.013  0.00  0.00    +0.047 A 
ATOM     12  C   UNL     1       2.405   0.021  -0.021  0.00  0.00    +0.127 A 
ATOM     13  C   UNL     1       1.213  -0.683  -0.013  0.00  0.00    +0.083 A 
ATOM     14  C   UNL     1       0.002  -0.004   0.002  0.00  0.00    +0.120 A 
ATOM     15  F   UNL     1       3.581  -0.644  -0.036  0.00  0.00    -0.205 F 
BRANCH  14  16
ATOM     16  O   UNL     1      -1.166  -0.699   0.009  0.00  0.00    -0.507 OA
ATOM     17  H   UNL     1      -1.512  -0.895  -0.872  0.00  0.00    +0.292 HD
ENDBRANCH  14  16
ENDBRANCH   1  10
BRANCH   6  18
ATOM     18  C   UNL     1       2.229   3.628  -2.323  0.00  0.00    +0.387 C 
ATOM     19  O   UNL     1       2.655   4.273  -3.269  0.00  0.00    -0.241 OA
ATOM     20  O   UNL     1       2.253   2.407  -2.355  0.00  0.00    -0.241 OA
ENDBRANCH   6  18
TORSDOF 3
