REMARK  Name = ZINC30766410
REMARK  7 active torsions:
REMARK  status: ('A' for Active; 'I' for Inactive)
REMARK    1  A    between atoms: C_6  and  C_7
REMARK    2  A    between atoms: N_11  and  C_15
REMARK    3  A    between atoms: C_15  and  C_16
REMARK    4  A    between atoms: C_16  and  N_17
REMARK    5  A    between atoms: C_18  and  C_20
REMARK    6  A    between atoms: C_20  and  N_21
REMARK    7  A    between atoms: C_22  and  C_24
REMARK                            x       y       z     vdW  Elec       q    Type
REMARK                         _______ _______ _______ _____ _____    ______ ____
ROOT
ATOM      1  N   UNL     1       0.711  -0.920   0.028  0.00  0.00    -0.313 N 
ATOM      2  C   UNL     1       0.841   0.395   0.295  0.00  0.00    +0.230 C 
ATOM      3  O   UNL     1      -0.135   1.054   0.584  0.00  0.00    -0.274 OA
ATOM      4  H   UNL     1       1.595  -1.517  -0.239  0.00  0.00    +0.149 HD
ENDROOT
BRANCH   1   5
ATOM      5  C   UNL     1      -0.608  -1.554   0.094  0.00  0.00    +0.123 C 
BRANCH   5   6
ATOM      6  C   UNL     1      -0.478  -3.039  -0.250  0.00  0.00    +0.136 C 
BRANCH   6  11
ATOM      7  C   UNL     1      -4.842  -4.545  -2.066  0.00  0.00    +0.028 C 
ATOM      8  C   UNL     1      -3.870  -4.362  -1.137  0.00  0.00    +0.080 C 
ATOM      9  C   UNL     1      -2.552  -3.709  -1.269  0.00  0.00    +0.260 C 
ATOM     10  O   UNL     1      -2.179  -3.229  -2.324  0.00  0.00    -0.269 OA
ATOM     11  N   UNL     1      -1.797  -3.673  -0.184  0.00  0.00    -0.227 N 
ATOM     12  C   UNL     1      -2.212  -4.210   0.981  0.00  0.00    +0.286 C 
ATOM     13  O   UNL     1      -1.625  -4.252   2.045  0.00  0.00    -0.262 OA
ATOM     14  S   UNL     1      -3.833  -4.844   0.584  0.00  0.00    -0.026 S 
BRANCH   7  20
ATOM     15  C   UNL     1      -6.046  -6.124  -0.568  0.00  0.00    +0.011 A 
ATOM     16  C   UNL     1      -7.149  -6.896  -0.276  0.00  0.00    +0.039 A 
ATOM     17  C   UNL     1      -8.220  -6.941  -1.156  0.00  0.00    +0.123 A 
ATOM     18  C   UNL     1      -8.192  -6.206  -2.332  0.00  0.00    +0.039 A 
ATOM     19  C   UNL     1      -7.097  -5.425  -2.634  0.00  0.00    +0.011 A 
ATOM     20  C   UNL     1      -6.013  -5.375  -1.750  0.00  0.00    -0.024 A 
ATOM     21  F   UNL     1      -9.297  -7.704  -0.866  0.00  0.00    -0.205 F 
ENDBRANCH   7  20
ENDBRANCH   6  11
ENDBRANCH   5   6
ENDBRANCH   1   5
BRANCH   2  22
ATOM     22  C   UNL     1       2.198   1.047   0.227  0.00  0.00    +0.200 C 
BRANCH  22  23
ATOM     23  N   UNL     1       2.073   2.469   0.556  0.00  0.00    -0.306 N 
ATOM     24  C   UNL     1       3.166   3.258   0.559  0.00  0.00    +0.220 C 
ATOM     25  O   UNL     1       4.252   2.791   0.289  0.00  0.00    -0.275 OA
ATOM     26  H   UNL     1       1.088   2.893   0.801  0.00  0.00    +0.149 HD
BRANCH  24  27
ATOM     27  C   UNL     1       3.038   4.721   0.898  0.00  0.00    +0.048 C 
ATOM     28  C   UNL     1       2.097   5.396  -0.102  0.00  0.00    +0.019 C 
ATOM     29  C   UNL     1       1.967   6.881   0.242  0.00  0.00    -0.009 C 
ATOM     30  C   UNL     1       3.345   7.543   0.173  0.00  0.00    +0.007 C 
ATOM     31  C   UNL     1       4.285   6.868   1.173  0.00  0.00    -0.009 C 
ATOM     32  C   UNL     1       4.415   5.383   0.829  0.00  0.00    +0.019 C 
ATOM     33  C   UNL     1       3.719   7.017   2.587  0.00  0.00    +0.007 C 
ATOM     34  C   UNL     1       2.341   6.355   2.655  0.00  0.00    -0.009 C 
ATOM     35  C   UNL     1       1.400   7.029   1.655  0.00  0.00    +0.007 C 
ATOM     36  C   UNL     1       2.471   4.869   2.311  0.00  0.00    +0.019 C 
ENDBRANCH  24  27
ENDBRANCH  22  23
ENDBRANCH   2  22
TORSDOF 7
