REMARK  Name = ZINC09911634
REMARK  14 active torsions:
REMARK  status: ('A' for Active; 'I' for Inactive)
REMARK    1  A    between atoms: C_1  and  C_2
REMARK    2  A    between atoms: C_2  and  O_3
REMARK    3  A    between atoms: O_3  and  C_4
REMARK    4  A    between atoms: N_13  and  C_14
REMARK    5  A    between atoms: C_14  and  C_15
REMARK    6  A    between atoms: C_15  and  N_64
REMARK    7  A    between atoms: C_16  and  N_64
REMARK    8  A    between atoms: C_17  and  N_64
REMARK    9  A    between atoms: C_18  and  C_20
REMARK   10  A    between atoms: C_20  and  C_21
REMARK   11  A    between atoms: C_21  and  C_22
REMARK   12  A    between atoms: C_22  and  S_23
REMARK   13  A    between atoms: S_23  and  C_26
REMARK   14  A    between atoms: C_29  and  C_32
REMARK                            x       y       z     vdW  Elec       q    Type
REMARK                         _______ _______ _______ _____ _____    ______ ____
ROOT
ATOM      1  C   UNL     1       1.636   0.504  -9.486  0.00  0.00    +0.147 A 
ATOM      2  C   UNL     1       1.886   0.366 -10.832  0.00  0.00    +0.048 A 
ATOM      3  C   UNL     1       1.004   0.853 -11.785  0.00  0.00    +0.005 A 
ATOM      4  C   UNL     1      -0.152   1.492 -11.376  0.00  0.00    +0.017 A 
ATOM      5  C   UNL     1      -0.411   1.635 -10.035  0.00  0.00    +0.044 A 
ATOM      6  C   UNL     1       0.461   1.154  -9.033  0.00  0.00    +0.122 A 
ATOM      7  N   UNL     1       0.066   1.372  -7.759  0.00  0.00    -0.221 NA
ATOM      8  C   UNL     1      -1.053   1.989  -7.463  0.00  0.00    +0.168 A 
ATOM      9  S   UNL     1      -1.726   2.352  -9.079  0.00  0.00    -0.052 S 
ATOM     10  N   UNL     1      -1.582   2.281  -6.215  0.00  0.00    -0.252 N 
ATOM     11  C   UNL     1      -0.919   1.915  -5.101  0.00  0.00    +0.221 C 
ATOM     12  O   UNL     1       0.140   1.331  -5.189  0.00  0.00    -0.275 OA
ENDROOT
BRANCH   1  13
ATOM     13  O   UNL     1       2.525   0.014  -8.583  0.00  0.00    -0.490 OA
BRANCH  13  15
ATOM     14  C   UNL     1       4.566  -1.113  -7.945  0.00  0.00    +0.048 C 
ATOM     15  C   UNL     1       3.691  -0.630  -9.103  0.00  0.00    +0.226 C 
ENDBRANCH  13  15
ENDBRANCH   1  13
BRANCH  10  16
ATOM     16  C   UNL     1      -2.861   2.987  -6.109  0.00  0.00    +0.097 C 
BRANCH  16  17
ATOM     17  C   UNL     1      -2.609   4.496  -6.071  0.00  0.00    -0.060 C 
BRANCH  17  20
ATOM     18  C   UNL     1      -3.684   6.631  -5.688  0.00  0.00    -0.097 C 
ATOM     19  C   UNL     1      -4.700   5.014  -7.176  0.00  0.00    -0.097 C 
ATOM     20  N   UNL     1      -3.906   5.192  -5.942  0.00  0.00    +0.377 N 
ATOM     21  H   UNL     1      -4.423   4.790  -5.151  0.00  0.00    -0.083 HD
ENDBRANCH  17  20
ENDBRANCH  16  17
ENDBRANCH  10  16
BRANCH  11  22
ATOM     22  C   UNL     1      -1.493   2.232  -3.744  0.00  0.00    +0.098 C 
BRANCH  22  23
ATOM     23  C   UNL     1      -0.551   1.712  -2.657  0.00  0.00    +0.032 C 
BRANCH  23  24
ATOM     24  C   UNL     1      -1.135   2.034  -1.279  0.00  0.00    +0.172 C 
BRANCH  24  25
ATOM     25  S   UNL     1      -0.017   1.417   0.010  0.00  0.00    -0.003 S 
ATOM     26  O   UNL     1       0.002  -0.004   0.002  0.00  0.00    -0.169 OA
ATOM     27  O   UNL     1       1.195   2.158   0.002  0.00  0.00    -0.169 OA
BRANCH  25  28
ATOM     28  C   UNL     1      -0.798   1.847   1.530  0.00  0.00    +0.088 A 
ATOM     29  C   UNL     1      -0.521   3.062   2.129  0.00  0.00    +0.027 A 
ATOM     30  C   UNL     1      -1.137   3.402   3.319  0.00  0.00    +0.005 A 
ATOM     31  C   UNL     1      -2.022   2.523   3.915  0.00  0.00    -0.050 A 
ATOM     32  C   UNL     1      -2.295   1.306   3.318  0.00  0.00    +0.005 A 
ATOM     33  C   UNL     1      -1.683   0.968   2.126  0.00  0.00    +0.027 A 
ATOM     34  C   UNL     1      -2.690   2.891   5.215  0.00  0.00    +0.044 C 
ENDBRANCH  25  28
ENDBRANCH  24  25
ENDBRANCH  23  24
ENDBRANCH  22  23
ENDBRANCH  11  22
TORSDOF 10
