REMARK  Name = ZINC12446905
REMARK  6 active torsions:
REMARK  status: ('A' for Active; 'I' for Inactive)
REMARK    1  A    between atoms: C_1  and  C_2
REMARK    2  A    between atoms: C_6  and  C_8
REMARK    3  A    between atoms: C_8  and  N_52
REMARK    4  A    between atoms: C_21  and  C_23
REMARK    5  A    between atoms: C_28  and  O_29
REMARK    6  A    between atoms: O_29  and  C_30
REMARK                            x       y       z     vdW  Elec       q    Type
REMARK                         _______ _______ _______ _____ _____    ______ ____
ROOT
ATOM      1  C   UNL     1       2.036   1.315  -1.280  0.00  0.00    -0.072 C 
ATOM      2  C   UNL     1       1.436   2.202  -2.379  0.00  0.00    +0.019 C 
ATOM      3  C   UNL     1      -0.066   2.093  -2.298  0.00  0.00    -0.022 A 
ATOM      4  C   UNL     1      -1.066   2.471  -3.272  0.00  0.00    +0.003 A 
ATOM      5  C   UNL     1      -0.984   3.036  -4.548  0.00  0.00    +0.010 A 
ATOM      6  C   UNL     1      -2.169   3.265  -5.204  0.00  0.00    +0.001 A 
ATOM      7  C   UNL     1      -3.395   2.955  -4.638  0.00  0.00    +0.002 A 
ATOM      8  C   UNL     1      -3.505   2.394  -3.377  0.00  0.00    +0.026 A 
ATOM      9  C   UNL     1      -2.319   2.151  -2.688  0.00  0.00    +0.047 A 
ATOM     10  N   UNL     1      -2.070   1.622  -1.453  0.00  0.00    -0.359 N 
ATOM     11  H   UNL     1      -2.748   1.314  -0.831  0.00  0.00    +0.166 HD
ATOM     12  C   UNL     1      -0.721   1.591  -1.227  0.00  0.00    +0.011 A 
ATOM     13  C   UNL     1      -0.013   1.086   0.008  0.00  0.00    +0.014 C 
ATOM     14  N   UNL     1       1.366   1.630   0.002  0.00  0.00    +0.393 N 
ATOM     15  H   UNL     1       1.321   2.650   0.112  0.00  0.00    -0.080 HD
ENDROOT
BRANCH  13  16
ATOM     16  C   UNL     1      -0.726   1.576   1.242  0.00  0.00    -0.014 A 
ATOM     17  C   UNL     1      -0.303   2.730   1.872  0.00  0.00    +0.006 A 
ATOM     18  C   UNL     1      -0.960   3.183   3.002  0.00  0.00    +0.000 A 
ATOM     19  C   UNL     1      -2.035   2.476   3.509  0.00  0.00    +0.004 A 
ATOM     20  C   UNL     1      -2.458   1.318   2.885  0.00  0.00    +0.046 A 
ATOM     21  C   UNL     1      -1.804   0.865   1.749  0.00  0.00    +0.122 A 
BRANCH  21  22
ATOM     22  O   UNL     1      -2.219  -0.274   1.133  0.00  0.00    -0.495 OA
ATOM     23  C   UNL     1      -3.335  -0.954   1.711  0.00  0.00    +0.277 C 
ENDBRANCH  21  22
ENDBRANCH  13  16
BRANCH  14  24
ATOM     24  C   UNL     1       2.137   1.061   1.127  0.00  0.00    -0.002 C 
BRANCH  24  30
ATOM     25  C   UNL     1       6.918   2.354   0.366  0.00  0.00    +0.067 C 
ATOM     26  C   UNL     1       5.512   2.351   0.907  0.00  0.00    +0.056 A 
ATOM     27  C   UNL     1       5.012   3.208   1.817  0.00  0.00    +0.107 A 
ATOM     28  N   UNL     1       3.704   2.855   2.018  0.00  0.00    -0.350 N 
ATOM     29  H   UNL     1       3.056   3.303   2.633  0.00  0.00    +0.166 HD
ATOM     30  C   UNL     1       3.453   1.788   1.228  0.00  0.00    +0.091 A 
ATOM     31  N   UNL     1       4.538   1.494   0.564  0.00  0.00    -0.240 NA
ENDBRANCH  24  30
ENDBRANCH  14  24
TORSDOF 4
