REMARK  Name = ZINC09350126
REMARK  18 active torsions:
REMARK  status: ('A' for Active; 'I' for Inactive)
REMARK    1  A    between atoms: C_1  and  C_2
REMARK    2  A    between atoms: C_2  and  N_72
REMARK    3  A    between atoms: C_3  and  C_4
REMARK    4  A    between atoms: C_3  and  N_72
REMARK    5  A    between atoms: C_5  and  C_6
REMARK    6  A    between atoms: C_5  and  N_72
REMARK    7  A    between atoms: C_6  and  N_7
REMARK    8  A    between atoms: C_8  and  C_28
REMARK    9  A    between atoms: C_11  and  C_12
REMARK   10  A    between atoms: C_11  and  O_23
REMARK   11  A    between atoms: C_15  and  O_18
REMARK   12  A    between atoms: O_18  and  C_19
REMARK   13  A    between atoms: C_19  and  C_20
REMARK   14  A    between atoms: C_20  and  C_21
REMARK   15  A    between atoms: C_20  and  C_22
REMARK   16  A    between atoms: C_31  and  O_36
REMARK   17  A    between atoms: C_32  and  O_34
REMARK   18  A    between atoms: O_34  and  C_35
REMARK                            x       y       z     vdW  Elec       q    Type
REMARK                         _______ _______ _______ _____ _____    ______ ____
ROOT
ATOM      1  N   UNL     1      -3.501   2.490  -1.466  0.00  0.00    -0.285 N 
ATOM      2  C   UNL     1      -3.472   3.928  -1.746  0.00  0.00    +0.144 C 
ATOM      3  C   UNL     1      -4.430   4.165  -2.890  0.00  0.00    +0.071 C 
ATOM      4  C   UNL     1      -4.723   5.374  -3.490  0.00  0.00    +0.133 C 
ATOM      5  C   UNL     1      -4.966   2.911  -3.216  0.00  0.00    +0.249 C 
ATOM      6  O   UNL     1      -5.785   2.689  -4.091  0.00  0.00    -0.282 OA
ATOM      7  C   UNL     1      -4.364   1.898  -2.308  0.00  0.00    +0.288 C 
ATOM      8  O   UNL     1      -4.615   0.710  -2.326  0.00  0.00    -0.266 OA
ENDROOT
BRANCH   4   9
ATOM      9  C   UNL     1      -5.574   5.413  -4.689  0.00  0.00    +0.017 A 
ATOM     10  C   UNL     1      -5.284   4.589  -5.784  0.00  0.00    +0.015 A 
ATOM     11  C   UNL     1      -6.087   4.626  -6.901  0.00  0.00    +0.046 A 
ATOM     12  C   UNL     1      -7.178   5.487  -6.948  0.00  0.00    +0.121 A 
ATOM     13  C   UNL     1      -7.467   6.311  -5.866  0.00  0.00    +0.046 A 
ATOM     14  C   UNL     1      -6.673   6.279  -4.742  0.00  0.00    +0.015 A 
BRANCH  12  15
ATOM     15  O   UNL     1      -7.963   5.523  -8.054  0.00  0.00    -0.492 OA
BRANCH  15  16
ATOM     16  C   UNL     1      -7.610   4.651  -9.130  0.00  0.00    +0.232 C 
BRANCH  16  17
ATOM     17  C   UNL     1      -8.602   4.831 -10.280  0.00  0.00    +0.020 C 
ATOM     18  C   UNL     1      -8.473   6.246 -10.848  0.00  0.00    +0.010 C 
ATOM     19  C   UNL     1      -8.300   3.811 -11.379  0.00  0.00    +0.010 C 
ENDBRANCH  16  17
ENDBRANCH  15  16
ENDBRANCH  12  15
ENDBRANCH   4   9
BRANCH   2  20
ATOM     20  C   UNL     1      -2.081   4.348  -2.146  0.00  0.00    -0.019 A 
ATOM     21  C   UNL     1      -1.322   3.531  -2.964  0.00  0.00    +0.009 A 
ATOM     22  C   UNL     1      -0.048   3.915  -3.338  0.00  0.00    +0.049 A 
ATOM     23  C   UNL     1       0.476   5.114  -2.884  0.00  0.00    +0.158 A 
ATOM     24  C   UNL     1      -0.285   5.933  -2.055  0.00  0.00    +0.162 A 
ATOM     25  C   UNL     1      -1.564   5.546  -1.689  0.00  0.00    +0.055 A 
BRANCH  24  26
ATOM     26  O   UNL     1       0.225   7.112  -1.607  0.00  0.00    -0.491 OA
ATOM     27  C   UNL     1      -0.613   7.901  -0.761  0.00  0.00    +0.277 C 
ENDBRANCH  24  26
BRANCH  23  28
ATOM     28  O   UNL     1       1.732   5.490  -3.246  0.00  0.00    -0.503 OA
ATOM     29  H   UNL     1       2.423   5.186  -2.642  0.00  0.00    +0.292 HD
ENDBRANCH  23  28
ENDBRANCH   2  20
BRANCH   4  30
ATOM     30  O   UNL     1      -4.227   6.521  -2.977  0.00  0.00    -0.506 OA
ATOM     31  H   UNL     1      -4.535   7.294  -3.530  0.00  0.00    +0.292 HD
ENDBRANCH   4  30
BRANCH   1  32
ATOM     32  C   UNL     1      -2.720   1.808  -0.430  0.00  0.00    +0.090 C 
BRANCH  32  33
ATOM     33  C   UNL     1      -1.379   1.359  -1.014  0.00  0.00    -0.060 C 
BRANCH  33  34
ATOM     34  N   UNL     1      -0.656   0.570   0.005  0.00  0.00    +0.380 N 
ATOM     35  H   UNL     1      -0.684   1.075   0.899  0.00  0.00    -0.082 HD
BRANCH  34  37
ATOM     36  C   UNL     1      -1.195  -1.571  -1.107  0.00  0.00    -0.017 C 
ATOM     37  C   UNL     1      -1.305  -0.747   0.177  0.00  0.00    -0.082 C 
ENDBRANCH  34  37
BRANCH  34  38
ATOM     38  C   UNL     1       0.753   0.390  -0.401  0.00  0.00    -0.082 C 
ATOM     39  C   UNL     1       1.527  -0.230   0.764  0.00  0.00    -0.017 C 
ENDBRANCH  34  38
ENDBRANCH  33  34
ENDBRANCH  32  33
ENDBRANCH   1  32
TORSDOF 13
