REMARK  Name = ZINC15229116
REMARK  7 active torsions:
REMARK  status: ('A' for Active; 'I' for Inactive)
REMARK    1  A    between atoms: C_1  and  C_2
REMARK    2  A    between atoms: N_7  and  C_9
REMARK    3  A    between atoms: C_9  and  C_10
REMARK    4  A    between atoms: C_10  and  C_24
REMARK    5  A    between atoms: C_21  and  O_23
REMARK    6  A    between atoms: C_24  and  N_25
REMARK    7  A    between atoms: C_29  and  C_32
REMARK                            x       y       z     vdW  Elec       q    Type
REMARK                         _______ _______ _______ _____ _____    ______ ____
ROOT
ATOM      1  C   UNL     1       1.836  -3.700   2.266  0.00  0.00    +0.033 C 
ATOM      2  C   UNL     1       2.497  -4.042   0.925  0.00  0.00    +0.238 C 
ATOM      3  O   UNL     1       2.335  -5.441   0.687  0.00  0.00    -0.490 OA
ATOM      4  C   UNL     1       1.092  -5.970   0.832  0.00  0.00    +0.140 A 
ATOM      5  C   UNL     1       0.093  -5.306   1.522  0.00  0.00    +0.025 A 
ATOM      6  C   UNL     1      -1.158  -5.885   1.650  0.00  0.00    +0.025 A 
ATOM      7  C   UNL     1      -1.415  -7.122   1.089  0.00  0.00    +0.019 A 
ATOM      8  C   UNL     1      -0.420  -7.787   0.396  0.00  0.00    +0.034 A 
ATOM      9  C   UNL     1       0.830  -7.214   0.267  0.00  0.00    +0.061 A 
ATOM     10 BR   UNL     1       2.190  -8.124  -0.681  0.00  0.00    -0.046 Br
ATOM     11 BR   UNL     1      -3.127  -7.905   1.269  0.00  0.00    -0.050 Br
ATOM     12  C   UNL     1       0.331  -3.950   2.138  0.00  0.00    +0.157 C 
ENDROOT
BRANCH  12  13
ATOM     13  O   UNL     1      -0.250  -2.942   1.310  0.00  0.00    -0.386 OA
ATOM     14  H   UNL     1      -1.188  -3.080   1.121  0.00  0.00    +0.210 HD
ENDBRANCH  12  13
BRANCH   1  15
ATOM     15  C   UNL     1       2.087  -2.229   2.604  0.00  0.00    -0.064 C 
BRANCH  15  21
ATOM     16  C   UNL     1       4.783  -3.130   6.590  0.00  0.00    +0.005 C 
ATOM     17  C   UNL     1       4.805  -2.560   5.170  0.00  0.00    -0.031 C 
ATOM     18  C   UNL     1       5.261  -1.098   5.213  0.00  0.00    -0.001 C 
ATOM     19  C   UNL     1       5.204  -0.514   3.798  0.00  0.00    -0.018 C 
ATOM     20  C   UNL     1       3.785  -0.664   3.247  0.00  0.00    -0.079 C 
ATOM     21  N   UNL     1       3.419  -2.085   3.206  0.00  0.00    +0.380 N 
ATOM     22  C   UNL     1       3.401  -2.634   4.567  0.00  0.00    -0.076 C 
ATOM     23  H   UNL     1       4.093  -2.589   2.651  0.00  0.00    -0.082 HD
ENDBRANCH  15  21
ENDBRANCH   1  15
BRANCH   1  24
ATOM     24  C   UNL     1       2.415  -4.588   3.369  0.00  0.00    +0.095 C 
BRANCH  24  25
ATOM     25  N   UNL     1       1.621  -4.428   4.594  0.00  0.00    -0.301 NA
ATOM     26  C   UNL     1       0.438  -5.297   4.572  0.00  0.00    +0.084 C 
ATOM     27  C   UNL     1      -0.439  -4.999   5.791  0.00  0.00    +0.016 C 
ATOM     28  C   UNL     1       0.371  -5.241   7.068  0.00  0.00    +0.006 C 
ATOM     29  C   UNL     1       1.622  -4.358   7.043  0.00  0.00    +0.000 C 
ATOM     30  C   UNL     1       2.439  -4.675   5.788  0.00  0.00    +0.087 C 
ATOM     31  C   UNL     1       2.468  -4.636   8.288  0.00  0.00    +0.009 C 
ENDBRANCH  24  25
ENDBRANCH   1  24
TORSDOF 5
