REMARK  Name = ZINC66373195
REMARK  7 active torsions:
REMARK  status: ('A' for Active; 'I' for Inactive)
REMARK    1  A    between atoms: C_4  and  S_7
REMARK    2  A    between atoms: S_7  and  C_10
REMARK    3  A    between atoms: C_10  and  C_11
REMARK    4  A    between atoms: C_11  and  C_12
REMARK    5  A    between atoms: C_12  and  N_13
REMARK    6  A    between atoms: N_13  and  C_14
REMARK    7  A    between atoms: C_15  and  N_25
REMARK                            x       y       z     vdW  Elec       q    Type
REMARK                         _______ _______ _______ _____ _____    ______ ____
ROOT
ATOM      1  N   UNL     1       7.308  -2.752   3.387  0.00  0.00    -0.327 N 
ATOM      2  H   UNL     1       7.782  -3.011   2.581  0.00  0.00    +0.148 HD
ENDROOT
BRANCH   1   3
ATOM      3  C   UNL     1       7.848  -3.035   4.628  0.00  0.00    +0.157 A 
ATOM      4  C   UNL     1       9.017  -3.785   4.727  0.00  0.00    +0.230 A 
ATOM      5  C   UNL     1       9.538  -4.055   5.990  0.00  0.00    +0.291 A 
ATOM      6  O   UNL     1      10.563  -4.710   6.110  0.00  0.00    -0.265 OA
ATOM      7  N   UNL     1       8.897  -3.583   7.080  0.00  0.00    -0.266 N 
ATOM      8  C   UNL     1       9.400  -3.842   8.320  0.00  0.00    +0.096 A 
ATOM      9  C   UNL     1       8.779  -3.382   9.428  0.00  0.00    +0.018 A 
ATOM     10  C   UNL     1       7.601  -2.628   9.315  0.00  0.00    +0.005 A 
ATOM     11  C   UNL     1       7.090  -2.363   8.081  0.00  0.00    +0.047 A 
ATOM     12  C   UNL     1       7.752  -2.850   6.937  0.00  0.00    +0.142 A 
ATOM     13  N   UNL     1       7.255  -2.587   5.732  0.00  0.00    -0.212 NA
BRANCH   4  14
ATOM     14  N   UNL     1       9.695  -4.287   3.510  0.00  0.00    +0.065 N 
ATOM     15  O   UNL     1       9.294  -3.962   2.417  0.00  0.00    -0.126 OA
ATOM     16  O   UNL     1      10.649  -5.023   3.609  0.00  0.00    -0.126 OA
ENDBRANCH   4  14
ENDBRANCH   1   3
BRANCH   1  17
ATOM     17  C   UNL     1       6.021  -2.060   3.288  0.00  0.00    +0.104 C 
BRANCH  17  18
ATOM     18  C   UNL     1       5.654  -1.872   1.815  0.00  0.00    +0.042 C 
BRANCH  18  19
ATOM     19  C   UNL     1       4.310  -1.149   1.712  0.00  0.00    +0.173 C 
BRANCH  19  20
ATOM     20  S   UNL     1       3.876  -0.926  -0.035  0.00  0.00    -0.003 S 
ATOM     21  O   UNL     1       3.602  -2.184  -0.636  0.00  0.00    -0.169 OA
ATOM     22  O   UNL     1       4.771  -0.009  -0.649  0.00  0.00    -0.169 OA
BRANCH  20  26
ATOM     23  C   UNL     1      -0.111   1.217   0.019  0.00  0.00    +0.000 A 
ATOM     24  C   UNL     1       1.064   1.945   0.006  0.00  0.00    +0.002 A 
ATOM     25  C   UNL     1       2.282   1.290  -0.010  0.00  0.00    +0.027 A 
ATOM     26  C   UNL     1       2.324  -0.092  -0.013  0.00  0.00    +0.088 A 
ATOM     27  C   UNL     1       1.148  -0.819   0.001  0.00  0.00    +0.027 A 
ATOM     28  C   UNL     1      -0.069  -0.164   0.016  0.00  0.00    +0.002 A 
ENDBRANCH  20  26
ENDBRANCH  19  20
ENDBRANCH  18  19
ENDBRANCH  17  18
ENDBRANCH   1  17
TORSDOF 7
