REMARK  Name = ZINC08816535
REMARK  7 active torsions:
REMARK  status: ('A' for Active; 'I' for Inactive)
REMARK    1  A    between atoms: C_1  and  N_60
REMARK    2  A    between atoms: C_4  and  N_26
REMARK    3  A    between atoms: C_8  and  N_17
REMARK    4  A    between atoms: C_18  and  C_19
REMARK    5  A    between atoms: C_24  and  O_25
REMARK    6  A    between atoms: C_27  and  C_28
REMARK    7  A    between atoms: C_33  and  O_34
REMARK                            x       y       z     vdW  Elec       q    Type
REMARK                         _______ _______ _______ _____ _____    ______ ____
ROOT
ATOM      1  C   UNL     1      -0.968   7.937  -4.833  0.00  0.00    -0.096 C 
ATOM      2  C   UNL     1      -1.925   9.706  -3.486  0.00  0.00    -0.073 C 
ATOM      3  C   UNL     1      -2.835   9.989  -2.288  0.00  0.00    +0.055 C 
ATOM      4  C   UNL     1      -2.187   9.436  -1.016  0.00  0.00    +0.203 C 
ATOM      5  C   UNL     1      -1.934   7.932  -1.193  0.00  0.00    +0.068 C 
ATOM      6  C   UNL     1      -1.054   7.711  -2.425  0.00  0.00    -0.067 C 
ATOM      7  C   UNL     1      -1.198   7.423   0.051  0.00  0.00    +0.146 C 
ATOM      8  C   UNL     1      -1.902   7.912   1.292  0.00  0.00    +0.019 A 
ATOM      9  C   UNL     1      -1.641   7.283   2.497  0.00  0.00    +0.009 A 
ATOM     10  C   UNL     1      -2.266   7.706   3.654  0.00  0.00    +0.001 A 
ATOM     11  C   UNL     1      -3.156   8.764   3.611  0.00  0.00    +0.004 A 
ATOM     12  C   UNL     1      -3.420   9.394   2.413  0.00  0.00    +0.046 A 
ATOM     13  C   UNL     1      -2.794   8.969   1.246  0.00  0.00    +0.129 A 
ATOM     14  O   UNL     1      -3.084   9.610   0.084  0.00  0.00    -0.464 OA
ATOM     15  N   UNL     1      -1.747   8.245  -3.616  0.00  0.00    +0.378 N 
ATOM     16  H   UNL     1      -2.671   7.802  -3.691  0.00  0.00    -0.082 HD
ENDROOT
BRANCH   7  17
ATOM     17  N   UNL     1      -1.184   5.959   0.044  0.00  0.00    -0.282 NA
ATOM     18  C   UNL     1      -0.056   5.323   0.030  0.00  0.00    +0.117 C 
BRANCH  18  19
ATOM     19  C   UNL     1      -0.042   3.849   0.023  0.00  0.00    +0.034 A 
ATOM     20  C   UNL     1       1.173   3.159   0.007  0.00  0.00    +0.013 A 
ATOM     21  C   UNL     1       1.180   1.781   0.000  0.00  0.00    +0.001 A 
ATOM     22  C   UNL     1      -0.013   1.076   0.008  0.00  0.00    +0.004 A 
ATOM     23  C   UNL     1      -1.220   1.746   0.017  0.00  0.00    +0.046 A 
ATOM     24  C   UNL     1      -1.246   3.132   0.031  0.00  0.00    +0.125 A 
BRANCH  24  25
ATOM     25  O   UNL     1      -2.432   3.792   0.045  0.00  0.00    -0.506 OA
ATOM     26  H   UNL     1      -2.784   3.987  -0.834  0.00  0.00    +0.292 HD
ENDBRANCH  24  25
ENDBRANCH  18  19
ENDBRANCH   7  17
BRANCH   4  27
ATOM     27  N   UNL     1      -0.929  10.138  -0.750  0.00  0.00    -0.246 NA
ATOM     28  C   UNL     1      -0.931  11.418  -0.556  0.00  0.00    +0.120 C 
BRANCH  28  29
ATOM     29  C   UNL     1       0.335  12.124  -0.289  0.00  0.00    +0.034 A 
ATOM     30  C   UNL     1       0.339  13.506  -0.085  0.00  0.00    +0.013 A 
ATOM     31  C   UNL     1       1.525  14.160   0.168  0.00  0.00    +0.001 A 
ATOM     32  C   UNL     1       2.717  13.454   0.212  0.00  0.00    +0.004 A 
ATOM     33  C   UNL     1       2.728  12.088   0.007  0.00  0.00    +0.046 A 
ATOM     34  C   UNL     1       1.543  11.414  -0.245  0.00  0.00    +0.125 A 
BRANCH  34  35
ATOM     35  O   UNL     1       1.552  10.072  -0.446  0.00  0.00    -0.506 OA
ATOM     36  H   UNL     1       1.664   9.814  -1.371  0.00  0.00    +0.292 HD
ENDBRANCH  34  35
ENDBRANCH  28  29
ENDBRANCH   4  27
TORSDOF 6
