REMARK  Name = ZINC51145162
REMARK  9 active torsions:
REMARK  status: ('A' for Active; 'I' for Inactive)
REMARK    1  A    between atoms: C_1  and  C_2
REMARK    2  A    between atoms: C_3  and  C_10
REMARK    3  A    between atoms: C_4  and  N_8
REMARK    4  A    between atoms: N_5  and  C_7
REMARK    5  A    between atoms: N_8  and  N_9
REMARK    6  A    between atoms: C_10  and  N_11
REMARK    7  A    between atoms: N_11  and  C_12
REMARK    8  A    between atoms: N_11  and  C_13
REMARK    9  A    between atoms: C_13  and  C_14
REMARK                            x       y       z     vdW  Elec       q    Type
REMARK                         _______ _______ _______ _____ _____    ______ ____
ROOT
ATOM      1  C   UNL     1      -0.018   1.503   0.010  0.00  0.00    +0.068 C 
ATOM      2  C   UNL     1       0.002  -0.004   0.002  0.00  0.00    +0.063 A 
ATOM      3  C   UNL     1       0.008  -0.816  -1.136  0.00  0.00    -0.001 A 
ATOM      4  C   UNL     1       0.027  -2.113  -0.721  0.00  0.00    +0.132 A 
ATOM      5  N   UNL     1       0.034  -2.110   0.631  0.00  0.00    -0.252 N 
ATOM      6  N   UNL     1       0.023  -0.776   1.058  0.00  0.00    -0.175 NA
ATOM      7  C   UNL     1       0.053  -3.292   1.496  0.00  0.00    +0.174 C 
ENDROOT
BRANCH   4   8
ATOM      8  N   UNL     1       0.038  -3.238  -1.541  0.00  0.00    -0.268 N 
ATOM      9  H   UNL     1       0.250  -3.150  -2.483  0.00  0.00    +0.167 HD
BRANCH   8  10
ATOM     10  N   UNL     1      -0.249  -4.467  -1.018  0.00  0.00    -0.255 NA
ATOM     11  H   UNL     1      -1.150  -4.466  -0.565  0.00  0.00    +0.140 HD
ATOM     12  H   UNL     1      -0.202  -5.182  -1.728  0.00  0.00    +0.140 HD
ENDBRANCH   8  10
ENDBRANCH   4   8
BRANCH   3  13
ATOM     13  C   UNL     1      -0.005  -0.341  -2.566  0.00  0.00    -0.038 C 
BRANCH  13  14
ATOM     14  N   UNL     1       1.376  -0.168  -3.037  0.00  0.00    +0.384 N 
ATOM     15  C   UNL     1       2.050  -1.473  -3.067  0.00  0.00    -0.095 C 
ATOM     16  H   UNL     1       1.869   0.451  -2.412  0.00  0.00    -0.081 HD
BRANCH  14  17
ATOM     17  C   UNL     1       1.363   0.408  -4.388  0.00  0.00    -0.036 C 
BRANCH  17  18
ATOM     18  C   UNL     1       2.777   0.699  -4.823  0.00  0.00    -0.026 A 
ATOM     19  C   UNL     1       3.647  -0.101  -5.486  0.00  0.00    +0.024 A 
ATOM     20  C   UNL     1       4.908   0.383  -5.784  0.00  0.00    +0.025 A 
ATOM     21  C   UNL     1       5.236   1.642  -5.402  0.00  0.00    +0.060 A 
ATOM     22  S   UNL     1       3.736   2.189  -4.604  0.00  0.00    -0.102 S 
ATOM     23 BR   UNL     1       6.157  -0.696  -6.707  0.00  0.00    -0.050 Br
ENDBRANCH  17  18
ENDBRANCH  14  17
ENDBRANCH  13  14
ENDBRANCH   3  13
TORSDOF 6
