REMARK  Name = ZINC38806892
REMARK  8 active torsions:
REMARK  status: ('A' for Active; 'I' for Inactive)
REMARK    1  A    between atoms: C_1  and  C_2
REMARK    2  A    between atoms: N_12  and  C_15
REMARK    3  A    between atoms: C_20  and  N_23
REMARK    4  A    between atoms: C_24  and  C_26
REMARK    5  A    between atoms: C_26  and  C_28
REMARK    6  A    between atoms: C_26  and  N_34
REMARK    7  A    between atoms: N_34  and  C_35
REMARK    8  A    between atoms: C_36  and  C_38
REMARK                            x       y       z     vdW  Elec       q    Type
REMARK                         _______ _______ _______ _____ _____    ______ ____
ROOT
ATOM      1  C   UNL     1      -4.852  -2.669  -1.820  0.00  0.00    +0.093 C 
ATOM      2  C   UNL     1      -5.222  -2.544  -0.341  0.00  0.00    +0.025 C 
ATOM      3  C   UNL     1      -6.719  -2.256  -0.212  0.00  0.00    +0.004 C 
ATOM      4  C   UNL     1      -7.050  -0.947  -0.933  0.00  0.00    +0.022 C 
ATOM      5  C   UNL     1      -6.680  -1.072  -2.412  0.00  0.00    +0.075 C 
ATOM      6  C   UNL     1      -5.183  -1.361  -2.541  0.00  0.00    +0.047 C 
ENDROOT
BRANCH   1  18
ATOM      7  C   UNL     1       0.029  -0.311  -0.385  0.00  0.00    +0.090 C 
ATOM      8  C   UNL     1       0.007  -1.624  -1.124  0.00  0.00    +0.147 A 
ATOM      9  C   UNL     1      -1.105  -2.294  -1.525  0.00  0.00    +0.109 A 
ATOM     10  C   UNL     1      -0.643  -3.519  -2.205  0.00  0.00    +0.129 A 
ATOM     11  C   UNL     1      -1.669  -4.434  -2.743  0.00  0.00    +0.046 A 
ATOM     12  C   UNL     1      -3.024  -4.108  -2.589  0.00  0.00    +0.056 A 
ATOM     13  C   UNL     1      -3.990  -4.972  -3.096  0.00  0.00    +0.026 A 
ATOM     14  C   UNL     1      -3.615  -6.132  -3.741  0.00  0.00    +0.003 A 
ATOM     15  C   UNL     1      -2.277  -6.452  -3.892  0.00  0.00    +0.021 A 
ATOM     16  C   UNL     1      -1.302  -5.609  -3.396  0.00  0.00    +0.052 A 
ATOM     17 CL   UNL     1       0.376  -6.010  -3.587  0.00  0.00    -0.083 Cl
ATOM     18  N   UNL     1      -3.418  -2.946  -1.943  0.00  0.00    -0.304 N 
ATOM     19  C   UNL     1      -2.550  -2.060  -1.425  0.00  0.00    +0.265 A 
ATOM     20  O   UNL     1      -2.965  -1.060  -0.870  0.00  0.00    -0.267 OA
ATOM     21  N   UNL     1       0.660  -3.506  -2.169  0.00  0.00    -0.077 NA
ATOM     22  O   UNL     1       1.079  -2.328  -1.504  0.00  0.00    -0.359 OA
ENDBRANCH   1  18
BRANCH   5  23
ATOM     23  N   UNL     1      -6.997   0.180  -3.102  0.00  0.00    -0.311 N 
ATOM     24  C   UNL     1      -8.244   0.398  -3.566  0.00  0.00    +0.238 C 
ATOM     25  O   UNL     1      -9.103  -0.444  -3.411  0.00  0.00    -0.273 OA
ATOM     26  H   UNL     1      -6.309   0.853  -3.226  0.00  0.00    +0.149 HD
BRANCH  24  27
ATOM     27  C   UNL     1      -8.570   1.686  -4.276  0.00  0.00    +0.192 C 
BRANCH  27  28
ATOM     28  C   UNL     1      -8.175   1.575  -5.726  0.00  0.00    -0.018 A 
ATOM     29  C   UNL     1      -9.026   0.967  -6.629  0.00  0.00    +0.006 A 
ATOM     30  C   UNL     1      -8.664   0.865  -7.960  0.00  0.00    +0.000 A 
ATOM     31  C   UNL     1      -7.450   1.370  -8.386  0.00  0.00    +0.000 A 
ATOM     32  C   UNL     1      -6.598   1.979  -7.482  0.00  0.00    +0.000 A 
ATOM     33  C   UNL     1      -6.963   2.085  -6.153  0.00  0.00    +0.006 A 
ENDBRANCH  27  28
BRANCH  27  34
ATOM     34  N   UNL     1     -10.008   1.946  -4.180  0.00  0.00    -0.289 N 
ATOM     35  C   UNL     1     -10.967   0.908  -4.566  0.00  0.00    +0.133 C 
ATOM     36  C   UNL     1     -10.450   3.140  -3.737  0.00  0.00    +0.213 C 
ATOM     37  O   UNL     1     -11.636   3.321  -3.561  0.00  0.00    -0.276 OA
ATOM     38  C   UNL     1      -9.469   4.250  -3.461  0.00  0.00    +0.109 C 
ENDBRANCH  27  34
ENDBRANCH  24  27
ENDBRANCH   5  23
TORSDOF 5
