REMARK  Name = ZINC66775752
REMARK  9 active torsions:
REMARK  status: ('A' for Active; 'I' for Inactive)
REMARK    1  A    between atoms: C_1  and  C_2
REMARK    2  A    between atoms: C_2  and  C_3
REMARK    3  A    between atoms: C_2  and  O_4
REMARK    4  A    between atoms: O_4  and  C_5
REMARK    5  A    between atoms: C_5  and  C_6
REMARK    6  A    between atoms: C_14  and  C_15
REMARK    7  A    between atoms: N_17  and  N_18
REMARK    8  A    between atoms: C_19  and  C_21
REMARK    9  A    between atoms: C_21  and  C_22
REMARK                            x       y       z     vdW  Elec       q    Type
REMARK                         _______ _______ _______ _____ _____    ______ ____
ROOT
ATOM      1  C   UNL     1      -3.743  -1.105  -2.697  0.00  0.00    +0.296 C 
ATOM      2  O   UNL     1      -2.649  -0.650  -2.973  0.00  0.00    -0.265 OA
ATOM      3  N   UNL     1      -4.791  -0.885  -3.517  0.00  0.00    -0.228 N 
ATOM      4  H   UNL     1      -5.663  -1.248  -3.297  0.00  0.00    +0.173 HD
ENDROOT
BRANCH   1  13
ATOM      5  C   UNL     1      -2.943  -2.181  -0.575  0.00  0.00    +0.036 A 
ATOM      6  C   UNL     1      -3.576  -2.977   0.477  0.00  0.00    +0.026 A 
ATOM      7  C   UNL     1      -3.121  -3.565   1.659  0.00  0.00    +0.012 A 
ATOM      8  C   UNL     1      -3.991  -4.265   2.446  0.00  0.00    +0.001 A 
ATOM      9  C   UNL     1      -5.323  -4.396   2.077  0.00  0.00    +0.004 A 
ATOM     10  C   UNL     1      -5.792  -3.823   0.914  0.00  0.00    +0.047 A 
ATOM     11  C   UNL     1      -4.925  -3.106   0.098  0.00  0.00    +0.136 A 
ATOM     12  O   UNL     1      -5.085  -2.450  -1.068  0.00  0.00    -0.450 OA
ATOM     13  C   UNL     1      -3.923  -1.896  -1.471  0.00  0.00    +0.197 A 
BRANCH   5  14
ATOM     14  C   UNL     1      -1.499  -1.757  -0.646  0.00  0.00    +0.200 C 
BRANCH  14  15
ATOM     15  O   UNL     1      -1.339  -0.499   0.012  0.00  0.00    -0.372 OA
BRANCH  15  17
ATOM     16  C   UNL     1      -0.019   1.526   0.010  0.00  0.00    +0.037 C 
ATOM     17  C   UNL     1       0.002  -0.004   0.002  0.00  0.00    +0.113 C 
ATOM     18  C   UNL     1       0.742  -0.511   1.242  0.00  0.00    +0.037 C 
ENDBRANCH  15  17
ENDBRANCH  14  15
ENDBRANCH   5  14
ENDBRANCH   1  13
BRANCH   3  19
ATOM     19  N   UNL     1      -4.620  -0.132  -4.685  0.00  0.00    -0.234 N 
ATOM     20  C   UNL     1      -5.667   0.088  -5.505  0.00  0.00    +0.233 C 
ATOM     21  O   UNL     1      -6.758  -0.366  -5.230  0.00  0.00    -0.274 OA
ATOM     22  H   UNL     1      -3.748   0.231  -4.905  0.00  0.00    +0.173 HD
BRANCH  20  23
ATOM     23  C   UNL     1      -5.483   0.898  -6.762  0.00  0.00    +0.135 C 
BRANCH  23  24
ATOM     24  C   UNL     1      -6.797   0.996  -7.494  0.00  0.00    -0.003 A 
ATOM     25  C   UNL     1      -7.094   0.099  -8.503  0.00  0.00    +0.007 A 
ATOM     26  C   UNL     1      -8.299   0.188  -9.174  0.00  0.00    +0.000 A 
ATOM     27  C   UNL     1      -9.208   1.173  -8.837  0.00  0.00    +0.003 A 
ATOM     28  C   UNL     1      -8.914   2.071  -7.829  0.00  0.00    +0.038 A 
ATOM     29  C   UNL     1      -7.709   1.979  -7.152  0.00  0.00    +0.127 A 
ATOM     30  F   UNL     1      -7.422   2.853  -6.162  0.00  0.00    -0.205 F 
ENDBRANCH  23  24
ENDBRANCH  20  23
ENDBRANCH   3  19
TORSDOF 7
