REMARK  Name = ZINC44713528
REMARK  10 active torsions:
REMARK  status: ('A' for Active; 'I' for Inactive)
REMARK    1  A    between atoms: C_1  and  C_2
REMARK    2  A    between atoms: C_2  and  C_3
REMARK    3  A    between atoms: C_2  and  C_4
REMARK    4  A    between atoms: C_2  and  O_5
REMARK    5  A    between atoms: O_5  and  C_6
REMARK    6  A    between atoms: C_11  and  O_14
REMARK    7  A    between atoms: O_14  and  C_15
REMARK    8  A    between atoms: C_16  and  N_26
REMARK    9  A    between atoms: C_18  and  C_22
REMARK   10  A    between atoms: C_20  and  N_21
REMARK                            x       y       z     vdW  Elec       q    Type
REMARK                         _______ _______ _______ _____ _____    ______ ____
ROOT
ATOM      1  C   UNL     1       6.551  -0.138  -4.816  0.00  0.00    +0.162 A 
ATOM      2  C   UNL     1       7.322   0.515  -3.861  0.00  0.00    +0.069 A 
ATOM      3  C   UNL     1       8.693   0.303  -3.814  0.00  0.00    +0.039 A 
ATOM      4  C   UNL     1       9.293  -0.556  -4.716  0.00  0.00    +0.059 A 
ATOM      5  C   UNL     1       8.531  -1.207  -5.667  0.00  0.00    +0.039 A 
ATOM      6  C   UNL     1       7.158  -1.007  -5.717  0.00  0.00    +0.069 A 
ENDROOT
BRANCH   4   7
ATOM      7  C   UNL     1      10.782  -0.782  -4.661  0.00  0.00    +0.418 C 
ATOM      8  F   UNL     1      11.059  -1.857  -3.810  0.00  0.00    -0.166 F 
ATOM      9  F   UNL     1      11.257  -1.070  -5.945  0.00  0.00    -0.166 F 
ATOM     10  F   UNL     1      11.411   0.370  -4.179  0.00  0.00    -0.166 F 
ENDBRANCH   4   7
BRANCH   6  11
ATOM     11  N   UNL     1       6.387  -1.672  -6.678  0.00  0.00    -0.355 N 
ATOM     12  H   UNL     1       5.428  -1.528  -6.715  0.00  0.00    +0.142 HD
ATOM     13  H   UNL     1       6.811  -2.277  -7.306  0.00  0.00    +0.142 HD
ENDBRANCH   6  11
BRANCH   2  14
ATOM     14  N   UNL     1       6.716   1.386  -2.947  0.00  0.00    -0.355 N 
ATOM     15  H   UNL     1       5.758   1.534  -2.981  0.00  0.00    +0.142 HD
ATOM     16  H   UNL     1       7.254   1.842  -2.281  0.00  0.00    +0.142 HD
ENDBRANCH   2  14
BRANCH   1  17
ATOM     17  O   UNL     1       5.206   0.067  -4.865  0.00  0.00    -0.484 OA
BRANCH  17  23
ATOM     18  C   UNL     1       1.952  -0.085  -1.337  0.00  0.00    +0.403 C 
ATOM     19  O   UNL     1       2.488   0.619  -0.503  0.00  0.00    -0.226 OA
ATOM     20  N   UNL     1       2.641  -0.485  -2.424  0.00  0.00    -0.264 N 
ATOM     21  C   UNL     1       2.115  -1.331  -3.511  0.00  0.00    +0.115 C 
ATOM     22  C   UNL     1       2.998  -0.994  -4.738  0.00  0.00    +0.065 C 
ATOM     23  C   UNL     1       4.388  -0.801  -4.078  0.00  0.00    +0.192 C 
ATOM     24  C   UNL     1       4.039  -0.145  -2.726  0.00  0.00    +0.155 C 
BRANCH  18  25
ATOM     25  O   UNL     1       0.671  -0.465  -1.174  0.00  0.00    -0.445 OA
BRANCH  25  27
ATOM     26  C   UNL     1      -0.019   1.526   0.010  0.00  0.00    +0.055 C 
ATOM     27  C   UNL     1       0.002  -0.004   0.002  0.00  0.00    +0.107 C 
ATOM     28  C   UNL     1       0.742  -0.511   1.242  0.00  0.00    +0.055 C 
ATOM     29  C   UNL     1      -1.433  -0.534   0.013  0.00  0.00    +0.055 C 
ENDBRANCH  25  27
ENDBRANCH  18  25
ENDBRANCH  17  23
ENDBRANCH   1  17
TORSDOF 7
