REMARK  Name = ZINC63271499
REMARK  10 active torsions:
REMARK  status: ('A' for Active; 'I' for Inactive)
REMARK    1  A    between atoms: C_1  and  C_2
REMARK    2  A    between atoms: C_5  and  C_8
REMARK    3  A    between atoms: C_9  and  S_10
REMARK    4  A    between atoms: S_10  and  N_13
REMARK    5  A    between atoms: N_13  and  C_14
REMARK    6  A    between atoms: C_14  and  C_15
REMARK    7  A    between atoms: N_17  and  N_18
REMARK    8  A    between atoms: N_21  and  C_22
REMARK    9  A    between atoms: C_22  and  C_23
REMARK   10  A    between atoms: C_22  and  C_24
REMARK                            x       y       z     vdW  Elec       q    Type
REMARK                         _______ _______ _______ _____ _____    ______ ____
ROOT
ATOM      1  N   UNL     1       1.542  -7.156   1.772  0.00  0.00    -0.182 NA
ATOM      2  H   UNL     1       2.192  -7.627   1.227  0.00  0.00    +0.149 HD
ENDROOT
BRANCH   1   3
ATOM      3  S   UNL     1       0.098  -6.682   1.113  0.00  0.00    +0.052 S 
ATOM      4  O   UNL     1      -0.917  -7.106   2.012  0.00  0.00    -0.154 OA
ATOM      5  O   UNL     1       0.123  -7.080  -0.251  0.00  0.00    -0.154 OA
BRANCH   3   7
ATOM      6  C   UNL     1       0.060  -4.251  -0.021  0.00  0.00    +0.028 C 
ATOM      7  C   UNL     1       0.074  -4.920   1.123  0.00  0.00    +0.153 C 
BRANCH   6  12
ATOM      8  C   UNL     1      -0.018   1.503   0.010  0.00  0.00    +0.044 C 
ATOM      9  C   UNL     1       0.002  -0.004   0.002  0.00  0.00    -0.050 A 
ATOM     10  C   UNL     1       0.006  -0.686  -1.202  0.00  0.00    +0.004 A 
ATOM     11  C   UNL     1       0.024  -2.066  -1.216  0.00  0.00    +0.008 A 
ATOM     12  C   UNL     1       0.040  -2.773  -0.013  0.00  0.00    -0.024 A 
ATOM     13  C   UNL     1       0.037  -2.079   1.197  0.00  0.00    +0.008 A 
ATOM     14  C   UNL     1       0.023  -0.699   1.198  0.00  0.00    +0.004 A 
ENDBRANCH   6  12
ENDBRANCH   3   7
ENDBRANCH   1   3
BRANCH   1  15
ATOM     15  C   UNL     1       1.837  -6.864   3.177  0.00  0.00    +0.203 C 
BRANCH  15  16
ATOM     16  C   UNL     1       3.010  -7.697   3.627  0.00  0.00    +0.245 C 
ATOM     17  O   UNL     1       3.546  -8.459   2.850  0.00  0.00    -0.273 OA
ATOM     18  N   UNL     1       3.463  -7.594   4.892  0.00  0.00    -0.232 N 
ATOM     19  H   UNL     1       3.034  -6.985   5.513  0.00  0.00    +0.173 HD
BRANCH  18  20
ATOM     20  N   UNL     1       4.553  -8.368   5.310  0.00  0.00    -0.218 N 
ATOM     21  C   UNL     1       5.006  -8.266   6.576  0.00  0.00    +0.316 C 
ATOM     22  O   UNL     1       5.952  -8.938   6.939  0.00  0.00    -0.251 OA
ATOM     23  N   UNL     1       4.410  -7.419   7.438  0.00  0.00    -0.296 N 
ATOM     24  H   UNL     1       4.982  -8.978   4.689  0.00  0.00    +0.174 HD
ATOM     25  H   UNL     1       3.655  -6.883   7.149  0.00  0.00    +0.151 HD
BRANCH  23  26
ATOM     26  C   UNL     1       4.902  -7.308   8.814  0.00  0.00    +0.068 C 
ATOM     27  C   UNL     1       6.060  -6.309   8.861  0.00  0.00    +0.027 C 
ATOM     28  C   UNL     1       3.772  -6.821   9.722  0.00  0.00    +0.027 C 
ENDBRANCH  23  26
ENDBRANCH  18  20
ENDBRANCH  15  16
ENDBRANCH   1  15
TORSDOF 7
