REMARK  Name = ZINC13498429
REMARK  14 active torsions:
REMARK  status: ('A' for Active; 'I' for Inactive)
REMARK    1  A    between atoms: C_1  and  C_2
REMARK    2  A    between atoms: C_2  and  C_3
REMARK    3  A    between atoms: C_10  and  C_15
REMARK    4  A    between atoms: C_15  and  N_71
REMARK    5  A    between atoms: C_16  and  N_71
REMARK    6  A    between atoms: C_21  and  C_23
REMARK    7  A    between atoms: C_21  and  C_32
REMARK    8  A    between atoms: C_21  and  N_71
REMARK    9  A    between atoms: N_27  and  C_28
REMARK   10  A    between atoms: C_28  and  C_29
REMARK   11  A    between atoms: C_28  and  C_30
REMARK   12  A    between atoms: C_28  and  C_31
REMARK   13  A    between atoms: C_32  and  C_33
REMARK   14  A    between atoms: C_32  and  C_34
REMARK                            x       y       z     vdW  Elec       q    Type
REMARK                         _______ _______ _______ _____ _____    ______ ____
ROOT
ATOM      1  N   UNL     1      -0.453   2.766   1.490  0.00  0.00    +0.391 N 
ATOM      2  H   UNL     1      -0.935   3.009   0.616  0.00  0.00    -0.080 HD
ENDROOT
BRANCH   1   3
ATOM      3  C   UNL     1      -0.968   3.625   2.576  0.00  0.00    -0.067 C 
ATOM      4  C   UNL     1      -2.432   3.249   2.886  0.00  0.00    -0.015 C 
ATOM      5  C   UNL     1      -3.120   4.608   3.172  0.00  0.00    -0.002 C 
ATOM      6  C   UNL     1      -2.450   5.554   2.144  0.00  0.00    -0.002 C 
ATOM      7  C   UNL     1      -0.980   5.090   2.105  0.00  0.00    -0.015 C 
ENDBRANCH   1   3
BRANCH   1   8
ATOM      8  C   UNL     1       0.998   2.986   1.315  0.00  0.00    -0.036 C 
BRANCH   8  16
ATOM      9  C   UNL     1       2.441   8.928   2.266  0.00  0.00    -0.047 A 
ATOM     10  C   UNL     1       2.257   9.344   0.954  0.00  0.00    +0.005 A 
ATOM     11  C   UNL     1       1.868   8.450  -0.020  0.00  0.00    +0.026 A 
ATOM     12  C   UNL     1       1.657   7.116   0.312  0.00  0.00    +0.049 A 
ATOM     13  C   UNL     1       1.844   6.698   1.643  0.00  0.00    -0.001 A 
ATOM     14  C   UNL     1       2.239   7.623   2.615  0.00  0.00    +0.013 A 
ATOM     15  C   UNL     1       1.619   5.292   1.983  0.00  0.00    +0.017 A 
ATOM     16  C   UNL     1       1.238   4.440   0.999  0.00  0.00    +0.001 A 
ATOM     17  C   UNL     1       1.070   4.910  -0.321  0.00  0.00    +0.251 A 
ATOM     18  O   UNL     1       0.731   4.127  -1.192  0.00  0.00    -0.268 OA
ATOM     19  N   UNL     1       1.269   6.200  -0.642  0.00  0.00    -0.322 N 
ATOM     20  H   UNL     1       1.141   6.490  -1.559  0.00  0.00    +0.169 HD
BRANCH   9  22
ATOM     21  C   UNL     1       4.393   9.971   3.383  0.00  0.00    +0.009 C 
ATOM     22  C   UNL     1       2.866   9.925   3.313  0.00  0.00    +0.032 C 
ENDBRANCH   9  22
ENDBRANCH   8  16
ENDBRANCH   1   8
BRANCH   1  23
ATOM     23  C   UNL     1      -0.714   1.345   1.802  0.00  0.00    +0.006 C 
BRANCH  23  24
ATOM     24  C   UNL     1      -2.185   1.071   1.620  0.00  0.00    +0.139 A 
ATOM     25  N   UNL     1      -2.946   1.503   0.643  0.00  0.00    -0.115 NA
ATOM     26  N   UNL     1      -4.138   1.056   0.841  0.00  0.00    -0.023 NA
ATOM     27  N   UNL     1      -4.157   0.350   1.918  0.00  0.00    -0.043 NA
ATOM     28  N   UNL     1      -2.971   0.332   2.424  0.00  0.00    -0.226 N 
BRANCH  28  29
ATOM     29  C   UNL     1      -2.557  -0.361   3.647  0.00  0.00    +0.059 C 
ATOM     30  C   UNL     1      -2.228   0.668   4.730  0.00  0.00    +0.036 C 
ATOM     31  C   UNL     1      -3.694  -1.265   4.130  0.00  0.00    +0.036 C 
ATOM     32  C   UNL     1      -1.318  -1.211   3.357  0.00  0.00    +0.036 C 
ENDBRANCH  28  29
ENDBRANCH  23  24
BRANCH  23  33
ATOM     33  C   UNL     1       0.091   0.464   0.846  0.00  0.00    -0.024 C 
ATOM     34  C   UNL     1       1.531   0.347   1.350  0.00  0.00    +0.006 C 
ATOM     35  C   UNL     1       0.089   1.091  -0.550  0.00  0.00    +0.006 C 
ENDBRANCH  23  33
ENDBRANCH   1  23
TORSDOF 8
