REMARK  Name = ZINC27271271
REMARK  6 active torsions:
REMARK  status: ('A' for Active; 'I' for Inactive)
REMARK    1  A    between atoms: C_1  and  N_2
REMARK    2  A    between atoms: N_2  and  C_3
REMARK    3  A    between atoms: N_2  and  C_24
REMARK    4  A    between atoms: C_3  and  C_4
REMARK    5  A    between atoms: C_13  and  S_15
REMARK    6  A    between atoms: S_15  and  N_18
REMARK                            x       y       z     vdW  Elec       q    Type
REMARK                         _______ _______ _______ _____ _____    ______ ____
ROOT
ATOM      1  C   UNL     1      -0.106  -0.083  -2.424  0.00  0.00    +0.203 C 
ATOM      2  O   UNL     1      -1.143   0.532  -2.298  0.00  0.00    -0.277 OA
ATOM      3  N   UNL     1       0.336  -0.414  -3.654  0.00  0.00    -0.272 N 
ATOM      4  C   UNL     1       1.567  -1.159  -3.932  0.00  0.00    +0.118 C 
ATOM      5  C   UNL     1       1.627  -1.281  -5.464  0.00  0.00    +0.056 C 
ATOM      6  C   UNL     1       0.384  -0.572  -5.951  0.00  0.00    -0.023 A 
ATOM      7  C   UNL     1      -0.316  -0.102  -4.851  0.00  0.00    +0.040 A 
ATOM      8  C   UNL     1      -1.513   0.588  -5.053  0.00  0.00    +0.026 A 
ATOM      9  C   UNL     1      -1.990   0.793  -6.330  0.00  0.00    +0.030 A 
ATOM     10  C   UNL     1      -1.287   0.317  -7.421  0.00  0.00    +0.106 A 
ATOM     11  C   UNL     1      -0.096  -0.360  -7.229  0.00  0.00    +0.034 A 
ENDROOT
BRANCH  10  12
ATOM     12  S   UNL     1      -1.900   0.581  -9.051  0.00  0.00    +0.061 S 
ATOM     13  O   UNL     1      -1.336  -0.437  -9.867  0.00  0.00    -0.153 OA
ATOM     14  O   UNL     1      -3.304   0.771  -8.931  0.00  0.00    -0.153 OA
BRANCH  12  15
ATOM     15  N   UNL     1      -1.272   2.017  -9.584  0.00  0.00    -0.177 NA
ATOM     16  C   UNL     1      -1.984   3.280  -9.345  0.00  0.00    +0.109 C 
ATOM     17  C   UNL     1      -1.029   4.261  -8.657  0.00  0.00    +0.017 C 
ATOM     18  C   UNL     1       0.241   4.405  -9.498  0.00  0.00    +0.003 C 
ATOM     19  C   UNL     1       0.940   3.048  -9.607  0.00  0.00    +0.017 C 
ATOM     20  C   UNL     1       0.010   2.054 -10.300  0.00  0.00    +0.109 C 
ENDBRANCH  12  15
ENDBRANCH  10  12
BRANCH   1  21
ATOM     21  C   UNL     1       0.690  -0.478  -1.207  0.00  0.00    +0.019 C 
BRANCH  21  23
ATOM     22  C   UNL     1      -0.018   1.465   0.010  0.00  0.00    -0.095 C 
ATOM     23  N   UNL     1       0.002  -0.004   0.002  0.00  0.00    +0.385 N 
ATOM     24  H   UNL     1      -0.945  -0.353   0.009  0.00  0.00    -0.081 HD
BRANCH  23  25
ATOM     25  C   UNL     1       0.713  -0.491   1.192  0.00  0.00    -0.068 C 
ATOM     26  C   UNL     1       0.733  -2.021   1.184  0.00  0.00    -0.015 C 
ATOM     27  C   UNL     1       1.473  -2.527   2.423  0.00  0.00    -0.002 C 
ATOM     28  C   UNL     1       0.757  -2.034   3.682  0.00  0.00    -0.000 C 
ATOM     29  C   UNL     1       0.736  -0.504   3.691  0.00  0.00    -0.002 C 
ATOM     30  C   UNL     1      -0.004   0.003   2.451  0.00  0.00    -0.015 C 
ENDBRANCH  23  25
ENDBRANCH  21  23
ENDBRANCH   1  21
TORSDOF 5
