REMARK  Name = ZINC23357788
REMARK  13 active torsions:
REMARK  status: ('A' for Active; 'I' for Inactive)
REMARK    1  A    between atoms: C_1  and  C_2
REMARK    2  A    between atoms: C_2  and  C_3
REMARK    3  A    between atoms: C_2  and  C_4
REMARK    4  A    between atoms: C_4  and  N_5
REMARK    5  A    between atoms: C_6  and  N_31
REMARK    6  A    between atoms: C_7  and  N_14
REMARK    7  A    between atoms: N_14  and  C_15
REMARK    8  A    between atoms: N_14  and  C_19
REMARK    9  A    between atoms: C_15  and  C_16
REMARK   10  A    between atoms: C_16  and  C_17
REMARK   11  A    between atoms: C_16  and  C_18
REMARK   12  A    between atoms: C_19  and  C_20
REMARK   13  A    between atoms: N_22  and  C_23
REMARK                            x       y       z     vdW  Elec       q    Type
REMARK                         _______ _______ _______ _____ _____    ______ ____
ROOT
ATOM      1  N   UNL     1       2.410   1.042  -0.033  0.00  0.00    -0.314 N 
ENDROOT
BRANCH   1   4
ATOM      2  N   UNL     1       5.527   2.130  -1.635  0.00  0.00    -0.280 N 
ATOM      3  C   UNL     1       4.346   1.459  -1.417  0.00  0.00    +0.127 A 
ATOM      4  C   UNL     1       3.627   1.718  -0.282  0.00  0.00    +0.134 A 
ATOM      5  C   UNL     1       4.113   2.670   0.631  0.00  0.00    +0.277 A 
ATOM      6  O   UNL     1       3.487   2.922   1.647  0.00  0.00    -0.266 OA
ATOM      7  N   UNL     1       5.278   3.299   0.379  0.00  0.00    -0.273 N 
ATOM      8  H   UNL     1       5.670   4.038   1.093  0.00  0.00    +0.173 HD
ATOM      9  C   UNL     1       5.972   3.033  -0.742  0.00  0.00    +0.331 A 
ATOM     10  O   UNL     1       7.018   3.617  -0.952  0.00  0.00    -0.246 OA
BRANCH   3  11
ATOM     11  N   UNL     1       3.892   0.535  -2.331  0.00  0.00    -0.343 N 
ATOM     12  H   UNL     1       2.947   0.002  -2.152  0.00  0.00    +0.144 HD
ATOM     13  H   UNL     1       4.475   0.331  -3.242  0.00  0.00    +0.144 HD
ENDBRANCH   3  11
BRANCH   2  14
ATOM     14  C   UNL     1       6.305   1.861  -2.847  0.00  0.00    +0.131 C 
BRANCH  14  16
ATOM     15  C   UNL     1       6.751   2.612  -5.188  0.00  0.00    +0.009 C 
ATOM     16  C   UNL     1       5.856   2.807  -3.962  0.00  0.00    +0.003 C 
ATOM     17  C   UNL     1       4.405   2.502  -4.337  0.00  0.00    +0.009 C 
ENDBRANCH  14  16
ENDBRANCH   2  14
ENDBRANCH   1   4
BRANCH   1  18
ATOM     18  C   UNL     1       2.478   0.277   1.219  0.00  0.00    +0.109 C 
BRANCH  18  19
ATOM     19  C   UNL     1       3.499  -0.854   1.071  0.00  0.00    +0.000 C 
ATOM     20  C   UNL     1       3.662  -1.572   2.412  0.00  0.00    +0.009 C 
ATOM     21  C   UNL     1       3.009  -1.848   0.016  0.00  0.00    +0.009 C 
ENDBRANCH  18  19
ENDBRANCH   1  18
BRANCH   1  22
ATOM     22  C   UNL     1       1.280   1.981  -0.015  0.00  0.00    +0.201 C 
BRANCH  22  23
ATOM     23  C   UNL     1      -0.014   1.209   0.005  0.00  0.00    +0.235 C 
ATOM     24  O   UNL     1       0.003  -0.004   0.004  0.00  0.00    -0.274 OA
ATOM     25  N   UNL     1      -1.191   1.867   0.018  0.00  0.00    -0.282 N 
ATOM     26  H   UNL     1      -1.207   2.963   0.110  0.00  0.00    +0.155 HD
BRANCH  25  27
ATOM     27  C   UNL     1      -2.392   1.155  -0.086  0.00  0.00    +0.069 A 
ATOM     28  C   UNL     1      -2.412  -0.091  -0.698  0.00  0.00    +0.027 A 
ATOM     29  C   UNL     1      -3.598  -0.791  -0.800  0.00  0.00    +0.017 A 
ATOM     30  C   UNL     1      -4.767  -0.254  -0.291  0.00  0.00    +0.021 A 
ATOM     31  C   UNL     1      -4.753   0.987   0.320  0.00  0.00    +0.055 A 
ATOM     32  C   UNL     1      -3.567   1.691   0.429  0.00  0.00    +0.146 A 
ATOM     33  F   UNL     1      -3.551   2.901   1.031  0.00  0.00    -0.204 F 
ATOM     34 BR   UNL     1      -6.388  -1.217  -0.433  0.00  0.00    -0.050 Br
ENDBRANCH  25  27
ENDBRANCH  22  23
ENDBRANCH   1  22
TORSDOF 9
