REMARK  Name = ZINC35024513
REMARK  13 active torsions:
REMARK  status: ('A' for Active; 'I' for Inactive)
REMARK    1  A    between atoms: C_1  and  C_2
REMARK    2  A    between atoms: C_4  and  O_31
REMARK    3  A    between atoms: C_10  and  C_11
REMARK    4  A    between atoms: C_10  and  C_12
REMARK    5  A    between atoms: C_15  and  O_30
REMARK    6  A    between atoms: C_19  and  C_29
REMARK    7  A    between atoms: C_22  and  O_28
REMARK    8  A    between atoms: C_24  and  C_26
REMARK    9  A    between atoms: C_26  and  O_27
REMARK   10  A    between atoms: O_31  and  C_32
REMARK   11  A    between atoms: C_32  and  C_34
REMARK   12  A    between atoms: C_34  and  C_35
REMARK   13  A    between atoms: C_34  and  C_36
REMARK                            x       y       z     vdW  Elec       q    Type
REMARK                         _______ _______ _______ _____ _____    ______ ____
ROOT
ATOM      1  C   UNL     1      -0.019   1.524   0.010  0.00  0.00    +0.014 C 
ATOM      2  C   UNL     1       0.002  -0.004   0.002  0.00  0.00    +0.060 C 
ATOM      3  C   UNL     1       0.661  -0.461  -1.298  0.00  0.00    +0.186 C 
ATOM      4  C   UNL     1       0.607  -1.973  -1.392  0.00  0.00    +0.040 C 
ATOM      5  C   UNL     1       0.539  -2.760  -0.091  0.00  0.00    +0.012 C 
ATOM      6  C   UNL     1       1.760  -2.877  -0.992  0.00  0.00    -0.025 C 
ATOM      7  C   UNL     1       1.901  -4.191  -1.790  0.00  0.00    +0.011 C 
ATOM      8  C   UNL     1       3.093  -2.288  -0.549  0.00  0.00    +0.011 C 
ATOM      9  C   UNL     1       0.595  -2.079   1.260  0.00  0.00    +0.048 C 
ATOM     10  C   UNL     1       0.707  -0.567   1.239  0.00  0.00    +0.088 C 
ATOM     11  C   UNL     1       0.021   0.008   2.474  0.00  0.00    +0.084 C 
ATOM     12  C   UNL     1       0.556   1.356   2.894  0.00  0.00    -0.011 C 
ATOM     13  C   UNL     1       0.438   1.471   4.221  0.00  0.00    -0.009 C 
ATOM     14  C   UNL     1      -0.111   0.243   4.801  0.00  0.00    +0.191 C 
ATOM     15  O   UNL     1      -0.658   0.080   5.861  0.00  0.00    -0.289 OA
ATOM     16  C   UNL     1       0.220  -0.831   3.747  0.00  0.00    +0.140 C 
ATOM     17  C   UNL     1       1.711  -1.122   3.925  0.00  0.00    +0.076 C 
ATOM     18  C   UNL     1       2.122  -2.370   3.219  0.00  0.00    -0.045 C 
ATOM     19  C   UNL     1       1.639  -2.763   2.088  0.00  0.00    -0.019 C 
ATOM     20  C   UNL     1       0.819   2.697   5.005  0.00  0.00    +0.047 C 
ENDROOT
BRANCH  16  21
ATOM     21  O   UNL     1      -0.620  -1.971   3.859  0.00  0.00    -0.380 OA
ATOM     22  H   UNL     1      -0.480  -2.485   4.666  0.00  0.00    +0.211 HD
ENDBRANCH  16  21
BRANCH  10  23
ATOM     23  O   UNL     1       2.074  -0.168   1.231  0.00  0.00    -0.387 OA
ATOM     24  H   UNL     1       2.204   0.790   1.240  0.00  0.00    +0.210 HD
ENDBRANCH  10  23
BRANCH  18  25
ATOM     25  C   UNL     1       3.173  -3.234   3.873  0.00  0.00    +0.186 C 
BRANCH  25  26
ATOM     26  O   UNL     1       3.430  -4.375   3.052  0.00  0.00    -0.391 OA
ATOM     27  H   UNL     1       4.097  -4.976   3.412  0.00  0.00    +0.210 HD
ENDBRANCH  25  26
ENDBRANCH  18  25
BRANCH   3  28
ATOM     28  O   UNL     1       1.968   0.078  -1.433  0.00  0.00    -0.460 OA
BRANCH  28  29
ATOM     29  C   UNL     1       2.077   1.262  -2.055  0.00  0.00    +0.310 C 
ATOM     30  O   UNL     1       1.089   1.820  -2.471  0.00  0.00    -0.251 OA
BRANCH  29  31
ATOM     31  C   UNL     1       3.432   1.896  -2.236  0.00  0.00    +0.092 C 
ATOM     32  C   UNL     1       3.278   3.230  -2.970  0.00  0.00    +0.019 C 
ATOM     33  C   UNL     1       4.069   2.138  -0.866  0.00  0.00    +0.019 C 
ENDBRANCH  29  31
ENDBRANCH  28  29
ENDBRANCH   3  28
TORSDOF 7
