REMARK  Name = ZINC12554104
REMARK  9 active torsions:
REMARK  status: ('A' for Active; 'I' for Inactive)
REMARK    1  A    between atoms: C_1  and  C_2
REMARK    2  A    between atoms: C_2  and  C_3
REMARK    3  A    between atoms: C_2  and  N_4
REMARK    4  A    between atoms: N_4  and  S_5
REMARK    5  A    between atoms: S_5  and  C_8
REMARK    6  A    between atoms: C_11  and  N_17
REMARK    7  A    between atoms: C_12  and  N_14
REMARK    8  A    between atoms: N_17  and  C_18
REMARK    9  A    between atoms: C_23  and  C_26
REMARK                            x       y       z     vdW  Elec       q    Type
REMARK                         _______ _______ _______ _____ _____    ______ ____
ROOT
ATOM      1  C   UNL     1      -6.281  -0.457  -3.722  0.00  0.00    +0.108 A 
ATOM      2  C   UNL     1      -5.415  -1.090  -2.849  0.00  0.00    +0.030 A 
ATOM      3  C   UNL     1      -4.202  -0.510  -2.535  0.00  0.00    +0.027 A 
ATOM      4  C   UNL     1      -3.853   0.712  -3.096  0.00  0.00    +0.058 A 
ATOM      5  C   UNL     1      -4.727   1.349  -3.967  0.00  0.00    +0.149 A 
ATOM      6  C   UNL     1      -5.936   0.759  -4.282  0.00  0.00    +0.063 A 
ENDROOT
BRANCH   1   7
ATOM      7  S   UNL     1      -7.828  -1.201  -4.119  0.00  0.00    +0.059 S 
ATOM      8  O   UNL     1      -8.220  -0.674  -5.379  0.00  0.00    -0.153 OA
ATOM      9  O   UNL     1      -7.678  -2.595  -3.890  0.00  0.00    -0.153 OA
BRANCH   7  10
ATOM     10  N   UNL     1      -8.933  -0.655  -3.013  0.00  0.00    -0.187 NA
ATOM     11  H   UNL     1      -9.344  -1.276  -2.391  0.00  0.00    +0.148 HD
BRANCH  10  13
ATOM     12  C   UNL     1     -10.768   0.909  -2.608  0.00  0.00    +0.025 C 
ATOM     13  C   UNL     1      -9.290   0.765  -2.973  0.00  0.00    +0.070 C 
ATOM     14  C   UNL     1      -8.433   1.477  -1.925  0.00  0.00    +0.025 C 
ENDBRANCH  10  13
ENDBRANCH   7  10
ENDBRANCH   1   7
BRANCH   5  15
ATOM     15  N   UNL     1      -4.362   2.653  -4.563  0.00  0.00    +0.058 N 
ATOM     16  O   UNL     1      -3.760   3.478  -3.899  0.00  0.00    -0.126 OA
ATOM     17  O   UNL     1      -4.663   2.902  -5.716  0.00  0.00    -0.126 OA
ENDBRANCH   5  15
BRANCH   4  18
ATOM     18  N   UNL     1      -2.627   1.303  -2.780  0.00  0.00    -0.339 N 
ATOM     19  H   UNL     1      -2.347   2.113  -3.234  0.00  0.00    +0.146 HD
BRANCH  18  20
ATOM     20  C   UNL     1      -1.763   0.698  -1.764  0.00  0.00    +0.071 C 
ATOM     21  C   UNL     1      -2.188   1.185  -0.377  0.00  0.00    +0.022 C 
ATOM     22  C   UNL     1      -1.286   0.553   0.685  0.00  0.00    +0.002 C 
ATOM     23  C   UNL     1       0.167   0.958   0.425  0.00  0.00    +0.012 C 
ATOM     24  C   UNL     1       0.592   0.470  -0.961  0.00  0.00    +0.095 C 
ATOM     25  C   UNL     1      -0.310   1.102  -2.023  0.00  0.00    +0.034 C 
BRANCH  24  26
ATOM     26  C   UNL     1       2.045   0.874  -1.220  0.00  0.00    +0.393 C 
ATOM     27  F   UNL     1       2.160   2.267  -1.161  0.00  0.00    -0.170 F 
ATOM     28  F   UNL     1       2.870   0.296  -0.249  0.00  0.00    -0.170 F 
ATOM     29  F   UNL     1       2.434   0.428  -2.488  0.00  0.00    -0.170 F 
ENDBRANCH  24  26
ENDBRANCH  18  20
ENDBRANCH   4  18
TORSDOF 7
