REMARK  Name = ZINC35486944
REMARK  9 active torsions:
REMARK  status: ('A' for Active; 'I' for Inactive)
REMARK    1  A    between atoms: C_1  and  N_2
REMARK    2  A    between atoms: N_2  and  C_3
REMARK    3  A    between atoms: N_2  and  C_4
REMARK    4  A    between atoms: C_4  and  C_5
REMARK    5  A    between atoms: C_5  and  C_6
REMARK    6  A    between atoms: C_6  and  N_7
REMARK    7  A    between atoms: C_8  and  C_24
REMARK    8  A    between atoms: C_28  and  O_30
REMARK    9  A    between atoms: O_30  and  C_31
REMARK                            x       y       z     vdW  Elec       q    Type
REMARK                         _______ _______ _______ _____ _____    ______ ____
ROOT
ATOM      1  N   UNL     1      -0.082  -0.239   4.890  0.00  0.00    -0.284 N 
ATOM      2  C   UNL     1       0.074   1.008   5.656  0.00  0.00    +0.145 C 
ATOM      3  C   UNL     1      -0.901   0.917   6.784  0.00  0.00    +0.072 A 
ATOM      4  C   UNL     1      -1.200   1.845   7.880  0.00  0.00    +0.199 A 
ATOM      5  O   UNL     1      -0.767   2.983   7.927  0.00  0.00    -0.287 OA
ATOM      6  C   UNL     1      -2.080   1.266   8.925  0.00  0.00    +0.065 A 
ATOM      7  C   UNL     1      -2.295   1.946  10.124  0.00  0.00    +0.030 A 
ATOM      8  C   UNL     1      -3.111   1.391  11.085  0.00  0.00    +0.019 A 
ATOM      9  C   UNL     1      -3.715   0.161  10.859  0.00  0.00    +0.019 A 
ATOM     10  C   UNL     1      -3.512  -0.518   9.679  0.00  0.00    +0.048 A 
ATOM     11  C   UNL     1      -2.692   0.024   8.690  0.00  0.00    +0.140 A 
ATOM     12  O   UNL     1      -2.517  -0.660   7.536  0.00  0.00    -0.450 OA
ATOM     13  C   UNL     1      -1.560  -0.274   6.670  0.00  0.00    +0.199 A 
ATOM     14  C   UNL     1      -1.040  -0.979   5.485  0.00  0.00    +0.283 C 
ATOM     15  O   UNL     1      -1.417  -2.068   5.102  0.00  0.00    -0.267 OA
ATOM     16 BR   UNL     1      -3.409   2.305  12.713  0.00  0.00    -0.050 Br
ENDROOT
BRANCH   2  17
ATOM     17  C   UNL     1       1.479   1.119   6.189  0.00  0.00    -0.019 A 
ATOM     18  C   UNL     1       2.122  -0.003   6.680  0.00  0.00    +0.006 A 
ATOM     19  C   UNL     1       3.412   0.096   7.170  0.00  0.00    +0.004 A 
ATOM     20  C   UNL     1       4.060   1.316   7.170  0.00  0.00    +0.045 A 
ATOM     21  C   UNL     1       3.417   2.442   6.677  0.00  0.00    +0.120 A 
ATOM     22  C   UNL     1       2.126   2.339   6.181  0.00  0.00    +0.051 A 
BRANCH  21  23
ATOM     23  O   UNL     1       4.054   3.643   6.676  0.00  0.00    -0.495 OA
ATOM     24  C   UNL     1       5.384   3.673   7.197  0.00  0.00    +0.277 C 
ENDBRANCH  21  23
ENDBRANCH   2  17
BRANCH   1  25
ATOM     25  C   UNL     1       0.669  -0.610   3.687  0.00  0.00    +0.107 C 
BRANCH  25  26
ATOM     26  C   UNL     1      -0.071  -0.103   2.448  0.00  0.00    +0.000 C 
BRANCH  26  27
ATOM     27  C   UNL     1       0.713  -0.491   1.192  0.00  0.00    -0.078 C 
BRANCH  27  29
ATOM     28  C   UNL     1      -0.018   1.465   0.010  0.00  0.00    -0.097 C 
ATOM     29  N   UNL     1       0.002  -0.004   0.002  0.00  0.00    +0.376 N 
ATOM     30  C   UNL     1       0.690  -0.478  -1.207  0.00  0.00    -0.097 C 
ATOM     31  H   UNL     1      -0.945  -0.353   0.009  0.00  0.00    -0.083 HD
ENDBRANCH  27  29
ENDBRANCH  26  27
ENDBRANCH  25  26
ENDBRANCH   1  25
TORSDOF 6
