REMARK  Name = ZINC01889731
REMARK  13 active torsions:
REMARK  status: ('A' for Active; 'I' for Inactive)
REMARK    1  A    between atoms: C_1  and  C_2
REMARK    2  A    between atoms: C_2  and  C_39
REMARK    3  A    between atoms: C_9  and  C_24
REMARK    4  A    between atoms: C_9  and  N_28
REMARK    5  A    between atoms: N_12  and  C_13
REMARK    6  A    between atoms: C_13  and  C_14
REMARK    7  A    between atoms: C_16  and  O_22
REMARK    8  A    between atoms: C_18  and  O_20
REMARK    9  A    between atoms: O_20  and  C_21
REMARK   10  A    between atoms: O_22  and  C_23
REMARK   11  A    between atoms: C_29  and  C_31
REMARK   12  A    between atoms: C_31  and  C_32
REMARK   13  A    between atoms: C_32  and  C_33
REMARK                            x       y       z     vdW  Elec       q    Type
REMARK                         _______ _______ _______ _____ _____    ______ ____
ROOT
ATOM      1  C   UNL     1      -1.895   1.417  -0.100  0.00  0.00    +0.011 C 
ATOM      2  C   UNL     1      -1.404  -0.032  -0.107  0.00  0.00    -0.023 C 
ATOM      3  C   UNL     1      -2.597  -0.972   0.100  0.00  0.00    +0.058 C 
ATOM      4  C   UNL     1      -2.069  -2.390   0.187  0.00  0.00    +0.024 C 
ATOM      5  C   UNL     1      -0.807  -2.653   0.621  0.00  0.00    +0.053 C 
ATOM      6  C   UNL     1       0.098  -1.661   1.025  0.00  0.00    +0.164 C 
ATOM      7  O   UNL     1       1.225  -1.945   1.378  0.00  0.00    -0.292 OA
ATOM      8  C   UNL     1      -0.377  -0.224   1.010  0.00  0.00    +0.086 C 
ATOM      9  C   UNL     1      -0.632  -4.146   0.567  0.00  0.00    +0.237 C 
ATOM     10  C   UNL     1      -1.974  -4.634   0.052  0.00  0.00    +0.257 C 
ATOM     11  O   UNL     1      -2.301  -5.784  -0.152  0.00  0.00    -0.272 OA
ATOM     12  N   UNL     1      -2.729  -3.533  -0.133  0.00  0.00    -0.268 N 
ATOM     13  C   UNL     1      -0.750  -0.338  -1.455  0.00  0.00    +0.011 C 
ENDROOT
BRANCH   9  14
ATOM     14  C   UNL     1       0.488  -4.524  -0.404  0.00  0.00    +0.424 C 
ATOM     15  F   UNL     1       1.710  -4.048   0.086  0.00  0.00    -0.167 F 
ATOM     16  F   UNL     1       0.547  -5.916  -0.530  0.00  0.00    -0.167 F 
ATOM     17  F   UNL     1       0.234  -3.953  -1.655  0.00  0.00    -0.167 F 
ENDBRANCH   9  14
BRANCH   9  18
ATOM     18  N   UNL     1      -0.364  -4.684   1.903  0.00  0.00    -0.291 N 
ATOM     19  C   UNL     1      -1.216  -4.428   2.915  0.00  0.00    +0.214 C 
ATOM     20  O   UNL     1      -2.248  -3.827   2.703  0.00  0.00    -0.276 OA
ATOM     21  H   UNL     1       0.426  -5.224   2.059  0.00  0.00    +0.150 HD
BRANCH  19  22
ATOM     22  C   UNL     1      -0.887  -4.888   4.312  0.00  0.00    +0.096 C 
BRANCH  22  23
ATOM     23  C   UNL     1      -2.010  -4.474   5.264  0.00  0.00    +0.013 C 
BRANCH  23  24
ATOM     24  C   UNL     1      -1.675  -4.941   6.682  0.00  0.00    -0.011 C 
ATOM     25  C   UNL     1      -1.654  -6.471   6.723  0.00  0.00    +0.003 C 
ATOM     26  C   UNL     1      -1.319  -6.938   8.141  0.00  0.00    +0.000 C 
ATOM     27  C   UNL     1      -2.379  -6.417   9.113  0.00  0.00    +0.000 C 
ATOM     28  C   UNL     1      -2.401  -4.888   9.072  0.00  0.00    +0.000 C 
ATOM     29  C   UNL     1      -2.735  -4.420   7.654  0.00  0.00    +0.003 C 
ENDBRANCH  23  24
ENDBRANCH  22  23
ENDBRANCH  19  22
ENDBRANCH   9  18
BRANCH  12  30
ATOM     30  C   UNL     1      -4.109  -3.566  -0.624  0.00  0.00    +0.148 C 
BRANCH  30  31
ATOM     31  C   UNL     1      -4.110  -3.476  -2.128  0.00  0.00    -0.023 A 
ATOM     32  C   UNL     1      -4.158  -2.240  -2.745  0.00  0.00    +0.051 A 
ATOM     33  C   UNL     1      -4.159  -2.155  -4.130  0.00  0.00    +0.124 A 
ATOM     34  C   UNL     1      -4.111  -3.311  -4.895  0.00  0.00    +0.091 A 
ATOM     35  C   UNL     1      -4.063  -4.549  -4.273  0.00  0.00    +0.124 A 
ATOM     36  C   UNL     1      -4.057  -4.629  -2.888  0.00  0.00    +0.051 A 
BRANCH  35  37
ATOM     37  O   UNL     1      -4.017  -5.684  -5.020  0.00  0.00    -0.495 OA
ATOM     38  C   UNL     1      -4.021  -5.526  -6.440  0.00  0.00    +0.277 C 
ENDBRANCH  35  37
BRANCH  33  39
ATOM     39  O   UNL     1      -4.206  -0.940  -4.737  0.00  0.00    -0.495 OA
ATOM     40  C   UNL     1      -4.204  -0.928  -6.166  0.00  0.00    +0.277 C 
ENDBRANCH  33  39
ENDBRANCH  30  31
ENDBRANCH  12  30
TORSDOF 9
