REMARK  Name = ZINC23448161
REMARK  2 active torsions:
REMARK  status: ('A' for Active; 'I' for Inactive)
REMARK    1  A    between atoms: N_14  and  C_18
REMARK    2  A    between atoms: C_18  and  C_19
REMARK                            x       y       z     vdW  Elec       q    Type
REMARK                         _______ _______ _______ _____ _____    ______ ____
ROOT
ATOM      1  C   UNL     1      -0.017   1.378   0.010  0.00  0.00    +0.000 A 
ATOM      2  C   UNL     1       1.173   2.082   0.002  0.00  0.00    +0.000 A 
ATOM      3  C   UNL     1       2.377   1.405  -0.015  0.00  0.00    +0.006 A 
ATOM      4  C   UNL     1       2.394   0.019  -0.025  0.00  0.00    -0.012 A 
ATOM      5  C   UNL     1       1.213  -0.678  -0.014  0.00  0.00    -0.042 A 
ATOM      6  C   UNL     1       0.002  -0.004   0.002  0.00  0.00    +0.004 A 
ATOM      7  C   UNL     1       1.187  -2.200  -0.016  0.00  0.00    +0.035 C 
ATOM      8  C   UNL     1       1.665  -2.667  -1.395  0.00  0.00    +0.005 C 
ATOM      9  C   UNL     1       3.170  -2.677  -1.499  0.00  0.00    +0.003 C 
ATOM     10  C   UNL     1       3.893  -1.353  -1.428  0.00  0.00    +0.040 C 
ATOM     11  C   UNL     1       3.739  -0.688  -0.054  0.00  0.00    +0.138 C 
ATOM     12  C   UNL     1       3.983  -1.608   1.093  0.00  0.00    +0.251 C 
ATOM     13  O   UNL     1       3.560  -2.721   1.320  0.00  0.00    -0.272 OA
ATOM     14  N   UNL     1       4.871  -0.962   1.892  0.00  0.00    -0.215 N 
ATOM     15  C   UNL     1       5.342   0.142   1.302  0.00  0.00    +0.310 C 
ATOM     16  O   UNL     1       6.168   0.879   1.802  0.00  0.00    -0.252 OA
ATOM     17  N   UNL     1       4.791   0.341   0.090  0.00  0.00    -0.281 N 
ATOM     18  H   UNL     1       5.027   1.013  -0.564  0.00  0.00    +0.152 HD
ENDROOT
BRANCH  14  19
ATOM     19  C   UNL     1       5.258  -1.425   3.225  0.00  0.00    +0.214 C 
BRANCH  19  20
ATOM     20  C   UNL     1       6.451  -2.338   3.114  0.00  0.00    +0.238 C 
ATOM     21  O   UNL     1       6.931  -2.577   2.026  0.00  0.00    -0.274 OA
ATOM     22  N   UNL     1       6.985  -2.888   4.222  0.00  0.00    -0.239 N 
ATOM     23  C   UNL     1       8.053  -3.704   4.122  0.00  0.00    +0.303 C 
ATOM     24  O   UNL     1       8.534  -3.944   3.032  0.00  0.00    -0.253 OA
ATOM     25  N   UNL     1       8.587  -4.254   5.231  0.00  0.00    -0.313 N 
ATOM     26  H   UNL     1       6.601  -2.696   5.092  0.00  0.00    +0.159 HD
ATOM     27  H   UNL     1       8.203  -4.062   6.101  0.00  0.00    +0.146 HD
ATOM     28  H   UNL     1       9.355  -4.842   5.159  0.00  0.00    +0.146 HD
ENDBRANCH  19  20
ENDBRANCH  14  19
TORSDOF 2
