REMARK  Name = ZINC08800259
REMARK  11 active torsions:
REMARK  status: ('A' for Active; 'I' for Inactive)
REMARK    1  A    between atoms: C_1  and  C_2
REMARK    2  A    between atoms: C_2  and  O_3
REMARK    3  A    between atoms: O_3  and  C_4
REMARK    4  A    between atoms: C_7  and  C_33
REMARK    5  A    between atoms: C_9  and  S_10
REMARK    6  A    between atoms: S_10  and  N_13
REMARK    7  A    between atoms: N_13  and  C_14
REMARK    8  A    between atoms: C_14  and  C_15
REMARK    9  A    between atoms: C_15  and  C_17
REMARK   10  A    between atoms: C_15  and  N_70
REMARK   11  A    between atoms: N_26  and  C_27
REMARK                            x       y       z     vdW  Elec       q    Type
REMARK                         _______ _______ _______ _____ _____    ______ ____
ROOT
ATOM      1  C   UNL     1       5.556   2.811   3.942  0.00  0.00    -0.022 C 
ENDROOT
BRANCH   1   2
ATOM      2  C   UNL     1       6.003   1.382   3.772  0.00  0.00    -0.059 A 
ATOM      3  C   UNL     1       6.551   0.965   2.573  0.00  0.00    +0.004 A 
ATOM      4  C   UNL     1       6.962  -0.342   2.421  0.00  0.00    +0.023 A 
ATOM      5  C   UNL     1       6.817  -1.254   3.468  0.00  0.00    +0.033 A 
ATOM      6  C   UNL     1       6.267  -0.832   4.665  0.00  0.00    -0.026 A 
ATOM      7  C   UNL     1       5.861   0.485   4.812  0.00  0.00    +0.007 A 
ATOM      8  C   UNL     1       6.093  -1.764   5.838  0.00  0.00    +0.038 C 
ATOM      9  C   UNL     1       6.232  -3.214   5.368  0.00  0.00    +0.024 C 
ATOM     10  C   UNL     1       7.482  -3.307   4.485  0.00  0.00    +0.105 C 
ATOM     11  N   UNL     1       7.238  -2.565   3.247  0.00  0.00    -0.333 N 
ATOM     12  C   UNL     1       8.417  -2.598   2.371  0.00  0.00    +0.129 C 
ENDBRANCH   1   2
BRANCH   1  18
ATOM     13  C   UNL     1       7.489   3.587   2.707  0.00  0.00    -0.078 C 
ATOM     14  C   UNL     1       8.617   4.620   2.703  0.00  0.00    -0.019 C 
ATOM     15  C   UNL     1       9.539   4.368   3.900  0.00  0.00    -0.004 C 
ATOM     16  C   UNL     1       8.716   4.435   5.190  0.00  0.00    -0.019 C 
ATOM     17  C   UNL     1       7.585   3.408   5.122  0.00  0.00    -0.078 C 
ATOM     18  N   UNL     1       6.721   3.720   3.963  0.00  0.00    +0.385 N 
ATOM     19  H   UNL     1       6.387   4.688   4.049  0.00  0.00    -0.081 HD
ENDBRANCH   1  18
BRANCH   1  20
ATOM     20  C   UNL     1       4.644   3.202   2.777  0.00  0.00    +0.095 C 
BRANCH  20  21
ATOM     21  N   UNL     1       4.307   4.624   2.877  0.00  0.00    -0.191 NA
ATOM     22  H   UNL     1       4.467   5.104   3.705  0.00  0.00    +0.148 HD
BRANCH  21  23
ATOM     23  S   UNL     1       3.651   5.413   1.577  0.00  0.00    +0.062 S 
ATOM     24  O   UNL     1       4.465   5.095   0.457  0.00  0.00    -0.153 OA
ATOM     25  O   UNL     1       3.414   6.752   1.992  0.00  0.00    -0.153 OA
BRANCH  23  31
ATOM     26  C   UNL     1       1.978   3.368   0.873  0.00  0.00    +0.147 A 
ATOM     27  C   UNL     1       0.733   2.804   0.635  0.00  0.00    +0.048 A 
ATOM     28  C   UNL     1      -0.410   3.564   0.792  0.00  0.00    +0.007 A 
ATOM     29  C   UNL     1      -0.314   4.883   1.197  0.00  0.00    -0.048 A 
ATOM     30  C   UNL     1       0.925   5.447   1.435  0.00  0.00    +0.035 A 
ATOM     31  C   UNL     1       2.072   4.693   1.274  0.00  0.00    +0.147 A 
ATOM     32  C   UNL     1      -1.563   5.708   1.373  0.00  0.00    +0.044 C 
BRANCH  26  33
ATOM     33  O   UNL     1       3.104   2.624   0.714  0.00  0.00    -0.490 OA
BRANCH  33  35
ATOM     34  C   UNL     1       4.301   0.595   0.174  0.00  0.00    +0.048 C 
ATOM     35  C   UNL     1       2.932   1.268   0.299  0.00  0.00    +0.226 C 
ENDBRANCH  33  35
ENDBRANCH  26  33
ENDBRANCH  23  31
ENDBRANCH  21  23
ENDBRANCH  20  21
ENDBRANCH   1  20
TORSDOF 8
