REMARK  Name = ZINC39432556
REMARK  7 active torsions:
REMARK  status: ('A' for Active; 'I' for Inactive)
REMARK    1  A    between atoms: C_1  and  C_2
REMARK    2  A    between atoms: C_2  and  C_4
REMARK    3  A    between atoms: C_2  and  S_25
REMARK    4  A    between atoms: N_6  and  C_7
REMARK    5  A    between atoms: C_8  and  C_23
REMARK    6  A    between atoms: C_13  and  C_17
REMARK    7  A    between atoms: S_25  and  C_26
REMARK                            x       y       z     vdW  Elec       q    Type
REMARK                         _______ _______ _______ _____ _____    ______ ____
ROOT
ATOM      1  C   UNL     1       2.750  -0.979   2.369  0.00  0.00    +0.090 A 
ATOM      2  C   UNL     1       4.118  -1.061   2.569  0.00  0.00    +0.084 A 
ATOM      3  C   UNL     1       4.572  -1.583   3.846  0.00  0.00    -0.018 A 
ATOM      4  C   UNL     1       3.574  -1.926   4.689  0.00  0.00    -0.003 A 
ATOM      5  S   UNL     1       2.090  -1.556   3.801  0.00  0.00    -0.077 S 
ATOM      6  C   UNL     1       3.716  -2.489   6.069  0.00  0.00    +0.051 C 
ATOM      7  C   UNL     1       5.163  -2.266   6.534  0.00  0.00    +0.024 C 
ATOM      8  C   UNL     1       6.115  -2.716   5.422  0.00  0.00    +0.013 C 
ATOM      9  C   UNL     1       6.032  -1.746   4.241  0.00  0.00    +0.038 C 
ENDROOT
BRANCH   7  10
ATOM     10  C   UNL     1       5.423  -3.072   7.780  0.00  0.00    -0.044 A 
ATOM     11  C   UNL     1       5.295  -4.448   7.753  0.00  0.00    +0.004 A 
ATOM     12  C   UNL     1       5.533  -5.188   8.896  0.00  0.00    +0.000 A 
ATOM     13  C   UNL     1       5.899  -4.551  10.067  0.00  0.00    +0.000 A 
ATOM     14  C   UNL     1       6.028  -3.175  10.095  0.00  0.00    +0.000 A 
ATOM     15  C   UNL     1       5.794  -2.436   8.950  0.00  0.00    +0.004 A 
ENDBRANCH   7  10
BRANCH   1  18
ATOM     16  C   UNL     1       0.731  -0.503   1.223  0.00  0.00    +0.231 C 
ATOM     17  O   UNL     1       0.105  -0.891   2.187  0.00  0.00    -0.274 OA
ATOM     18  N   UNL     1       2.079  -0.519   1.244  0.00  0.00    -0.278 N 
ATOM     19  H   UNL     1       2.579  -0.208   0.473  0.00  0.00    +0.155 HD
BRANCH  16  21
ATOM     20  C   UNL     1      -0.019   1.526   0.010  0.00  0.00    +0.029 C 
ATOM     21  C   UNL     1       0.002  -0.004   0.002  0.00  0.00    +0.136 C 
BRANCH  21  22
ATOM     22  S   UNL     1      -1.700  -0.632   0.015  0.00  0.00    -0.084 S 
BRANCH  22  23
ATOM     23  C   UNL     1      -2.365  -0.093  -1.525  0.00  0.00    +0.161 A 
ATOM     24  N   UNL     1      -1.787   0.599  -2.489  0.00  0.00    -0.133 NA
ATOM     25  N   UNL     1      -2.498   0.916  -3.623  0.00  0.00    -0.125 NA
ATOM     26  C   UNL     1      -3.752   0.527  -3.743  0.00  0.00    +0.180 A 
ATOM     27  S   UNL     1      -3.998  -0.345  -2.204  0.00  0.00    -0.025 S 
ATOM     28  N   UNL     1      -4.643   0.735  -4.789  0.00  0.00    -0.336 N 
ATOM     29  H   UNL     1      -4.362   1.231  -5.574  0.00  0.00    +0.144 HD
ATOM     30  H   UNL     1      -5.545   0.384  -4.735  0.00  0.00    +0.144 HD
ENDBRANCH  22  23
ENDBRANCH  21  22
ENDBRANCH  16  21
ENDBRANCH   1  18
BRANCH   2  31
ATOM     31  C   UNL     1       5.046  -0.649   1.559  0.00  0.00    +0.102 C 
ATOM     32  N   UNL     1       5.782  -0.322   0.758  0.00  0.00    -0.191 NA
ENDBRANCH   2  31
TORSDOF 6
