REMARK  Name = ZINC03081895
REMARK  8 active torsions:
REMARK  status: ('A' for Active; 'I' for Inactive)
REMARK    1  A    between atoms: C_1  and  C_2
REMARK    2  A    between atoms: C_4  and  O_25
REMARK    3  A    between atoms: C_6  and  O_24
REMARK    4  A    between atoms: C_7  and  C_8
REMARK    5  A    between atoms: N_9  and  N_10
REMARK    6  A    between atoms: C_11  and  C_13
REMARK    7  A    between atoms: C_13  and  N_14
REMARK    8  A    between atoms: C_15  and  C_17
REMARK                            x       y       z     vdW  Elec       q    Type
REMARK                         _______ _______ _______ _____ _____    ______ ____
ROOT
ATOM      1  N   UNL     1      -0.016   1.344   0.009  0.00  0.00    -0.206 N 
ATOM      2  C   UNL     1       0.002  -0.004   0.002  0.00  0.00    +0.249 C 
ATOM      3  O   UNL     1      -1.040  -0.625   0.009  0.00  0.00    -0.272 OA
ATOM      4  H   UNL     1       0.817   1.840   0.004  0.00  0.00    +0.177 HD
ENDROOT
BRANCH   1   6
ATOM      5  C   UNL     1      -1.256   3.326   0.026  0.00  0.00    +0.142 C 
ATOM      6  N   UNL     1      -1.239   2.027   0.019  0.00  0.00    -0.188 NA
BRANCH   5  13
ATOM      7  C   UNL     1      -1.272   6.216   0.054  0.00  0.00    +0.044 C 
ATOM      8  C   UNL     1      -2.564   5.441   0.050  0.00  0.00    -0.035 A 
ATOM      9  C   UNL     1      -3.769   6.110   0.053  0.00  0.00    +0.049 A 
ATOM     10  C   UNL     1      -4.963   5.400   0.055  0.00  0.00    +0.121 A 
ATOM     11  C   UNL     1      -4.952   4.013   0.048  0.00  0.00    +0.091 A 
ATOM     12  C   UNL     1      -3.749   3.330   0.038  0.00  0.00    +0.129 A 
ATOM     13  C   UNL     1      -2.542   4.045   0.036  0.00  0.00    +0.039 A 
BRANCH  12  14
ATOM     14  O   UNL     1      -3.736   1.972   0.030  0.00  0.00    -0.506 OA
ATOM     15  H   UNL     1      -3.728   1.574   0.912  0.00  0.00    +0.292 HD
ENDBRANCH  12  14
BRANCH  10  16
ATOM     16  O   UNL     1      -6.147   6.067   0.065  0.00  0.00    -0.507 OA
ATOM     17  H   UNL     1      -6.485   6.255   0.951  0.00  0.00    +0.292 HD
ENDBRANCH  10  16
ENDBRANCH   5  13
ENDBRANCH   1   6
BRANCH   2  18
ATOM     18  C   UNL     1       1.317  -0.740  -0.015  0.00  0.00    +0.202 C 
BRANCH  18  19
ATOM     19  N   UNL     1       1.069  -2.183  -0.020  0.00  0.00    -0.303 N 
ATOM     20  C   UNL     1       2.105  -3.045  -0.034  0.00  0.00    +0.245 C 
ATOM     21  O   UNL     1       3.246  -2.625  -0.043  0.00  0.00    -0.270 OA
ATOM     22  H   UNL     1       0.159  -2.519  -0.013  0.00  0.00    +0.150 HD
BRANCH  20  23
ATOM     23  C   UNL     1       1.855  -4.503  -0.040  0.00  0.00    +0.039 A 
ATOM     24  C   UNL     1       0.546  -4.989  -0.024  0.00  0.00    +0.013 A 
ATOM     25  C   UNL     1       0.318  -6.349  -0.034  0.00  0.00    +0.004 A 
ATOM     26  C   UNL     1       1.383  -7.233  -0.049  0.00  0.00    +0.038 A 
ATOM     27  C   UNL     1       2.684  -6.758  -0.059  0.00  0.00    +0.124 A 
ATOM     28  C   UNL     1       2.925  -5.397  -0.055  0.00  0.00    +0.051 A 
ATOM     29  F   UNL     1       3.719  -7.627  -0.074  0.00  0.00    -0.205 F 
ENDBRANCH  20  23
ENDBRANCH  18  19
ENDBRANCH   2  18
TORSDOF 7
