REMARK  Name = ZINC39673685
REMARK  7 active torsions:
REMARK  status: ('A' for Active; 'I' for Inactive)
REMARK    1  A    between atoms: C_1  and  C_2
REMARK    2  A    between atoms: C_2  and  C_3
REMARK    3  A    between atoms: C_3  and  C_4
REMARK    4  A    between atoms: C_4  and  C_6
REMARK    5  A    between atoms: C_4  and  N_7
REMARK    6  A    between atoms: C_8  and  C_10
REMARK    7  A    between atoms: C_21  and  C_23
REMARK                            x       y       z     vdW  Elec       q    Type
REMARK                         _______ _______ _______ _____ _____    ______ ____
ROOT
ATOM      1  C   UNL     1       0.182  -4.425   2.021  0.00  0.00    +0.100 C 
ATOM      2  C   UNL     1      -0.732  -4.323   3.264  0.00  0.00    +0.121 C 
ATOM      3  N   UNL     1      -1.210  -5.707   3.491  0.00  0.00    -0.296 N 
ATOM      4  C   UNL     1      -0.029  -6.556   3.208  0.00  0.00    +0.115 C 
ATOM      5  C   UNL     1       0.644  -5.891   1.990  0.00  0.00    -0.004 C 
ATOM      6  C   UNL     1       0.182  -6.564   0.702  0.00  0.00    -0.010 C 
ATOM      7  C   UNL     1       0.701  -8.004   0.668  0.00  0.00    -0.082 C 
ATOM      8  N   UNL     1       2.167  -7.999   0.743  0.00  0.00    +0.379 N 
ATOM      9  C   UNL     1       2.602  -7.434   2.026  0.00  0.00    -0.082 C 
ATOM     10  C   UNL     1       2.162  -5.970   2.117  0.00  0.00    -0.010 C 
ATOM     11  C   UNL     1      -2.441  -6.103   3.871  0.00  0.00    +0.249 C 
ATOM     12  O   UNL     1      -2.655  -7.276   4.108  0.00  0.00    -0.270 OA
ATOM     13  H   UNL     1       2.510  -8.944   0.659  0.00  0.00    -0.086 HD
ATOM     14  H   UNL     1       2.539  -7.441  -0.011  0.00  0.00    -0.086 HD
ENDROOT
BRANCH  11  15
ATOM     15  C   UNL     1      -3.529  -5.113   3.998  0.00  0.00    +0.073 A 
ATOM     16  C   UNL     1      -3.253  -3.820   4.448  0.00  0.00    +0.016 A 
ATOM     17  C   UNL     1      -4.273  -2.900   4.564  0.00  0.00    +0.002 A 
ATOM     18  C   UNL     1      -5.571  -3.253   4.236  0.00  0.00    +0.023 A 
ATOM     19  C   UNL     1      -5.855  -4.531   3.789  0.00  0.00    +0.077 A 
ATOM     20  C   UNL     1      -4.840  -5.464   3.663  0.00  0.00    +0.154 A 
ATOM     21  F   UNL     1      -5.117  -6.710   3.221  0.00  0.00    -0.203 F 
ATOM     22 CL   UNL     1      -7.486  -4.963   3.380  0.00  0.00    -0.081 Cl
ENDBRANCH  11  15
BRANCH   1  24
ATOM     23  N   UNL     1       0.043  -3.570  -0.296  0.00  0.00    -0.312 N 
ATOM     24  C   UNL     1      -0.593  -4.092   0.772  0.00  0.00    +0.218 C 
ATOM     25  O   UNL     1      -1.788  -4.295   0.727  0.00  0.00    -0.275 OA
ATOM     26  H   UNL     1       0.999  -3.408  -0.260  0.00  0.00    +0.149 HD
BRANCH  23  27
ATOM     27  C   UNL     1      -0.710  -3.247  -1.510  0.00  0.00    +0.070 C 
ATOM     28  C   UNL     1      -1.321  -1.850  -1.375  0.00  0.00    +0.028 C 
BRANCH  27  29
ATOM     29  C   UNL     1       0.231  -3.277  -2.716  0.00  0.00    +0.022 C 
BRANCH  29  31
ATOM     30  C   UNL     1       1.686  -4.733  -4.133  0.00  0.00    +0.004 C 
ATOM     31  C   UNL     1       0.745  -4.702  -2.926  0.00  0.00    -0.002 C 
ENDBRANCH  29  31
ENDBRANCH  27  29
ENDBRANCH  23  27
ENDBRANCH   1  24
TORSDOF 5
