REMARK  Name = ZINC12123904
REMARK  5 active torsions:
REMARK  status: ('A' for Active; 'I' for Inactive)
REMARK    1  A    between atoms: C_3  and  C_6
REMARK    2  A    between atoms: C_10  and  O_12
REMARK    3  A    between atoms: C_17  and  C_18
REMARK    4  A    between atoms: C_17  and  N_50
REMARK    5  A    between atoms: C_23  and  C_24
REMARK                            x       y       z     vdW  Elec       q    Type
REMARK                         _______ _______ _______ _____ _____    ______ ____
ROOT
ATOM      1  C   UNL     1       1.284   2.878   0.924  0.00  0.00    -0.007 A 
ATOM      2  C   UNL     1       0.140   2.111   0.694  0.00  0.00    +0.014 A 
ATOM      3  C   UNL     1      -1.100   2.713   0.713  0.00  0.00    -0.018 A 
ATOM      4  C   UNL     1      -1.223   4.062   0.985  0.00  0.00    +0.163 A 
ATOM      5  C   UNL     1      -0.086   4.836   1.211  0.00  0.00    +0.159 A 
ATOM      6  C   UNL     1       1.164   4.245   1.178  0.00  0.00    +0.058 A 
ATOM      7  O   UNL     1      -2.459   4.632   1.043  0.00  0.00    -0.490 OA
ATOM      8  C   UNL     1      -3.269   4.229   2.154  0.00  0.00    +0.211 C 
ATOM      9  C   UNL     1      -4.019   2.953   1.837  0.00  0.00    -0.036 C 
ATOM     10  C   UNL     1      -2.344   1.897   0.420  0.00  0.00    -0.039 C 
ATOM     11  N   UNL     1      -3.126   1.787   1.675  0.00  0.00    +0.387 N 
ATOM     12  H   UNL     1      -2.474   1.757   2.467  0.00  0.00    -0.081 HD
ENDROOT
BRANCH   1  15
ATOM     13  C   UNL     1       4.968   2.012   1.025  0.00  0.00    +0.008 A 
ATOM     14  C   UNL     1       3.849   2.813   1.091  0.00  0.00    +0.016 A 
ATOM     15  C   UNL     1       2.619   2.244   0.899  0.00  0.00    +0.019 A 
ATOM     16  S   UNL     1       3.048   0.536   0.602  0.00  0.00    -0.097 S 
ATOM     17  C   UNL     1       4.819   0.689   0.760  0.00  0.00    +0.046 A 
ENDBRANCH   1  15
BRANCH   5  18
ATOM     18  O   UNL     1      -0.206   6.167   1.463  0.00  0.00    -0.503 OA
ATOM     19  H   UNL     1      -0.184   6.721   0.671  0.00  0.00    +0.292 HD
ENDBRANCH   5  18
BRANCH  11  20
ATOM     20  C   UNL     1      -3.920   0.547   1.664  0.00  0.00    -0.039 C 
BRANCH  20  21
ATOM     21  C   UNL     1      -4.341   0.241   3.079  0.00  0.00    -0.019 A 
ATOM     22  C   UNL     1      -5.585   0.379   3.586  0.00  0.00    +0.107 A 
ATOM     23  N   UNL     1      -5.551  -0.001   4.882  0.00  0.00    -0.284 N 
ATOM     24  H   UNL     1      -6.328  -0.010   5.511  0.00  0.00    +0.188 HD
ATOM     25  N   UNL     1      -4.238  -0.378   5.191  0.00  0.00    -0.174 NA
ATOM     26  C   UNL     1      -3.505  -0.234   4.108  0.00  0.00    +0.094 A 
BRANCH  26  27
ATOM     27  C   UNL     1      -2.053  -0.521   3.991  0.00  0.00    +0.002 A 
ATOM     28  C   UNL     1      -1.561  -1.193   2.875  0.00  0.00    +0.011 A 
ATOM     29  C   UNL     1      -0.210  -1.453   2.768  0.00  0.00    +0.020 A 
ATOM     30  C   UNL     1       0.655  -1.056   3.774  0.00  0.00    +0.041 A 
ATOM     31  C   UNL     1       0.170  -0.393   4.888  0.00  0.00    +0.020 A 
ATOM     32  C   UNL     1      -1.179  -0.124   5.001  0.00  0.00    +0.011 A 
ATOM     33 CL   UNL     1       2.352  -1.393   3.638  0.00  0.00    -0.084 Cl
ENDBRANCH  26  27
ENDBRANCH  20  21
ENDBRANCH  11  20
TORSDOF 5
