REMARK  Name = ZINC03412696
REMARK  9 active torsions:
REMARK  status: ('A' for Active; 'I' for Inactive)
REMARK    1  A    between atoms: C_1  and  C_2
REMARK    2  A    between atoms: C_5  and  C_8
REMARK    3  A    between atoms: C_8  and  N_47
REMARK    4  A    between atoms: C_9  and  C_10
REMARK    5  A    between atoms: C_9  and  N_47
REMARK    6  A    between atoms: C_10  and  C_12
REMARK    7  A    between atoms: C_10  and  N_18
REMARK    8  A    between atoms: N_18  and  S_19
REMARK    9  A    between atoms: S_19  and  C_22
REMARK                            x       y       z     vdW  Elec       q    Type
REMARK                         _______ _______ _______ _____ _____    ______ ____
ROOT
ATOM      1  C   UNL     1       4.595   0.901   2.404  0.00  0.00    +0.089 C 
ENDROOT
BRANCH   1   2
ATOM      2  C   UNL     1       6.023   0.418   2.397  0.00  0.00    -0.031 A 
ATOM      3  C   UNL     1       7.061   1.331   2.428  0.00  0.00    +0.005 A 
ATOM      4  C   UNL     1       8.370   0.888   2.427  0.00  0.00    +0.000 A 
ATOM      5  C   UNL     1       8.642  -0.467   2.385  0.00  0.00    +0.000 A 
ATOM      6  C   UNL     1       7.604  -1.379   2.349  0.00  0.00    +0.000 A 
ATOM      7  C   UNL     1       6.294  -0.936   2.355  0.00  0.00    +0.005 A 
ENDBRANCH   1   2
BRANCH   1   8
ATOM      8  N   UNL     1       4.477   2.088   1.553  0.00  0.00    -0.184 NA
ATOM      9  H   UNL     1       4.677   2.965   1.915  0.00  0.00    +0.149 HD
BRANCH   8  10
ATOM     10  S   UNL     1       4.001   1.931  -0.025  0.00  0.00    +0.065 S 
ATOM     11  O   UNL     1       4.799   0.899  -0.589  0.00  0.00    -0.153 OA
ATOM     12  O   UNL     1       3.958   3.244  -0.568  0.00  0.00    -0.153 OA
BRANCH  10  13
ATOM     13  C   UNL     1       2.343   1.336  -0.013  0.00  0.00    +0.144 A 
ATOM     14  C   UNL     1       1.184   2.038   0.002  0.00  0.00    +0.038 A 
ATOM     15  C   UNL     1      -0.016   1.352   0.009  0.00  0.00    +0.030 A 
ATOM     16  C   UNL     1       0.002  -0.004   0.002  0.00  0.00    +0.080 A 
ATOM     17  S   UNL     1       1.754  -0.349  -0.017  0.00  0.00    -0.057 S 
ATOM     18 CL   UNL     1      -1.331  -1.116   0.008  0.00  0.00    -0.076 Cl
ENDBRANCH  10  13
ENDBRANCH   8  10
ENDBRANCH   1   8
BRANCH   1  19
ATOM     19  C   UNL     1       4.183   1.255   3.834  0.00  0.00    -0.057 C 
BRANCH  19  20
ATOM     20  N   UNL     1       2.828   1.839   3.816  0.00  0.00    +0.383 N 
ATOM     21  H   UNL     1       2.832   2.685   3.234  0.00  0.00    -0.085 HD
ATOM     22  H   UNL     1       2.170   1.155   3.422  0.00  0.00    -0.085 HD
BRANCH  20  23
ATOM     23  C   UNL     1       2.404   2.190   5.184  0.00  0.00    -0.047 C 
BRANCH  23  28
ATOM     24  C   UNL     1      -2.906   4.463   4.996  0.00  0.00    +0.044 C 
ATOM     25  C   UNL     1      -1.521   3.870   5.045  0.00  0.00    -0.050 A 
ATOM     26  C   UNL     1      -1.358   2.506   5.201  0.00  0.00    +0.003 A 
ATOM     27  C   UNL     1      -0.088   1.963   5.247  0.00  0.00    +0.002 A 
ATOM     28  C   UNL     1       1.019   2.783   5.135  0.00  0.00    -0.064 A 
ATOM     29  C   UNL     1       0.856   4.147   4.984  0.00  0.00    +0.002 A 
ATOM     30  C   UNL     1      -0.414   4.690   4.934  0.00  0.00    +0.003 A 
ENDBRANCH  23  28
ENDBRANCH  20  23
ENDBRANCH  19  20
ENDBRANCH   1  19
TORSDOF 8
