REMARK  Name = ZINC26965066
REMARK  7 active torsions:
REMARK  status: ('A' for Active; 'I' for Inactive)
REMARK    1  A    between atoms: C_4  and  N_7
REMARK    2  A    between atoms: C_9  and  C_19
REMARK    3  A    between atoms: C_10  and  C_12
REMARK    4  A    between atoms: N_20  and  N_21
REMARK    5  A    between atoms: N_21  and  C_22
REMARK    6  A    between atoms: C_22  and  N_24
REMARK    7  A    between atoms: N_24  and  C_25
REMARK                            x       y       z     vdW  Elec       q    Type
REMARK                         _______ _______ _______ _____ _____    ______ ____
ROOT
ATOM      1  N   UNL     1      -2.960   6.444  -5.774  0.00  0.00    -0.239 N 
ATOM      2  C   UNL     1      -3.319   5.143  -5.783  0.00  0.00    +0.124 A 
ATOM      3  C   UNL     1      -2.596   4.499  -4.817  0.00  0.00    +0.040 A 
ATOM      4  C   UNL     1      -1.733   5.507  -4.196  0.00  0.00    +0.102 A 
ATOM      5  N   UNL     1      -1.982   6.651  -4.796  0.00  0.00    -0.166 NA
ENDROOT
BRANCH   4   6
ATOM      6  C   UNL     1      -0.762   5.281  -3.099  0.00  0.00    +0.003 A 
ATOM      7  C   UNL     1      -1.101   4.462  -2.023  0.00  0.00    +0.011 A 
ATOM      8  C   UNL     1      -0.192   4.251  -1.006  0.00  0.00    +0.016 A 
ATOM      9  C   UNL     1       1.050   4.860  -1.048  0.00  0.00    +0.018 A 
ATOM     10  C   UNL     1       1.390   5.679  -2.112  0.00  0.00    +0.016 A 
ATOM     11  C   UNL     1       0.490   5.892  -3.136  0.00  0.00    +0.011 A 
ATOM     12 BR   UNL     1       2.288   4.572   0.351  0.00  0.00    -0.050 Br
ENDBRANCH   4   6
BRANCH   1  16
ATOM     13  C   UNL     1      -4.512   9.384  -8.287  0.00  0.00    +0.000 A 
ATOM     14  C   UNL     1      -3.545   9.713  -7.355  0.00  0.00    +0.002 A 
ATOM     15  C   UNL     1      -3.029   8.741  -6.521  0.00  0.00    +0.028 A 
ATOM     16  C   UNL     1      -3.482   7.432  -6.619  0.00  0.00    +0.065 A 
ATOM     17  C   UNL     1      -4.449   7.104  -7.559  0.00  0.00    +0.028 A 
ATOM     18  C   UNL     1      -4.965   8.082  -8.387  0.00  0.00    +0.002 A 
ENDBRANCH   1  16
BRANCH   3  19
ATOM     19  C   UNL     1      -2.667   3.067  -4.472  0.00  0.00    +0.142 C 
ATOM     20  N   UNL     1      -3.411   2.267  -5.172  0.00  0.00    -0.188 NA
BRANCH  20  21
ATOM     21  N   UNL     1      -3.562   0.930  -4.782  0.00  0.00    -0.218 N 
ATOM     22  H   UNL     1      -2.985   0.537  -3.932  0.00  0.00    +0.176 HD
BRANCH  21  23
ATOM     23  C   UNL     1      -4.413   0.125  -5.449  0.00  0.00    +0.150 C 
ATOM     24  S   UNL     1      -4.692  -1.471  -4.896  0.00  0.00    -0.017 S 
BRANCH  23  25
ATOM     25  N   UNL     1      -5.045   0.577  -6.550  0.00  0.00    -0.321 N 
ATOM     26  H   UNL     1      -4.807   1.574  -6.950  0.00  0.00    +0.148 HD
BRANCH  25  27
ATOM     27  C   UNL     1      -6.047  -0.259  -7.215  0.00  0.00    +0.094 C 
ATOM     28  C   UNL     1      -5.368  -1.134  -8.282  0.00  0.00    +0.046 C 
ATOM     29  C   UNL     1      -6.439  -1.774  -9.198  0.00  0.00    +0.168 C 
ATOM     30  S   UNL     1      -7.814  -0.555  -9.126  0.00  0.00    -0.029 S 
ATOM     31  O   UNL     1      -8.950  -1.174  -8.540  0.00  0.00    -0.174 OA
ATOM     32  O   UNL     1      -7.938   0.078 -10.392  0.00  0.00    -0.174 OA
ATOM     33  C   UNL     1      -7.097   0.643  -7.924  0.00  0.00    +0.188 C 
ENDBRANCH  25  27
ENDBRANCH  23  25
ENDBRANCH  21  23
ENDBRANCH  20  21
ENDBRANCH   3  19
TORSDOF 7
