REMARK  Name = ZINC09385562
REMARK  10 active torsions:
REMARK  status: ('A' for Active; 'I' for Inactive)
REMARK    1  A    between atoms: C_1  and  C_2
REMARK    2  A    between atoms: C_2  and  N_54
REMARK    3  A    between atoms: C_3  and  C_4
REMARK    4  A    between atoms: C_3  and  N_54
REMARK    5  A    between atoms: C_5  and  C_6
REMARK    6  A    between atoms: C_5  and  N_54
REMARK    7  A    between atoms: C_6  and  N_7
REMARK    8  A    between atoms: C_18  and  C_20
REMARK    9  A    between atoms: C_24  and  S_26
REMARK   10  A    between atoms: S_26  and  C_29
REMARK                            x       y       z     vdW  Elec       q    Type
REMARK                         _______ _______ _______ _____ _____    ______ ____
ROOT
ATOM      1  N   UNL     1       2.524  -1.451  -0.229  0.00  0.00    -0.248 N 
ATOM      2  C   UNL     1       1.723  -0.395   0.170  0.00  0.00    +0.168 A 
ATOM      3  N   UNL     1       2.033   0.876   0.286  0.00  0.00    -0.224 NA
ATOM      4  C   UNL     1       1.142   1.807   0.691  0.00  0.00    +0.080 A 
ATOM      5  C   UNL     1       1.345   3.196   0.856  0.00  0.00    +0.030 A 
ATOM      6  C   UNL     1       0.325   4.008   1.278  0.00  0.00    +0.017 A 
ATOM      7  C   UNL     1      -0.937   3.501   1.557  0.00  0.00    +0.019 A 
ATOM      8  C   UNL     1      -1.170   2.146   1.410  0.00  0.00    +0.032 A 
ATOM      9  C   UNL     1      -0.155   1.326   0.983  0.00  0.00    +0.042 A 
ATOM     10  S   UNL     1       0.004  -0.413   0.657  0.00  0.00    -0.052 S 
ATOM     11 BR   UNL     1      -2.321   4.651   2.138  0.00  0.00    -0.050 Br
ATOM     12  C   UNL     1       2.016  -2.698  -0.286  0.00  0.00    +0.252 C 
ATOM     13  O   UNL     1       0.882  -2.910   0.097  0.00  0.00    -0.270 OA
ENDROOT
BRANCH  12  14
ATOM     14  C   UNL     1       2.837  -3.807  -0.814  0.00  0.00    +0.039 A 
ATOM     15  C   UNL     1       2.304  -4.686  -1.759  0.00  0.00    +0.013 A 
ATOM     16  C   UNL     1       3.076  -5.719  -2.248  0.00  0.00    +0.003 A 
ATOM     17  C   UNL     1       4.377  -5.885  -1.804  0.00  0.00    +0.027 A 
ATOM     18  C   UNL     1       4.911  -5.018  -0.868  0.00  0.00    +0.089 A 
ATOM     19  C   UNL     1       4.151  -3.978  -0.375  0.00  0.00    +0.040 A 
BRANCH  18  20
ATOM     20  S   UNL     1       6.568  -5.239  -0.310  0.00  0.00    -0.006 S 
ATOM     21  O   UNL     1       6.593  -4.660   0.987  0.00  0.00    -0.170 OA
ATOM     22  O   UNL     1       6.830  -6.624  -0.491  0.00  0.00    -0.170 OA
ATOM     23  C   UNL     1       7.579  -4.257  -1.453  0.00  0.00    +0.200 C 
ENDBRANCH  18  20
ENDBRANCH  12  14
BRANCH   1  24
ATOM     24  C   UNL     1       3.924  -1.213  -0.590  0.00  0.00    +0.097 C 
BRANCH  24  25
ATOM     25  C   UNL     1       4.768  -1.111   0.681  0.00  0.00    -0.059 C 
BRANCH  25  26
ATOM     26  N   UNL     1       6.195  -1.037   0.302  0.00  0.00    +0.380 N 
ATOM     27  H   UNL     1       6.411  -1.813  -0.335  0.00  0.00    -0.082 HD
BRANCH  26  29
ATOM     28  C   UNL     1       6.240   1.421   0.558  0.00  0.00    -0.017 C 
ATOM     29  C   UNL     1       6.469   0.241  -0.388  0.00  0.00    -0.082 C 
ENDBRANCH  26  29
BRANCH  26  30
ATOM     30  C   UNL     1       7.044  -1.153   1.506  0.00  0.00    -0.082 C 
ATOM     31  C   UNL     1       8.511  -1.208   1.073  0.00  0.00    -0.017 C 
ENDBRANCH  26  30
ENDBRANCH  25  26
ENDBRANCH  24  25
ENDBRANCH   1  24
TORSDOF 7
