REMARK  Name = ZINC00643756
REMARK  9 active torsions:
REMARK  status: ('A' for Active; 'I' for Inactive)
REMARK    1  A    between atoms: C_1  and  C_2
REMARK    2  A    between atoms: N_5  and  C_7
REMARK    3  A    between atoms: C_14  and  N_30
REMARK    4  A    between atoms: C_15  and  C_28
REMARK    5  A    between atoms: C_16  and  C_18
REMARK    6  A    between atoms: C_22  and  O_26
REMARK    7  A    between atoms: C_23  and  O_24
REMARK    8  A    between atoms: O_24  and  C_25
REMARK    9  A    between atoms: O_26  and  C_27
REMARK                            x       y       z     vdW  Elec       q    Type
REMARK                         _______ _______ _______ _____ _____    ______ ____
ROOT
ATOM      1  C   UNL     1       0.482   1.157   0.618  0.00  0.00    +0.068 C 
ATOM      2  C   UNL     1       0.572  -0.343   0.506  0.00  0.00    +0.068 A 
ATOM      3  C   UNL     1       0.207  -1.099  -0.600  0.00  0.00    +0.050 A 
ATOM      4  C   UNL     1       0.438  -2.415  -0.309  0.00  0.00    +0.230 A 
ATOM      5  N   UNL     1       0.934  -2.472   0.946  0.00  0.00    -0.200 N 
ATOM      6  N   UNL     1       1.013  -1.159   1.434  0.00  0.00    -0.168 NA
ATOM      7  O   UNL     1       0.181  -3.415  -1.188  0.00  0.00    -0.423 OA
ATOM      8  C   UNL     1      -0.568  -3.119  -2.269  0.00  0.00    +0.200 C 
ATOM      9  C   UNL     1      -0.853  -1.859  -2.665  0.00  0.00    +0.098 C 
ATOM     10  C   UNL     1      -0.349  -0.645  -1.925  0.00  0.00    +0.105 C 
ENDROOT
BRANCH   5  11
ATOM     11  C   UNL     1       1.307  -3.634   1.635  0.00  0.00    +0.069 A 
ATOM     12  C   UNL     1       0.601  -4.814   1.443  0.00  0.00    +0.028 A 
ATOM     13  C   UNL     1       0.971  -5.958   2.123  0.00  0.00    +0.002 A 
ATOM     14  C   UNL     1       2.045  -5.928   2.994  0.00  0.00    +0.000 A 
ATOM     15  C   UNL     1       2.750  -4.755   3.187  0.00  0.00    +0.002 A 
ATOM     16  C   UNL     1       2.388  -3.610   2.506  0.00  0.00    +0.028 A 
ENDBRANCH   5  11
BRANCH  10  17
ATOM     17  C   UNL     1       0.734   0.026  -2.729  0.00  0.00    +0.011 A 
ATOM     18  C   UNL     1       0.478   1.226  -3.368  0.00  0.00    +0.008 A 
ATOM     19  C   UNL     1       1.470   1.844  -4.106  0.00  0.00    +0.004 A 
ATOM     20  C   UNL     1       2.722   1.266  -4.209  0.00  0.00    +0.049 A 
ATOM     21  C   UNL     1       2.984   0.064  -3.572  0.00  0.00    +0.162 A 
ATOM     22  C   UNL     1       1.988  -0.555  -2.823  0.00  0.00    +0.166 A 
BRANCH  22  23
ATOM     23  O   UNL     1       2.242  -1.732  -2.191  0.00  0.00    -0.491 OA
ATOM     24  C   UNL     1       2.189  -2.920  -2.984  0.00  0.00    +0.277 C 
ENDBRANCH  22  23
BRANCH  21  25
ATOM     25  O   UNL     1       4.215  -0.506  -3.672  0.00  0.00    -0.491 OA
ATOM     26  C   UNL     1       5.190   0.189  -4.452  0.00  0.00    +0.277 C 
ENDBRANCH  21  25
ENDBRANCH  10  17
BRANCH   8  27
ATOM     27  N   UNL     1      -1.070  -4.159  -3.012  0.00  0.00    -0.328 N 
ATOM     28  H   UNL     1      -0.882  -5.075  -2.753  0.00  0.00    +0.145 HD
ATOM     29  H   UNL     1      -1.612  -3.978  -3.796  0.00  0.00    +0.145 HD
ENDBRANCH   8  27
BRANCH   9  30
ATOM     30  C   UNL     1      -1.662  -1.669  -3.831  0.00  0.00    +0.101 C 
ATOM     31  N   UNL     1      -2.305  -1.518  -4.756  0.00  0.00    -0.191 NA
ENDBRANCH   9  30
TORSDOF 6
