REMARK  Name = ZINC05020247
REMARK  4 active torsions:
REMARK  status: ('A' for Active; 'I' for Inactive)
REMARK    1  A    between atoms: C_15  and  C_16
REMARK    2  A    between atoms: C_16  and  O_18
REMARK    3  A    between atoms: O_18  and  C_19
REMARK    4  A    between atoms: C_19  and  C_20
REMARK                            x       y       z     vdW  Elec       q    Type
REMARK                         _______ _______ _______ _____ _____    ______ ____
ROOT
ATOM      1  C   UNL     1      -2.346   5.183   0.053  0.00  0.00    +0.001 A 
ATOM      2  C   UNL     1      -1.129   5.846   0.045  0.00  0.00    +0.002 A 
ATOM      3  C   UNL     1       0.057   5.140   0.029  0.00  0.00    +0.027 A 
ATOM      4  C   UNL     1       0.032   3.753   0.022  0.00  0.00    +0.062 A 
ATOM      5  C   UNL     1      -1.199   3.080   0.030  0.00  0.00    +0.063 A 
ATOM      6  C   UNL     1      -2.390   3.805   0.047  0.00  0.00    +0.015 A 
ATOM      7  C   UNL     1      -1.196   1.607   0.017  0.00  0.00    +0.259 A 
ATOM      8  O   UNL     1      -2.239   0.983   0.018  0.00  0.00    -0.267 OA
ATOM      9  N   UNL     1      -0.011   0.966   0.007  0.00  0.00    -0.307 N 
ATOM     10  H   UNL     1       0.002  -0.004   0.002  0.00  0.00    +0.170 HD
ATOM     11  C   UNL     1       1.181   1.654  -0.000  0.00  0.00    +0.136 A 
ATOM     12  N   UNL     1       1.218   3.017   0.006  0.00  0.00    -0.277 N 
ATOM     13  C   UNL     1       2.529   3.468  -0.003  0.00  0.00    +0.167 A 
ATOM     14  C   UNL     1       3.394   2.289  -0.017  0.00  0.00    +0.125 A 
ATOM     15  C   UNL     1       2.480   1.138  -0.015  0.00  0.00    +0.129 A 
ATOM     16  N   UNL     1       4.706   2.429  -0.028  0.00  0.00    -0.241 NA
ATOM     17  C   UNL     1       5.237   3.657  -0.026  0.00  0.00    +0.090 A 
ATOM     18  C   UNL     1       6.635   3.826  -0.037  0.00  0.00    +0.030 A 
ATOM     19  C   UNL     1       7.164   5.079  -0.035  0.00  0.00    +0.002 A 
ATOM     20  C   UNL     1       6.341   6.204  -0.021  0.00  0.00    +0.002 A 
ATOM     21  C   UNL     1       4.986   6.080  -0.010  0.00  0.00    +0.030 A 
ATOM     22  C   UNL     1       4.400   4.800  -0.012  0.00  0.00    +0.092 A 
ATOM     23  N   UNL     1       3.068   4.669  -0.002  0.00  0.00    -0.225 NA
ENDROOT
BRANCH  15  24
ATOM     24  C   UNL     1       2.846  -0.231  -0.025  0.00  0.00    +0.345 C 
ATOM     25  O   UNL     1       2.993  -0.814  -1.083  0.00  0.00    -0.245 OA
BRANCH  24  26
ATOM     26  O   UNL     1       3.031  -0.889   1.139  0.00  0.00    -0.458 OA
BRANCH  26  27
ATOM     27  C   UNL     1       3.398  -2.267   1.054  0.00  0.00    +0.264 C 
BRANCH  27  28
ATOM     28  C   UNL     1       3.562  -2.839   2.463  0.00  0.00    +0.156 C 
ATOM     29  C   UNL     1       4.080  -4.293   2.397  0.00  0.00    +0.037 C 
ATOM     30  C   UNL     1       3.341  -5.008   3.549  0.00  0.00    +0.031 C 
ATOM     31  C   UNL     1       2.463  -3.902   4.176  0.00  0.00    +0.160 C 
ATOM     32  O   UNL     1       2.279  -2.934   3.119  0.00  0.00    -0.373 OA
ENDBRANCH  27  28
ENDBRANCH  26  27
ENDBRANCH  24  26
ENDBRANCH  15  24
TORSDOF 4
