REMARK  Name = ZINC13058009
REMARK  8 active torsions:
REMARK  status: ('A' for Active; 'I' for Inactive)
REMARK    1  A    between atoms: C_1  and  C_2
REMARK    2  A    between atoms: N_11  and  C_12
REMARK    3  A    between atoms: C_12  and  C_13
REMARK    4  A    between atoms: N_15  and  C_16
REMARK    5  A    between atoms: C_16  and  C_17
REMARK    6  A    between atoms: N_19  and  C_20
REMARK    7  A    between atoms: C_21  and  C_27
REMARK    8  A    between atoms: C_25  and  C_26
REMARK                            x       y       z     vdW  Elec       q    Type
REMARK                         _______ _______ _______ _____ _____    ______ ____
ROOT
ATOM      1  C   UNL     1      -2.451  -4.200   0.086  0.00  0.00    +0.231 C 
ATOM      2  O   UNL     1      -1.477  -4.905  -0.071  0.00  0.00    -0.274 OA
ATOM      3  N   UNL     1      -2.367  -2.874  -0.142  0.00  0.00    -0.305 N 
ATOM      4  H   UNL     1      -3.146  -2.310  -0.016  0.00  0.00    +0.149 HD
ENDROOT
BRANCH   1   5
ATOM      5  C   UNL     1      -3.756  -4.806   0.535  0.00  0.00    +0.200 C 
BRANCH   5  16
ATOM      6  C   UNL     1      -2.140  -8.205  -4.539  0.00  0.00    +0.044 C 
ATOM      7  C   UNL     1      -2.522  -7.698  -3.172  0.00  0.00    -0.050 A 
ATOM      8  C   UNL     1      -3.350  -6.597  -3.048  0.00  0.00    +0.005 A 
ATOM      9  C   UNL     1      -3.701  -6.138  -1.797  0.00  0.00    +0.023 A 
ATOM     10  C   UNL     1      -3.227  -6.777  -0.650  0.00  0.00    +0.033 A 
ATOM     11  C   UNL     1      -2.395  -7.875  -0.780  0.00  0.00    -0.026 A 
ATOM     12  C   UNL     1      -2.048  -8.333  -2.042  0.00  0.00    +0.008 A 
ATOM     13  C   UNL     1      -1.842  -8.605   0.418  0.00  0.00    +0.038 C 
ATOM     14  C   UNL     1      -2.627  -8.208   1.670  0.00  0.00    +0.024 C 
ATOM     15  C   UNL     1      -2.749  -6.679   1.685  0.00  0.00    +0.106 C 
ATOM     16  N   UNL     1      -3.624  -6.269   0.585  0.00  0.00    -0.321 N 
ENDBRANCH   5  16
ENDBRANCH   1   5
BRANCH   3  17
ATOM     17  C   UNL     1      -1.099  -2.285  -0.578  0.00  0.00    +0.200 C 
BRANCH  17  18
ATOM     18  C   UNL     1      -1.272  -0.799  -0.760  0.00  0.00    +0.234 C 
ATOM     19  O   UNL     1      -2.348  -0.283  -0.546  0.00  0.00    -0.274 OA
ATOM     20  N   UNL     1      -0.230  -0.043  -1.161  0.00  0.00    -0.284 N 
ATOM     21  H   UNL     1       0.608  -0.465  -1.409  0.00  0.00    +0.155 HD
BRANCH  20  22
ATOM     22  C   UNL     1      -0.356   1.349  -1.218  0.00  0.00    +0.039 A 
ATOM     23  C   UNL     1      -1.359   1.925  -1.988  0.00  0.00    -0.029 A 
ATOM     24  C   UNL     1      -1.484   3.300  -2.038  0.00  0.00    +0.005 A 
ATOM     25  C   UNL     1      -0.607   4.102  -1.332  0.00  0.00    +0.001 A 
ATOM     26  C   UNL     1       0.396   3.531  -0.570  0.00  0.00    +0.005 A 
ATOM     27  C   UNL     1       0.523   2.158  -0.510  0.00  0.00    -0.029 A 
ATOM     28  C   UNL     1       1.615   1.536   0.322  0.00  0.00    +0.045 C 
ATOM     29  C   UNL     1      -2.312   1.052  -2.762  0.00  0.00    +0.045 C 
ENDBRANCH  20  22
ENDBRANCH  17  18
ENDBRANCH   3  17
TORSDOF 5
