REMARK  Name = ZINC02343346
REMARK  11 active torsions:
REMARK  status: ('A' for Active; 'I' for Inactive)
REMARK    1  A    between atoms: C_1  and  C_2
REMARK    2  A    between atoms: C_2  and  C_3
REMARK    3  A    between atoms: C_3  and  C_4
REMARK    4  A    between atoms: C_4  and  C_5
REMARK    5  A    between atoms: C_5  and  C_6
REMARK    6  A    between atoms: C_18  and  C_32
REMARK    7  A    between atoms: C_25  and  C_27
REMARK    8  A    between atoms: C_35  and  C_38
REMARK    9  A    between atoms: C_38  and  C_39
REMARK   10  A    between atoms: C_38  and  C_40
REMARK   11  A    between atoms: C_38  and  C_41
REMARK                            x       y       z     vdW  Elec       q    Type
REMARK                         _______ _______ _______ _____ _____    ______ ____
ROOT
ATOM      1  C   UNL     1      -0.765   1.598  -3.711  0.00  0.00    +0.220 C 
ATOM      2  O   UNL     1      -1.760   2.282  -3.587  0.00  0.00    -0.275 OA
ATOM      3  N   UNL     1      -0.312   1.286  -4.941  0.00  0.00    -0.258 N 
ATOM      4  C   UNL     1       0.838   0.503  -5.095  0.00  0.00    +0.058 A 
ATOM      5  C   UNL     1       0.851  -0.832  -4.715  0.00  0.00    +0.025 A 
ATOM      6  C   UNL     1       1.994  -1.589  -4.905  0.00  0.00    +0.002 A 
ATOM      7  C   UNL     1       3.120  -1.023  -5.475  0.00  0.00    +0.002 A 
ATOM      8  C   UNL     1       3.118   0.309  -5.848  0.00  0.00    +0.025 A 
ATOM      9  C   UNL     1       1.984   1.075  -5.652  0.00  0.00    +0.053 A 
ATOM     10  N   UNL     1       1.942   2.431  -5.991  0.00  0.00    -0.316 N 
ATOM     11  C   UNL     1       1.050   2.861  -6.981  0.00  0.00    +0.017 C 
ATOM     12  C   UNL     1       1.533   3.072  -8.182  0.00  0.00    +0.001 C 
ATOM     13  C   UNL     1       0.739   3.578  -9.347  0.00  0.00    +0.050 C 
ATOM     14  C   UNL     1      -0.731   3.170  -9.192  0.00  0.00    +0.087 C 
ATOM     15  C   UNL     1      -1.172   3.581  -7.804  0.00  0.00    +0.145 C 
ATOM     16  O   UNL     1      -2.131   4.299  -7.651  0.00  0.00    -0.297 OA
ATOM     17  C   UNL     1      -0.390   3.077  -6.618  0.00  0.00    +0.127 C 
ATOM     18  C   UNL     1      -1.014   1.766  -6.135  0.00  0.00    +0.163 C 
ATOM     19  H   UNL     1       2.524   3.066  -5.546  0.00  0.00    +0.152 HD
ENDROOT
BRANCH  13  20
ATOM     20  C   UNL     1       1.289   2.991 -10.621  0.00  0.00    -0.040 A 
ATOM     21  C   UNL     1       1.306   1.621 -10.800  0.00  0.00    +0.004 A 
ATOM     22  C   UNL     1       1.806   1.083 -11.971  0.00  0.00    +0.004 A 
ATOM     23  C   UNL     1       2.299   1.915 -12.959  0.00  0.00    -0.042 A 
ATOM     24  C   UNL     1       2.287   3.285 -12.778  0.00  0.00    +0.004 A 
ATOM     25  C   UNL     1       1.782   3.823 -11.609  0.00  0.00    +0.004 A 
BRANCH  23  26
ATOM     26  C   UNL     1       2.850   1.328 -14.233  0.00  0.00    -0.013 C 
ATOM     27  C   UNL     1       4.317   1.734 -14.389  0.00  0.00    +0.015 C 
ATOM     28  C   UNL     1       2.747  -0.198 -14.178  0.00  0.00    +0.015 C 
ATOM     29  C   UNL     1       2.047   1.851 -15.425  0.00  0.00    +0.015 C 
ENDBRANCH  23  26
ENDBRANCH  13  20
BRANCH  18  30
ATOM     30  C   UNL     1      -0.909   0.733  -7.227  0.00  0.00    +0.127 A 
ATOM     31  C   UNL     1      -1.893   0.382  -8.075  0.00  0.00    +0.046 A 
ATOM     32  C   UNL     1      -1.362  -0.612  -8.928  0.00  0.00    +0.041 A 
ATOM     33  C   UNL     1      -0.089  -0.815  -8.546  0.00  0.00    +0.195 A 
ATOM     34  O   UNL     1       0.180   0.002  -7.515  0.00  0.00    -0.466 OA
ENDBRANCH  18  30
BRANCH   1  35
ATOM     35  C   UNL     1      -0.037   1.099  -2.490  0.00  0.00    +0.096 C 
BRANCH  35  36
ATOM     36  C   UNL     1      -0.753   1.593  -1.232  0.00  0.00    +0.009 C 
BRANCH  36  37
ATOM     37  C   UNL     1      -0.013   1.086   0.008  0.00  0.00    +0.000 C 
BRANCH  37  39
ATOM     38  C   UNL     1       0.011   1.072   2.506  0.00  0.00    +0.004 C 
ATOM     39  C   UNL     1      -0.729   1.579   1.267  0.00  0.00    -0.003 C 
ENDBRANCH  37  39
ENDBRANCH  36  37
ENDBRANCH  35  36
ENDBRANCH   1  35
TORSDOF 7
