REMARK  Name = ZINC52782176
REMARK  10 active torsions:
REMARK  status: ('A' for Active; 'I' for Inactive)
REMARK    1  A    between atoms: C_1  and  N_2
REMARK    2  A    between atoms: C_4  and  S_11
REMARK    3  A    between atoms: N_7  and  C_10
REMARK    4  A    between atoms: S_11  and  N_14
REMARK    5  A    between atoms: N_14  and  C_15
REMARK    6  A    between atoms: C_15  and  C_16
REMARK    7  A    between atoms: C_16  and  C_18
REMARK    8  A    between atoms: C_16  and  N_25
REMARK    9  A    between atoms: N_25  and  C_26
REMARK   10  A    between atoms: N_25  and  C_27
REMARK                            x       y       z     vdW  Elec       q    Type
REMARK                         _______ _______ _______ _____ _____    ______ ____
ROOT
ATOM      1  N   UNL     1      -2.899  -3.666  -1.546  0.00  0.00    -0.191 NA
ATOM      2  H   UNL     1      -3.577  -3.410  -2.190  0.00  0.00    +0.148 HD
ENDROOT
BRANCH   1   3
ATOM      3  S   UNL     1      -2.799  -2.877  -0.093  0.00  0.00    +0.065 S 
ATOM      4  O   UNL     1      -2.731  -3.881   0.910  0.00  0.00    -0.153 OA
ATOM      5  O   UNL     1      -3.808  -1.877  -0.103  0.00  0.00    -0.153 OA
BRANCH   3   9
ATOM      6  C   UNL     1       0.050   1.418  -0.188  0.00  0.00    +0.153 C 
ATOM      7  N   UNL     1       0.001  -0.044  -0.111  0.00  0.00    -0.301 N 
ATOM      8  C   UNL     1      -1.208  -0.684  -0.135  0.00  0.00    +0.124 A 
ATOM      9  C   UNL     1      -1.252  -2.032  -0.065  0.00  0.00    +0.186 A 
ATOM     10  C   UNL     1      -0.040  -2.757   0.033  0.00  0.00    +0.283 A 
ATOM     11  O   UNL     1      -0.055  -3.973   0.097  0.00  0.00    -0.265 OA
ATOM     12  N   UNL     1       1.131  -2.089   0.053  0.00  0.00    -0.262 N 
ATOM     13  C   UNL     1       1.146  -0.745  -0.024  0.00  0.00    +0.332 A 
ATOM     14  O   UNL     1       2.210  -0.156  -0.009  0.00  0.00    -0.246 OA
ATOM     15  C   UNL     1       2.391  -2.829   0.154  0.00  0.00    +0.157 C 
ENDBRANCH   3   9
ENDBRANCH   1   3
BRANCH   1  16
ATOM     16  C   UNL     1      -1.964  -4.750  -1.857  0.00  0.00    +0.095 C 
BRANCH  16  17
ATOM     17  C   UNL     1      -2.479  -5.537  -3.063  0.00  0.00    -0.023 C 
BRANCH  17  18
ATOM     18  C   UNL     1      -2.498  -4.643  -4.276  0.00  0.00    -0.057 A 
ATOM     19  C   UNL     1      -1.331  -4.408  -4.979  0.00  0.00    +0.002 A 
ATOM     20  C   UNL     1      -1.346  -3.588  -6.092  0.00  0.00    +0.003 A 
ATOM     21  C   UNL     1      -2.529  -3.002  -6.503  0.00  0.00    +0.038 A 
ATOM     22  C   UNL     1      -3.698  -3.237  -5.800  0.00  0.00    +0.124 A 
ATOM     23  C   UNL     1      -3.683  -4.064  -4.689  0.00  0.00    +0.040 A 
ATOM     24  F   UNL     1      -4.854  -2.665  -6.200  0.00  0.00    -0.205 F 
ENDBRANCH  17  18
BRANCH  17  25
ATOM     25  N   UNL     1      -1.596  -6.684  -3.313  0.00  0.00    +0.381 N 
ATOM     26  C   UNL     1      -1.597  -7.568  -2.140  0.00  0.00    -0.096 C 
ATOM     27  C   UNL     1      -2.076  -7.426  -4.486  0.00  0.00    -0.096 C 
ATOM     28  H   UNL     1      -0.658  -6.354  -3.485  0.00  0.00    -0.082 HD
ENDBRANCH  17  25
ENDBRANCH  16  17
ENDBRANCH   1  16
TORSDOF 6
