REMARK  Name = ZINC54521008
REMARK  7 active torsions:
REMARK  status: ('A' for Active; 'I' for Inactive)
REMARK    1  A    between atoms: C_1  and  C_2
REMARK    2  A    between atoms: C_2  and  N_3
REMARK    3  A    between atoms: N_3  and  C_4
REMARK    4  A    between atoms: N_3  and  C_23
REMARK    5  A    between atoms: C_4  and  N_5
REMARK    6  A    between atoms: N_8  and  C_22
REMARK    7  A    between atoms: C_9  and  C_11
REMARK                            x       y       z     vdW  Elec       q    Type
REMARK                         _______ _______ _______ _____ _____    ______ ____
ROOT
ATOM      1  N   UNL     1      -0.314   1.248   2.245  0.00  0.00    -0.257 N 
ATOM      2  C   UNL     1       0.190   2.131   3.132  0.00  0.00    +0.176 A 
ATOM      3  S   UNL     1       1.196   1.763   4.468  0.00  0.00    -0.011 S 
ATOM      4  N   UNL     1      -0.242   3.356   2.772  0.00  0.00    -0.307 N 
ATOM      5  C   UNL     1      -1.023   3.226   1.649  0.00  0.00    +0.176 A 
ATOM      6  N   UNL     1      -1.072   1.976   1.317  0.00  0.00    -0.154 NA
ATOM      7  C   UNL     1       0.068   4.612   3.460  0.00  0.00    +0.153 C 
ENDROOT
BRANCH   5   8
ATOM      8  C   UNL     1      -1.705   4.355   0.920  0.00  0.00    +0.278 C 
ATOM      9  C   UNL     1      -2.755   3.788  -0.045  0.00  0.00    +0.281 C 
ATOM     10  O   UNL     1      -3.373   4.883  -0.729  0.00  0.00    -0.484 OA
ATOM     11  C   UNL     1      -2.542   5.838  -1.229  0.00  0.00    +0.162 A 
ATOM     12  C   UNL     1      -3.015   6.715  -2.194  0.00  0.00    +0.049 A 
ATOM     13  C   UNL     1      -2.184   7.692  -2.709  0.00  0.00    +0.004 A 
ATOM     14  C   UNL     1      -0.880   7.798  -2.265  0.00  0.00    +0.004 A 
ATOM     15  C   UNL     1      -0.401   6.927  -1.304  0.00  0.00    +0.049 A 
ATOM     16  C   UNL     1      -1.229   5.943  -0.784  0.00  0.00    +0.163 A 
ATOM     17  O   UNL     1      -0.742   5.088   0.156  0.00  0.00    -0.474 OA
ENDBRANCH   5   8
BRANCH   1  18
ATOM     18  C   UNL     1      -0.104  -0.202   2.248  0.00  0.00    +0.072 C 
BRANCH  18  19
ATOM     19  N   UNL     1       0.856  -0.559   1.195  0.00  0.00    +0.394 N 
ATOM     20  H   UNL     1       0.941  -1.563   1.144  0.00  0.00    -0.079 HD
BRANCH  19  21
ATOM     21  C   UNL     1       0.383  -0.042  -0.096  0.00  0.00    -0.066 C 
ATOM     22  C   UNL     1      -0.959  -0.704  -0.471  0.00  0.00    -0.015 C 
ATOM     23  C   UNL     1      -0.874  -0.892  -2.006  0.00  0.00    -0.002 C 
ATOM     24  C   UNL     1       0.610  -1.282  -2.221  0.00  0.00    -0.002 C 
ATOM     25  C   UNL     1       1.380  -0.409  -1.208  0.00  0.00    -0.015 C 
ENDBRANCH  19  21
BRANCH  19  27
ATOM     26  C   UNL     1       2.732  -0.629   2.768  0.00  0.00    -0.017 C 
ATOM     27  C   UNL     1       2.166   0.028   1.508  0.00  0.00    -0.079 C 
ENDBRANCH  19  27
ENDBRANCH  18  19
ENDBRANCH   1  18
TORSDOF 5
