REMARK  Name = ZINC02440891
REMARK  8 active torsions:
REMARK  status: ('A' for Active; 'I' for Inactive)
REMARK    1  A    between atoms: C_1  and  C_2
REMARK    2  A    between atoms: C_5  and  C_39
REMARK    3  A    between atoms: C_5  and  C_40
REMARK    4  A    between atoms: C_10  and  O_30
REMARK    5  A    between atoms: C_25  and  N_29
REMARK    6  A    between atoms: C_26  and  C_27
REMARK    7  A    between atoms: O_30  and  C_31
REMARK    8  A    between atoms: C_31  and  C_33
REMARK                            x       y       z     vdW  Elec       q    Type
REMARK                         _______ _______ _______ _____ _____    ______ ____
ROOT
ATOM      1  C   UNL     1       0.266   1.563  -0.061  0.00  0.00    +0.012 C 
ATOM      2  C   UNL     1       0.180   0.035  -0.052  0.00  0.00    +0.020 C 
ATOM      3  C   UNL     1       0.909  -0.523  -1.278  0.00  0.00    +0.033 C 
ATOM      4  C   UNL     1       0.915  -2.057  -1.289  0.00  0.00    +0.037 C 
ATOM      5  N   UNL     1       1.512  -2.527  -0.027  0.00  0.00    -0.264 N 
ATOM      6  C   UNL     1       1.437  -1.740   1.122  0.00  0.00    +0.045 A 
ATOM      7  C   UNL     1       0.818  -0.493   1.199  0.00  0.00    -0.019 A 
ATOM      8  C   UNL     1       0.849   0.140   2.418  0.00  0.00    +0.052 A 
ATOM      9  C   UNL     1       1.472  -0.455   3.511  0.00  0.00    +0.133 A 
ATOM     10  C   UNL     1       2.089  -1.707   3.430  0.00  0.00    +0.053 A 
ATOM     11  C   UNL     1       2.057  -2.342   2.209  0.00  0.00    +0.004 A 
ATOM     12  C   UNL     1       2.574  -3.643   1.692  0.00  0.00    +0.158 C 
ATOM     13  C   UNL     1       2.168  -3.670   0.229  0.00  0.00    +0.242 C 
ATOM     14  O   UNL     1       2.394  -4.561  -0.563  0.00  0.00    -0.273 OA
ATOM     15  C   UNL     1       4.069  -3.728   1.812  0.00  0.00    +0.104 A 
ATOM     16  C   UNL     1       4.679  -4.575   2.658  0.00  0.00    +0.224 A 
ATOM     17  N   UNL     1       6.039  -4.400   2.521  0.00  0.00    -0.305 N 
ATOM     18  H   UNL     1       6.727  -4.880   3.008  0.00  0.00    +0.171 HD
ATOM     19  C   UNL     1       6.248  -3.445   1.590  0.00  0.00    +0.158 A 
ATOM     20  S   UNL     1       7.774  -2.872   1.067  0.00  0.00    -0.013 S 
ATOM     21  N   UNL     1       5.047  -3.019   1.142  0.00  0.00    -0.333 N 
ATOM     22  H   UNL     1       4.898  -2.337   0.468  0.00  0.00    +0.168 HD
ATOM     23  O   UNL     1       3.998  -5.422   3.471  0.00  0.00    -0.423 OA
ATOM     24  C   UNL     1       2.682  -5.602   3.239  0.00  0.00    +0.201 C 
ATOM     25  C   UNL     1       1.956  -4.807   2.417  0.00  0.00    +0.112 C 
ATOM     26  C   UNL     1       1.744  -2.561  -2.471  0.00  0.00    +0.032 C 
ATOM     27  C   UNL     1      -0.520  -2.576  -1.406  0.00  0.00    +0.032 C 
ENDROOT
BRANCH  24  28
ATOM     28  N   UNL     1       2.046  -6.645   3.866  0.00  0.00    -0.328 N 
ATOM     29  H   UNL     1       2.543  -7.230   4.459  0.00  0.00    +0.145 HD
ATOM     30  H   UNL     1       1.100  -6.797   3.716  0.00  0.00    +0.145 HD
ENDBRANCH  24  28
BRANCH  25  31
ATOM     31  C   UNL     1       0.562  -5.082   2.233  0.00  0.00    +0.102 C 
ATOM     32  N   UNL     1      -0.543  -5.300   2.087  0.00  0.00    -0.191 NA
ENDBRANCH  25  31
BRANCH   9  33
ATOM     33  O   UNL     1       1.481   0.204   4.700  0.00  0.00    -0.422 OA
BRANCH  33  34
ATOM     34  C   UNL     1       2.657   0.684   5.148  0.00  0.00    +0.344 C 
ATOM     35  O   UNL     1       3.648   0.614   4.448  0.00  0.00    -0.245 OA
BRANCH  34  36
ATOM     36  C   UNL     1       2.743   1.294   6.490  0.00  0.00    +0.059 A 
ATOM     37  C   UNL     1       1.607   1.371   7.299  0.00  0.00    +0.015 A 
ATOM     38  C   UNL     1       1.694   1.942   8.552  0.00  0.00    +0.001 A 
ATOM     39  C   UNL     1       2.903   2.439   9.007  0.00  0.00    +0.000 A 
ATOM     40  C   UNL     1       4.032   2.366   8.211  0.00  0.00    +0.001 A 
ATOM     41  C   UNL     1       3.960   1.792   6.958  0.00  0.00    +0.015 A 
ENDBRANCH  34  36
ENDBRANCH  33  34
ENDBRANCH   9  33
TORSDOF 5
