REMARK  Name = ZINC41333122
REMARK  4 active torsions:
REMARK  status: ('A' for Active; 'I' for Inactive)
REMARK    1  A    between atoms: C_1  and  C_2
REMARK    2  A    between atoms: C_2  and  N_3
REMARK    3  A    between atoms: N_10  and  C_13
REMARK    4  A    between atoms: C_22  and  C_25
REMARK                            x       y       z     vdW  Elec       q    Type
REMARK                         _______ _______ _______ _____ _____    ______ ____
ROOT
ATOM      1  N   UNL     1      -1.372  -0.511   0.012  0.00  0.00    -0.314 N 
ATOM      2  C   UNL     1      -1.607  -1.875   0.007  0.00  0.00    +0.219 A 
ATOM      3  N   UNL     1      -0.568  -2.702  -0.002  0.00  0.00    -0.199 NA
ATOM      4  C   UNL     1      -0.739  -4.018  -0.007  0.00  0.00    +0.140 A 
ATOM      5  C   UNL     1      -2.054  -4.525  -0.003  0.00  0.00    +0.079 A 
ATOM      6  C   UNL     1      -2.616  -5.821  -0.006  0.00  0.00    +0.148 A 
ATOM      7  N   UNL     1      -3.914  -5.708   0.001  0.00  0.00    -0.172 NA
ATOM      8  N   UNL     1      -4.271  -4.353   0.009  0.00  0.00    -0.214 N 
ATOM      9  C   UNL     1      -3.124  -3.610   0.007  0.00  0.00    +0.170 A 
ATOM     10  N   UNL     1      -2.857  -2.306   0.017  0.00  0.00    -0.195 NA
ATOM     11  N   UNL     1       0.348  -4.873  -0.017  0.00  0.00    -0.281 N 
ATOM     12  C   UNL     1       1.641  -4.354  -0.021  0.00  0.00    +0.167 A 
ATOM     13  C   UNL     1       1.989  -2.984  -0.011  0.00  0.00    +0.091 A 
ATOM     14  C   UNL     1       3.330  -2.894  -0.019  0.00  0.00    +0.136 A 
ATOM     15  O   UNL     1       3.834  -4.138  -0.034  0.00  0.00    -0.358 OA
ATOM     16  N   UNL     1       2.750  -5.050  -0.030  0.00  0.00    -0.063 NA
ATOM     17  C   UNL     1       4.130  -1.617  -0.014  0.00  0.00    +0.089 C 
ATOM     18  H   UNL     1      -2.118   0.109   0.023  0.00  0.00    +0.149 HD
ATOM     19  H   UNL     1       0.211  -5.833  -0.020  0.00  0.00    +0.155 HD
ENDROOT
BRANCH   8  20
ATOM     20  C   UNL     1      -5.577  -3.848   0.018  0.00  0.00    +0.068 A 
ATOM     21  C   UNL     1      -5.866  -2.679   0.708  0.00  0.00    +0.028 A 
ATOM     22  C   UNL     1      -7.155  -2.183   0.714  0.00  0.00    +0.002 A 
ATOM     23  C   UNL     1      -8.157  -2.849   0.033  0.00  0.00    +0.000 A 
ATOM     24  C   UNL     1      -7.872  -4.014  -0.655  0.00  0.00    +0.002 A 
ATOM     25  C   UNL     1      -6.584  -4.512  -0.670  0.00  0.00    +0.028 A 
ENDBRANCH   8  20
BRANCH   1  27
ATOM     26  C   UNL     1      -0.019   1.526   0.010  0.00  0.00    +0.024 C 
ATOM     27  C   UNL     1       0.002  -0.004   0.002  0.00  0.00    +0.101 C 
ENDBRANCH   1  27
TORSDOF 2
