REMARK  Name = ZINC63963282
REMARK  6 active torsions:
REMARK  status: ('A' for Active; 'I' for Inactive)
REMARK    1  A    between atoms: C_1  and  C_2
REMARK    2  A    between atoms: C_2  and  C_3
REMARK    3  A    between atoms: C_6  and  C_8
REMARK    4  A    between atoms: C_8  and  N_9
REMARK    5  A    between atoms: N_9  and  S_10
REMARK    6  A    between atoms: S_10  and  C_13
REMARK                            x       y       z     vdW  Elec       q    Type
REMARK                         _______ _______ _______ _____ _____    ______ ____
ROOT
ATOM      1  S   UNL     1       1.421  -4.010  -6.609  0.00  0.00    +0.059 S 
ATOM      2  O   UNL     1       1.334  -5.404  -6.349  0.00  0.00    -0.153 OA
ATOM      3  O   UNL     1       0.401  -3.299  -7.298  0.00  0.00    -0.153 OA
ENDROOT
BRANCH   1   4
ATOM      4  C   UNL     1       2.910  -3.759  -7.517  0.00  0.00    +0.107 A 
ATOM      5  C   UNL     1       3.032  -2.577  -8.362  0.00  0.00    +0.030 A 
ATOM      6  C   UNL     1       4.146  -2.324  -9.082  0.00  0.00    +0.027 A 
ATOM      7  C   UNL     1       5.270  -3.255  -9.023  0.00  0.00    +0.056 A 
ATOM      8  N   UNL     1       6.456  -3.309  -9.576  0.00  0.00    -0.268 N 
ATOM      9  C   UNL     1       7.089  -4.447  -9.136  0.00  0.00    +0.308 C 
ATOM     10  O   UNL     1       8.205  -4.794  -9.460  0.00  0.00    -0.252 OA
ATOM     11  N   UNL     1       6.268  -5.133  -8.272  0.00  0.00    -0.267 N 
ATOM     12  C   UNL     1       5.145  -4.470  -8.155  0.00  0.00    +0.058 A 
ATOM     13  C   UNL     1       3.906  -4.664  -7.404  0.00  0.00    +0.053 A 
ATOM     14  H   UNL     1       6.483  -5.967  -7.826  0.00  0.00    +0.156 HD
ATOM     15  H   UNL     1       6.824  -2.657 -10.192  0.00  0.00    +0.156 HD
ENDBRANCH   1   4
BRANCH   1  16
ATOM     16  N   UNL     1       1.609  -3.265  -5.142  0.00  0.00    -0.185 NA
ATOM     17  H   UNL     1       1.623  -3.793  -4.329  0.00  0.00    +0.148 HD
BRANCH  16  18
ATOM     18  C   UNL     1       1.755  -1.809  -5.073  0.00  0.00    +0.148 C 
BRANCH  18  22
ATOM     19  C   UNL     1       0.707  -0.490  -1.238  0.00  0.00    -0.010 A 
ATOM     20  C   UNL     1       2.023  -0.761  -1.421  0.00  0.00    +0.011 A 
ATOM     21  C   UNL     1       2.451  -1.202  -2.659  0.00  0.00    +0.013 A 
ATOM     22  C   UNL     1       1.542  -1.350  -3.654  0.00  0.00    +0.005 A 
ATOM     23  S   UNL     1       0.026  -0.866  -2.845  0.00  0.00    -0.097 S 
BRANCH  19  25
ATOM     24  C   UNL     1      -0.019   1.526   0.010  0.00  0.00    +0.009 C 
ATOM     25  C   UNL     1       0.002  -0.004   0.002  0.00  0.00    +0.039 C 
ENDBRANCH  19  25
ENDBRANCH  18  22
ENDBRANCH  16  18
ENDBRANCH   1  16
TORSDOF 5
