REMARK  Name = ZINC36072499
REMARK  13 active torsions:
REMARK  status: ('A' for Active; 'I' for Inactive)
REMARK    1  A    between atoms: C_1  and  C_2
REMARK    2  A    between atoms: C_2  and  O_3
REMARK    3  A    between atoms: O_3  and  C_4
REMARK    4  A    between atoms: C_4  and  C_6
REMARK    5  A    between atoms: C_12  and  C_14
REMARK    6  A    between atoms: C_17  and  C_19
REMARK    7  A    between atoms: C_19  and  N_20
REMARK    8  A    between atoms: N_20  and  C_21
REMARK    9  A    between atoms: N_20  and  C_29
REMARK   10  A    between atoms: C_21  and  C_22
REMARK   11  A    between atoms: C_29  and  C_30
REMARK   12  A    between atoms: C_34  and  O_36
REMARK   13  A    between atoms: O_36  and  C_37
REMARK                            x       y       z     vdW  Elec       q    Type
REMARK                         _______ _______ _______ _____ _____    ______ ____
ROOT
ATOM      1  C   UNL     1       2.510  -9.005   3.731  0.00  0.00    +0.020 C 
ENDROOT
BRANCH   1   5
ATOM      2  C   UNL     1       3.900  -5.737   3.014  0.00  0.00    +0.164 A 
ATOM      3  C   UNL     1       5.036  -6.427   3.307  0.00  0.00    +0.230 A 
ATOM      4  O   UNL     1       4.666  -7.684   3.600  0.00  0.00    -0.449 OA
ATOM      5  C   UNL     1       3.332  -7.765   3.489  0.00  0.00    +0.179 A 
ATOM      6  N   UNL     1       2.860  -6.605   3.143  0.00  0.00    -0.210 NA
BRANCH   2  13
ATOM      7  C   UNL     1       0.622  -2.932   0.447  0.00  0.00    +0.101 C 
ATOM      8  C   UNL     1       1.926  -2.144   0.587  0.00  0.00    +0.033 C 
ATOM      9  C   UNL     1       2.496  -2.353   1.994  0.00  0.00    +0.109 C 
ATOM     10  N   UNL     1       2.633  -3.796   2.238  0.00  0.00    -0.296 N 
ATOM     11  C   UNL     1       1.461  -4.660   2.044  0.00  0.00    +0.109 C 
ATOM     12  C   UNL     1       0.903  -4.424   0.637  0.00  0.00    +0.033 C 
ATOM     13  C   UNL     1       3.812  -4.316   2.633  0.00  0.00    +0.268 C 
ATOM     14  O   UNL     1       4.803  -3.613   2.676  0.00  0.00    -0.268 OA
BRANCH   7  15
ATOM     15  C   UNL     1       0.041  -2.701  -0.924  0.00  0.00    +0.310 C 
ATOM     16  O   UNL     1      -0.131  -3.634  -1.673  0.00  0.00    -0.251 OA
BRANCH  15  17
ATOM     17  O   UNL     1      -0.286  -1.459  -1.314  0.00  0.00    -0.465 OA
BRANCH  17  19
ATOM     18  C   UNL     1      -1.140   0.162  -2.890  0.00  0.00    +0.048 C 
ATOM     19  C   UNL     1      -0.832  -1.313  -2.627  0.00  0.00    +0.229 C 
ENDBRANCH  17  19
ENDBRANCH  15  17
ENDBRANCH   7  15
ENDBRANCH   2  13
ENDBRANCH   1   5
BRANCH   1  20
ATOM     20  N   UNL     1       2.431  -9.790   2.492  0.00  0.00    +0.391 N 
ATOM     21  H   UNL     1       2.142  -9.192   1.732  0.00  0.00    -0.080 HD
BRANCH  20  22
ATOM     22  C   UNL     1       1.454 -10.874   2.660  0.00  0.00    -0.042 C 
BRANCH  22  23
ATOM     23  C   UNL     1       0.074 -10.288   2.811  0.00  0.00    -0.064 A 
ATOM     24  C   UNL     1      -0.428 -10.017   4.070  0.00  0.00    +0.004 A 
ATOM     25  C   UNL     1      -1.693  -9.479   4.209  0.00  0.00    +0.038 A 
ATOM     26  C   UNL     1      -2.458  -9.211   3.086  0.00  0.00    +0.123 A 
ATOM     27  C   UNL     1      -1.954  -9.482   1.825  0.00  0.00    +0.038 A 
ATOM     28  C   UNL     1      -0.686 -10.015   1.689  0.00  0.00    +0.004 A 
ATOM     29  F   UNL     1      -3.695  -8.685   3.220  0.00  0.00    -0.205 F 
ENDBRANCH  22  23
ENDBRANCH  20  22
BRANCH  20  30
ATOM     30  C   UNL     1       3.750 -10.362   2.190  0.00  0.00    -0.042 C 
BRANCH  30  31
ATOM     31  C   UNL     1       3.700 -11.065   0.857  0.00  0.00    -0.060 A 
ATOM     32  C   UNL     1       3.356 -12.402   0.794  0.00  0.00    +0.002 A 
ATOM     33  C   UNL     1       3.308 -13.049  -0.427  0.00  0.00    +0.004 A 
ATOM     34  C   UNL     1       3.606 -12.360  -1.587  0.00  0.00    +0.045 A 
ATOM     35  C   UNL     1       3.952 -11.018  -1.526  0.00  0.00    +0.120 A 
ATOM     36  C   UNL     1       3.992 -10.370  -0.300  0.00  0.00    +0.047 A 
BRANCH  35  37
ATOM     37  O   UNL     1       4.245 -10.339  -2.666  0.00  0.00    -0.495 OA
ATOM     38  C   UNL     1       4.177 -11.069  -3.892  0.00  0.00    +0.277 C 
ENDBRANCH  35  37
ENDBRANCH  30  31
ENDBRANCH  20  30
ENDBRANCH   1  20
TORSDOF 11
