REMARK  Name = ZINC05249825
REMARK  6 active torsions:
REMARK  status: ('A' for Active; 'I' for Inactive)
REMARK    1  A    between atoms: C_1  and  C_2
REMARK    2  A    between atoms: C_4  and  C_30
REMARK    3  A    between atoms: C_9  and  C_13
REMARK    4  A    between atoms: C_14  and  C_15
REMARK    5  A    between atoms: C_16  and  C_28
REMARK    6  A    between atoms: C_16  and  C_29
REMARK                            x       y       z     vdW  Elec       q    Type
REMARK                         _______ _______ _______ _____ _____    ______ ____
ROOT
ATOM      1  C   UNL     1       5.074   4.090  -0.022  0.00  0.00    +0.131 C 
ATOM      2  C   UNL     1       5.256   5.004  -1.254  0.00  0.00    +0.034 C 
ATOM      3  C   UNL     1       4.834   6.363  -0.732  0.00  0.00    -0.017 A 
ATOM      4  C   UNL     1       4.489   7.527  -1.387  0.00  0.00    +0.006 A 
ATOM      5  C   UNL     1       4.127   8.648  -0.662  0.00  0.00    +0.000 A 
ATOM      6  C   UNL     1       4.112   8.600   0.720  0.00  0.00    +0.002 A 
ATOM      7  C   UNL     1       4.460   7.440   1.379  0.00  0.00    +0.023 A 
ATOM      8  C   UNL     1       4.829   6.306   0.656  0.00  0.00    +0.036 A 
ATOM      9  N   UNL     1       5.230   5.044   1.110  0.00  0.00    -0.296 N 
ATOM     10  C   UNL     1       6.691   5.035   1.356  0.00  0.00    +0.203 C 
ATOM     11  C   UNL     1       7.163   3.687   0.861  0.00  0.00    +0.232 C 
ATOM     12  O   UNL     1       8.224   3.165   1.130  0.00  0.00    -0.274 OA
ATOM     13  N   UNL     1       6.199   3.153   0.060  0.00  0.00    -0.289 N 
ATOM     14  C   UNL     1       6.720   5.026  -1.700  0.00  0.00    +0.020 C 
ATOM     15  C   UNL     1       4.346   4.557  -2.400  0.00  0.00    +0.020 C 
ATOM     16  H   UNL     1       6.246   2.296  -0.393  0.00  0.00    +0.151 HD
ENDROOT
BRANCH   1  18
ATOM     17  C   UNL     1       3.686   2.065  -0.020  0.00  0.00    +0.010 C 
ATOM     18  C   UNL     1       3.740   3.390  -0.013  0.00  0.00    +0.020 C 
BRANCH  17  27
ATOM     19  C   UNL     1      -3.728   2.108   0.048  0.00  0.00    +0.044 C 
ATOM     20  C   UNL     1      -2.408   1.380   0.032  0.00  0.00    -0.050 A 
ATOM     21  C   UNL     1      -2.392  -0.014   0.025  0.00  0.00    +0.008 A 
ATOM     22  C   UNL     1      -1.218  -0.702   0.010  0.00  0.00    -0.024 A 
ATOM     23  C   UNL     1       0.002  -0.004   0.002  0.00  0.00    +0.076 A 
ATOM     24  C   UNL     1      -0.017   1.413   0.010  0.00  0.00    +0.002 A 
ATOM     25  C   UNL     1      -1.248   2.091   0.031  0.00  0.00    +0.013 A 
ATOM     26  C   UNL     1       1.201   2.115   0.002  0.00  0.00    +0.021 A 
ATOM     27  C   UNL     1       2.377   1.378  -0.012  0.00  0.00    +0.012 A 
ATOM     28  C   UNL     1       2.314  -0.028  -0.019  0.00  0.00    +0.137 A 
ATOM     29  N   UNL     1       1.167  -0.661  -0.012  0.00  0.00    -0.234 NA
ATOM     30 CL   UNL     1       3.789  -0.943  -0.038  0.00  0.00    -0.061 Cl
ATOM     31  C   UNL     1      -1.226  -2.209   0.002  0.00  0.00    +0.046 C 
ENDBRANCH  17  27
ENDBRANCH   1  18
TORSDOF 2
