REMARK  Name = ZINC12947738
REMARK  14 active torsions:
REMARK  status: ('A' for Active; 'I' for Inactive)
REMARK    1  A    between atoms: C_1  and  C_2
REMARK    2  A    between atoms: C_2  and  C_3
REMARK    3  A    between atoms: C_3  and  C_4
REMARK    4  A    between atoms: C_4  and  N_5
REMARK    5  A    between atoms: C_6  and  N_37
REMARK    6  A    between atoms: C_7  and  N_14
REMARK    7  A    between atoms: N_14  and  C_15
REMARK    8  A    between atoms: C_15  and  C_16
REMARK    9  A    between atoms: C_22  and  C_24
REMARK   10  A    between atoms: C_24  and  O_25
REMARK   11  A    between atoms: O_25  and  C_26
REMARK   12  A    between atoms: C_27  and  C_36
REMARK   13  A    between atoms: C_30  and  N_33
REMARK   14  A    between atoms: C_31  and  C_32
REMARK                            x       y       z     vdW  Elec       q    Type
REMARK                         _______ _______ _______ _____ _____    ______ ____
ROOT
ATOM      1  N   UNL     1       2.383   3.016  -0.167  0.00  0.00    -0.257 N 
ATOM      2  C   UNL     1       2.352   4.365  -0.144  0.00  0.00    +0.258 C 
ATOM      3  O   UNL     1       1.289   4.948  -0.190  0.00  0.00    -0.271 OA
ENDROOT
BRANCH   1   6
ATOM      4  N   UNL     1      -0.457   0.765   0.441  0.00  0.00    -0.280 N 
ATOM      5  C   UNL     1       0.709   1.464   0.649  0.00  0.00    +0.127 A 
ATOM      6  C   UNL     1       1.189   2.286  -0.350  0.00  0.00    +0.140 A 
ATOM      7  C   UNL     1       0.469   2.382  -1.555  0.00  0.00    +0.277 A 
ATOM      8  O   UNL     1       0.871   3.100  -2.455  0.00  0.00    -0.266 OA
ATOM      9  N   UNL     1      -0.668   1.676  -1.709  0.00  0.00    -0.273 N 
ATOM     10  H   UNL     1      -1.178   1.741  -2.566  0.00  0.00    +0.173 HD
ATOM     11  C   UNL     1      -1.124   0.884  -0.722  0.00  0.00    +0.331 A 
ATOM     12  O   UNL     1      -2.156   0.262  -0.885  0.00  0.00    -0.246 OA
BRANCH   5  13
ATOM     13  N   UNL     1       1.387   1.346   1.839  0.00  0.00    -0.343 N 
ATOM     14  H   UNL     1       2.155   1.911   2.017  0.00  0.00    +0.144 HD
ATOM     15  H   UNL     1       1.098   0.698   2.499  0.00  0.00    +0.144 HD
ENDBRANCH   5  13
BRANCH   4  16
ATOM     16  C   UNL     1      -0.979  -0.111   1.493  0.00  0.00    +0.128 C 
BRANCH  16  17
ATOM     17  C   UNL     1      -1.919   0.687   2.400  0.00  0.00    +0.021 C 
BRANCH  17  19
ATOM     18  C   UNL     1      -3.403   0.570   4.406  0.00  0.00    +0.004 C 
ATOM     19  C   UNL     1      -2.464  -0.228   3.499  0.00  0.00    -0.002 C 
ENDBRANCH  17  19
ENDBRANCH  16  17
ENDBRANCH   4  16
ENDBRANCH   1   6
BRANCH   1  20
ATOM     20  C   UNL     1       3.655   2.309  -0.001  0.00  0.00    +0.149 C 
BRANCH  20  21
ATOM     21  C   UNL     1       4.223   1.972  -1.355  0.00  0.00    -0.030 A 
ATOM     22  C   UNL     1       3.810   0.827  -2.012  0.00  0.00    +0.005 A 
ATOM     23  C   UNL     1       4.327   0.520  -3.257  0.00  0.00    +0.000 A 
ATOM     24  C   UNL     1       5.264   1.352  -3.840  0.00  0.00    +0.000 A 
ATOM     25  C   UNL     1       5.681   2.493  -3.181  0.00  0.00    +0.000 A 
ATOM     26  C   UNL     1       5.160   2.803  -1.939  0.00  0.00    +0.005 A 
ENDBRANCH  20  21
ENDBRANCH   1  20
BRANCH   2  27
ATOM     27  C   UNL     1       3.637   5.146  -0.062  0.00  0.00    +0.325 C 
BRANCH  27  28
ATOM     28  O   UNL     1       3.341   6.538   0.073  0.00  0.00    -0.482 OA
BRANCH  28  29
ATOM     29  C   UNL     1       4.397   7.388   0.161  0.00  0.00    +0.129 A 
ATOM     30  C   UNL     1       4.929   7.710   1.402  0.00  0.00    -0.008 A 
ATOM     31  C   UNL     1       6.006   8.570   1.488  0.00  0.00    +0.009 A 
ATOM     32  C   UNL     1       6.548   9.119   0.340  0.00  0.00    +0.033 A 
ATOM     33  C   UNL     1       6.016   8.805  -0.896  0.00  0.00    +0.133 A 
ATOM     34  C   UNL     1       4.942   7.940  -0.989  0.00  0.00    +0.022 A 
ATOM     35  C   UNL     1       4.364   7.598  -2.337  0.00  0.00    +0.050 C 
ATOM     36  C   UNL     1       4.335   7.117   2.654  0.00  0.00    +0.047 C 
BRANCH  33  37
ATOM     37  N   UNL     1       6.598   9.394  -2.123  0.00  0.00    +0.057 N 
ATOM     38  O   UNL     1       7.612  10.065  -2.054  0.00  0.00    -0.126 OA
ATOM     39  O   UNL     1       6.063   9.208  -3.201  0.00  0.00    -0.126 OA
ENDBRANCH  33  37
ENDBRANCH  28  29
ENDBRANCH  27  28
ENDBRANCH   2  27
TORSDOF 11
