REMARK  Name = ZINC21188068
REMARK  6 active torsions:
REMARK  status: ('A' for Active; 'I' for Inactive)
REMARK    1  A    between atoms: C_1  and  C_2
REMARK    2  A    between atoms: C_3  and  N_9
REMARK    3  A    between atoms: N_9  and  C_10
REMARK    4  A    between atoms: C_10  and  N_12
REMARK    5  A    between atoms: N_12  and  N_13
REMARK    6  A    between atoms: C_14  and  C_15
REMARK                            x       y       z     vdW  Elec       q    Type
REMARK                         _______ _______ _______ _____ _____    ______ ____
ROOT
ATOM      1  N   UNL     1       0.182   0.029  -4.739  0.00  0.00    -0.218 N 
ATOM      2  H   UNL     1       0.258  -0.449  -5.580  0.00  0.00    +0.176 HD
ENDROOT
BRANCH   1   3
ATOM      3  C   UNL     1       0.095  -0.654  -3.581  0.00  0.00    +0.154 C 
ATOM      4  S   UNL     1       0.119  -2.365  -3.592  0.00  0.00    -0.017 S 
BRANCH   3   5
ATOM      5  N   UNL     1      -0.010   0.011  -2.413  0.00  0.00    -0.295 N 
ATOM      6  H   UNL     1      -0.103   0.976  -2.411  0.00  0.00    +0.154 HD
BRANCH   5   9
ATOM      7  C   UNL     1      -1.913   0.706  -0.414  0.00  0.00    +0.047 C 
ATOM      8  C   UNL     1      -0.895  -0.385  -0.201  0.00  0.00    -0.011 A 
ATOM      9  C   UNL     1       0.016  -0.692  -1.204  0.00  0.00    +0.037 A 
ATOM     10  C   UNL     1       0.952  -1.698  -1.003  0.00  0.00    +0.023 A 
ATOM     11  C   UNL     1       0.975  -2.391   0.191  0.00  0.00    +0.003 A 
ATOM     12  C   UNL     1       0.067  -2.084   1.188  0.00  0.00    +0.020 A 
ATOM     13  C   UNL     1      -0.864  -1.078   0.994  0.00  0.00    +0.046 A 
ATOM     14 CL   UNL     1      -1.997  -0.691   2.251  0.00  0.00    -0.083 Cl
ENDBRANCH   5   9
ENDBRANCH   3   5
ENDBRANCH   1   3
BRANCH   1  15
ATOM     15  N   UNL     1       0.162   1.430  -4.729  0.00  0.00    -0.187 NA
ATOM     16  C   UNL     1       0.246   2.090  -5.849  0.00  0.00    +0.159 C 
BRANCH  16  17
ATOM     17  C   UNL     1       0.225   3.554  -5.839  0.00  0.00    +0.105 A 
ATOM     18  C   UNL     1       0.129   4.363  -4.730  0.00  0.00    +0.157 A 
ATOM     19  N   UNL     1       0.144   5.633  -5.143  0.00  0.00    -0.209 NA
ATOM     20  C   UNL     1       0.245   5.665  -6.444  0.00  0.00    +0.179 A 
ATOM     21  N   UNL     1       0.306   4.397  -6.957  0.00  0.00    -0.291 N 
ATOM     22  C   UNL     1       0.420   4.281  -8.324  0.00  0.00    +0.101 A 
ATOM     23  C   UNL     1       0.470   5.363  -9.100  0.00  0.00    +0.067 A 
ATOM     24  S   UNL     1       0.344   6.681  -7.901  0.00  0.00    -0.058 S 
ATOM     25 CL   UNL     1       0.008   3.827  -3.083  0.00  0.00    -0.060 Cl
ENDBRANCH  16  17
ENDBRANCH   1  15
TORSDOF 5
