REMARK  Name = ZINC46577148
REMARK  4 active torsions:
REMARK  status: ('A' for Active; 'I' for Inactive)
REMARK    1  A    between atoms: C_1  and  C_2
REMARK    2  A    between atoms: C_6  and  C_24
REMARK    3  A    between atoms: C_16  and  C_17
REMARK    4  A    between atoms: N_26  and  N_27
REMARK                            x       y       z     vdW  Elec       q    Type
REMARK                         _______ _______ _______ _____ _____    ______ ____
ROOT
ATOM      1  C   UNL     1      -0.075   1.347  -0.372  0.00  0.00    +0.008 C 
ATOM      2  C   UNL     1      -0.097  -0.165  -0.143  0.00  0.00    -0.005 C 
ATOM      3  C   UNL     1      -1.528  -0.618   0.132  0.00  0.00    +0.041 C 
ATOM      4  C   UNL     1      -1.578  -2.076   0.495  0.00  0.00    -0.009 A 
ATOM      5  C   UNL     1      -2.769  -2.769   0.319  0.00  0.00    +0.052 A 
ATOM      6  C   UNL     1      -2.790  -4.185   0.685  0.00  0.00    +0.013 A 
ATOM      7  C   UNL     1      -3.945  -4.961   0.541  0.00  0.00    +0.011 A 
ATOM      8  C   UNL     1      -3.920  -6.278   0.896  0.00  0.00    +0.001 A 
ATOM      9  C   UNL     1      -2.760  -6.859   1.402  0.00  0.00    +0.002 A 
ATOM     10  C   UNL     1      -1.619  -6.133   1.556  0.00  0.00    +0.028 A 
ATOM     11  C   UNL     1      -1.605  -4.771   1.199  0.00  0.00    +0.072 A 
ATOM     12  N   UNL     1      -0.504  -4.035   1.335  0.00  0.00    -0.247 NA
ATOM     13  C   UNL     1      -0.458  -2.754   1.008  0.00  0.00    +0.072 A 
ATOM     14  C   UNL     1       0.816  -2.022   1.184  0.00  0.00    -0.021 C 
ATOM     15  C   UNL     1       1.962  -2.674   1.442  0.00  0.00    +0.013 C 
ATOM     16  C   UNL     1       0.786  -0.513   1.063  0.00  0.00    +0.041 C 
ENDROOT
BRANCH  15  17
ATOM     17  C   UNL     1       3.180  -1.918   1.782  0.00  0.00    -0.025 A 
ATOM     18  C   UNL     1       3.087  -0.717   2.491  0.00  0.00    +0.008 A 
ATOM     19  C   UNL     1       4.231  -0.015   2.806  0.00  0.00    +0.001 A 
ATOM     20  C   UNL     1       5.470  -0.497   2.421  0.00  0.00    +0.000 A 
ATOM     21  C   UNL     1       5.571  -1.684   1.718  0.00  0.00    +0.001 A 
ATOM     22  C   UNL     1       4.436  -2.401   1.402  0.00  0.00    +0.008 A 
ENDBRANCH  15  17
BRANCH   5  23
ATOM     23  C   UNL     1      -3.972  -2.100  -0.221  0.00  0.00    +0.261 C 
ATOM     24  O   UNL     1      -4.172  -2.082  -1.420  0.00  0.00    -0.269 OA
ATOM     25  N   UNL     1      -4.847  -1.509   0.617  0.00  0.00    -0.230 N 
ATOM     26  H   UNL     1      -4.688  -1.524   1.574  0.00  0.00    +0.173 HD
BRANCH  25  27
ATOM     27  N   UNL     1      -5.987  -0.875   0.106  0.00  0.00    -0.232 N 
ATOM     28  C   UNL     1      -6.886  -0.269   0.967  0.00  0.00    +0.232 A 
ATOM     29  N   UNL     1      -6.650  -0.293   2.270  0.00  0.00    -0.222 NA
ATOM     30  C   UNL     1      -7.489   0.278   3.120  0.00  0.00    +0.116 A 
ATOM     31  C   UNL     1      -8.624   0.905   2.631  0.00  0.00    +0.039 A 
ATOM     32  C   UNL     1      -8.840   0.911   1.262  0.00  0.00    +0.116 A 
ATOM     33  N   UNL     1      -7.959   0.327   0.467  0.00  0.00    -0.222 NA
ATOM     34  H   UNL     1      -6.147  -0.861  -0.851  0.00  0.00    +0.173 HD
ENDBRANCH  25  27
ENDBRANCH   5  23
TORSDOF 3
