REMARK  Name = ZINC06657940
REMARK  7 active torsions:
REMARK  status: ('A' for Active; 'I' for Inactive)
REMARK    1  A    between atoms: C_6  and  C_7
REMARK    2  A    between atoms: C_10  and  C_12
REMARK    3  A    between atoms: C_12  and  N_13
REMARK    4  A    between atoms: N_13  and  C_14
REMARK    5  A    between atoms: C_17  and  C_19
REMARK    6  A    between atoms: C_19  and  C_20
REMARK    7  A    between atoms: C_20  and  N_21
REMARK                            x       y       z     vdW  Elec       q    Type
REMARK                         _______ _______ _______ _____ _____    ______ ____
ROOT
ATOM      1  N   UNL     1       0.016   0.016   0.010  0.00  0.00    -0.289 N 
ATOM      2  C   UNL     1      -0.022   1.361   0.087  0.00  0.00    +0.218 C 
ATOM      3  O   UNL     1      -1.090   1.938   0.096  0.00  0.00    -0.276 OA
ENDROOT
BRANCH   1   4
ATOM      4  C   UNL     1       1.303  -0.674  -0.106  0.00  0.00    +0.077 C 
ATOM      5  C   UNL     1       1.276  -2.171  -0.421  0.00  0.00    +0.024 C 
ATOM      6  C   UNL     1       1.661  -1.690   0.981  0.00  0.00    +0.024 C 
ENDBRANCH   1   4
BRANCH   1   7
ATOM      7  C   UNL     1      -1.229  -0.755   0.043  0.00  0.00    +0.205 C 
BRANCH   7  11
ATOM      8  C   UNL     1      -2.771  -0.663  -3.235  0.00  0.00    +0.248 A 
ATOM      9  N   UNL     1      -2.064  -1.768  -3.283  0.00  0.00    -0.107 NA
ATOM     10  N   UNL     1      -1.452  -1.929  -2.163  0.00  0.00    -0.110 NA
ATOM     11  C   UNL     1      -1.741  -0.941  -1.362  0.00  0.00    +0.235 A 
ATOM     12  O   UNL     1      -2.584  -0.122  -2.014  0.00  0.00    -0.419 OA
BRANCH   8  18
ATOM     13  C   UNL     1      -4.323   1.072  -4.121  0.00  0.00    +0.014 A 
ATOM     14  C   UNL     1      -5.109   1.579  -5.134  0.00  0.00    +0.021 A 
ATOM     15  C   UNL     1      -5.210   0.905  -6.340  0.00  0.00    +0.041 A 
ATOM     16  C   UNL     1      -4.517  -0.278  -6.537  0.00  0.00    +0.021 A 
ATOM     17  C   UNL     1      -3.724  -0.792  -5.533  0.00  0.00    +0.014 A 
ATOM     18  C   UNL     1      -3.619  -0.117  -4.316  0.00  0.00    +0.039 A 
ATOM     19 CL   UNL     1      -6.206   1.546  -7.608  0.00  0.00    -0.084 Cl
ENDBRANCH   8  18
ENDBRANCH   7  11
ENDBRANCH   1   7
BRANCH   2  20
ATOM     20  C   UNL     1       1.260   2.150   0.157  0.00  0.00    +0.119 C 
BRANCH  20  21
ATOM     21  C   UNL     1       0.938   3.630   0.373  0.00  0.00    +0.154 C 
BRANCH  21  22
ATOM     22  N   UNL     1       2.185   4.396   0.441  0.00  0.00    -0.249 N 
ATOM     23  C   UNL     1       2.837   4.501   1.615  0.00  0.00    +0.266 A 
ATOM     24  O   UNL     1       2.390   3.962   2.608  0.00  0.00    -0.266 OA
ATOM     25  C   UNL     1       4.098   5.267   1.694  0.00  0.00    +0.077 A 
ATOM     26  C   UNL     1       4.573   5.860   0.584  0.00  0.00    +0.077 A 
ATOM     27  C   UNL     1       3.822   5.723  -0.682  0.00  0.00    +0.263 A 
ATOM     28  O   UNL     1       4.236   6.252  -1.695  0.00  0.00    -0.266 OA
ATOM     29  N   UNL     1       2.679   5.012  -0.713  0.00  0.00    -0.261 N 
ATOM     30  H   UNL     1       2.191   4.927  -1.547  0.00  0.00    +0.190 HD
ENDBRANCH  21  22
ENDBRANCH  20  21
ENDBRANCH   2  20
TORSDOF 7
