REMARK  Name = ZINC24749180
REMARK  10 active torsions:
REMARK  status: ('A' for Active; 'I' for Inactive)
REMARK    1  A    between atoms: C_1  and  C_2
REMARK    2  A    between atoms: C_2  and  C_3
REMARK    3  A    between atoms: C_3  and  N_4
REMARK    4  A    between atoms: C_7  and  C_14
REMARK    5  A    between atoms: C_9  and  C_11
REMARK    6  A    between atoms: N_16  and  C_17
REMARK    7  A    between atoms: C_17  and  C_19
REMARK    8  A    between atoms: C_17  and  C_29
REMARK    9  A    between atoms: C_29  and  C_30
REMARK   10  A    between atoms: C_29  and  C_31
REMARK                            x       y       z     vdW  Elec       q    Type
REMARK                         _______ _______ _______ _____ _____    ______ ____
ROOT
ATOM      1  N   UNL     1      -7.951  -0.514   5.796  0.00  0.00    -0.278 N 
ATOM      2  C   UNL     1      -7.753  -0.025   4.517  0.00  0.00    +0.151 A 
ATOM      3  C   UNL     1      -6.828  -0.680   3.686  0.00  0.00    +0.094 A 
ATOM      4  C   UNL     1      -6.610  -0.202   2.384  0.00  0.00    +0.054 A 
ATOM      5  C   UNL     1      -7.331   0.922   1.977  0.00  0.00    +0.037 A 
ATOM      6  C   UNL     1      -8.228   1.506   2.857  0.00  0.00    +0.047 A 
ATOM      7  N   UNL     1      -8.411   1.033   4.074  0.00  0.00    -0.233 NA
ATOM      8  C   UNL     1      -6.115  -1.855   4.214  0.00  0.00    +0.264 A 
ATOM      9  O   UNL     1      -5.306  -2.454   3.532  0.00  0.00    -0.267 OA
ATOM     10  N   UNL     1      -6.384  -2.249   5.479  0.00  0.00    -0.274 N 
ATOM     11  H   UNL     1      -5.868  -3.122   5.905  0.00  0.00    +0.173 HD
ATOM     12  C   UNL     1      -7.277  -1.590   6.234  0.00  0.00    +0.331 A 
ATOM     13  O   UNL     1      -7.483  -1.984   7.365  0.00  0.00    -0.246 OA
ENDROOT
BRANCH   4  14
ATOM     14  C   UNL     1      -5.643  -0.864   1.476  0.00  0.00    +0.245 C 
ATOM     15  O   UNL     1      -5.719  -2.060   1.275  0.00  0.00    -0.270 OA
ATOM     16  N   UNL     1      -4.681  -0.139   0.872  0.00  0.00    -0.304 N 
ATOM     17  H   UNL     1      -4.612   0.944   1.054  0.00  0.00    +0.150 HD
BRANCH  16  18
ATOM     18  C   UNL     1      -3.725  -0.793  -0.026  0.00  0.00    +0.106 C 
BRANCH  18  19
ATOM     19  C   UNL     1      -2.454   0.014  -0.080  0.00  0.00    -0.023 A 
ATOM     20  C   UNL     1      -2.513   1.395  -0.112  0.00  0.00    +0.009 A 
ATOM     21  C   UNL     1      -1.349   2.138  -0.166  0.00  0.00    +0.050 A 
ATOM     22  C   UNL     1      -0.117   1.500  -0.181  0.00  0.00    +0.162 A 
ATOM     23  C   UNL     1      -0.058   0.112  -0.146  0.00  0.00    +0.162 A 
ATOM     24  C   UNL     1      -1.230  -0.628  -0.096  0.00  0.00    +0.055 A 
ATOM     25  O   UNL     1       1.140  -0.534  -0.159  0.00  0.00    -0.485 OA
ATOM     26  C   UNL     1       2.276   0.225  -0.588  0.00  0.00    +0.270 C 
ATOM     27  C   UNL     1       2.239   1.585   0.122  0.00  0.00    +0.270 C 
ATOM     28  O   UNL     1       1.020   2.245  -0.235  0.00  0.00    -0.485 OA
ENDBRANCH  18  19
BRANCH  18  29
ATOM     29  C   UNL     1      -4.328  -0.889  -1.429  0.00  0.00    +0.008 C 
ATOM     30  C   UNL     1      -3.330  -1.572  -2.366  0.00  0.00    +0.009 C 
ATOM     31  C   UNL     1      -5.619  -1.708  -1.374  0.00  0.00    +0.009 C 
ENDBRANCH  18  29
ENDBRANCH  16  18
ENDBRANCH   4  14
BRANCH   6  32
ATOM     32  C   UNL     1      -9.010   2.715   2.414  0.00  0.00    +0.038 C 
ATOM     33  C   UNL     1      -8.515   3.460   1.172  0.00  0.00    +0.010 C 
ATOM     34  C   UNL     1      -8.338   4.082   2.559  0.00  0.00    +0.010 C 
ENDBRANCH   6  32
BRANCH   1  35
ATOM     35  C   UNL     1      -8.909   0.149   6.684  0.00  0.00    +0.128 C 
BRANCH  35  37
ATOM     36  C   UNL     1     -11.293   0.215   7.429  0.00  0.00    +0.005 C 
ATOM     37  C   UNL     1     -10.293  -0.478   6.502  0.00  0.00    +0.018 C 
ENDBRANCH  35  37
ENDBRANCH   1  35
TORSDOF 7
