REMARK  Name = ZINC15967694
REMARK  4 active torsions:
REMARK  status: ('A' for Active; 'I' for Inactive)
REMARK    1  A    between atoms: C_1  and  C_2
REMARK    2  A    between atoms: C_13  and  C_16
REMARK    3  A    between atoms: C_16  and  C_17
REMARK    4  A    between atoms: N_29  and  C_32
REMARK                            x       y       z     vdW  Elec       q    Type
REMARK                         _______ _______ _______ _____ _____    ______ ____
ROOT
ATOM      1  C   UNL     1      -0.220   1.511   0.080  0.00  0.00    +0.044 C 
ATOM      2  C   UNL     1      -0.181   0.005   0.062  0.00  0.00    -0.050 A 
ATOM      3  C   UNL     1      -0.213  -0.675  -1.142  0.00  0.00    +0.005 A 
ATOM      4  C   UNL     1      -0.178  -2.054  -1.165  0.00  0.00    +0.024 A 
ATOM      5  C   UNL     1      -0.110  -2.773   0.026  0.00  0.00    +0.039 A 
ATOM      6  C   UNL     1      -0.078  -2.078   1.232  0.00  0.00    +0.004 A 
ATOM      7  C   UNL     1      -0.107  -0.702   1.249  0.00  0.00    +0.011 A 
ATOM      8  C   UNL     1      -0.007  -3.125   2.307  0.00  0.00    +0.136 C 
ATOM      9  C   UNL     1       1.248  -2.962   3.173  0.00  0.00    +0.123 C 
ATOM     10  C   UNL     1       0.792  -3.371   4.601  0.00  0.00    +0.108 C 
ATOM     11  C   UNL     1      -0.691  -3.768   4.446  0.00  0.00    +0.072 C 
ATOM     12  N   UNL     1      -1.152  -3.031   3.232  0.00  0.00    -0.295 NA
ATOM     13  C   UNL     1       0.900  -2.083   5.385  0.00  0.00    +0.232 C 
ATOM     14  O   UNL     1       0.627  -1.952   6.559  0.00  0.00    -0.274 OA
ATOM     15  N   UNL     1       1.345  -1.110   4.581  0.00  0.00    -0.210 N 
ATOM     16  C   UNL     1       1.585  -1.494   3.307  0.00  0.00    +0.233 C 
ATOM     17  O   UNL     1       2.000  -0.786   2.414  0.00  0.00    -0.274 OA
ATOM     18  C   UNL     1      -0.001  -4.439   1.574  0.00  0.00    +0.243 C 
ATOM     19  O   UNL     1       0.051  -5.545   2.070  0.00  0.00    -0.273 OA
ATOM     20  N   UNL     1      -0.064  -4.149   0.260  0.00  0.00    -0.283 N 
ATOM     21  H   UNL     1      -1.369  -2.068   3.442  0.00  0.00    +0.124 HD
ATOM     22  H   UNL     1      -0.077  -4.818  -0.442  0.00  0.00    +0.155 HD
ENDROOT
BRANCH  15  23
ATOM     23  C   UNL     1       1.552   0.204   5.025  0.00  0.00    +0.044 A 
ATOM     24  C   UNL     1       0.471   0.988   5.407  0.00  0.00    +0.024 A 
ATOM     25  C   UNL     1       0.679   2.281   5.843  0.00  0.00    +0.002 A 
ATOM     26  C   UNL     1       1.961   2.797   5.899  0.00  0.00    +0.000 A 
ATOM     27  C   UNL     1       3.039   2.019   5.519  0.00  0.00    +0.002 A 
ATOM     28  C   UNL     1       2.838   0.722   5.088  0.00  0.00    +0.024 A 
ENDBRANCH  15  23
BRANCH  11  29
ATOM     29  C   UNL     1      -1.494  -3.313   5.666  0.00  0.00    +0.056 C 
BRANCH  29  30
ATOM     30  C   UNL     1      -2.910  -3.816   5.551  0.00  0.00    -0.021 A 
ATOM     31  C   UNL     1      -3.958  -3.145   5.049  0.00  0.00    +0.087 A 
ATOM     32  N   UNL     1      -5.083  -3.922   5.109  0.00  0.00    -0.360 N 
ATOM     33  H   UNL     1      -5.963  -3.652   4.804  0.00  0.00    +0.165 HD
ATOM     34  C   UNL     1      -4.778  -5.144   5.666  0.00  0.00    +0.047 A 
ATOM     35  C   UNL     1      -3.402  -5.133   5.962  0.00  0.00    +0.003 A 
ATOM     36  C   UNL     1      -2.805  -6.256   6.537  0.00  0.00    +0.010 A 
ATOM     37  C   UNL     1      -3.561  -7.363   6.807  0.00  0.00    +0.001 A 
ATOM     38  C   UNL     1      -4.917  -7.380   6.513  0.00  0.00    +0.002 A 
ATOM     39  C   UNL     1      -5.528  -6.279   5.954  0.00  0.00    +0.026 A 
ENDBRANCH  29  30
ENDBRANCH  11  29
TORSDOF 3
