REMARK  Name = ZINC65428926
REMARK  4 active torsions:
REMARK  status: ('A' for Active; 'I' for Inactive)
REMARK    1  A    between atoms: C_2  and  C_7
REMARK    2  A    between atoms: C_7  and  N_8
REMARK    3  A    between atoms: C_9  and  C_11
REMARK    4  A    between atoms: N_18  and  C_20
REMARK                            x       y       z     vdW  Elec       q    Type
REMARK                         _______ _______ _______ _____ _____    ______ ____
ROOT
ATOM      1  C   UNL     1       2.887   5.540   3.040  0.00  0.00    +0.047 C 
ATOM      2  C   UNL     1       3.986   4.675   3.690  0.00  0.00    +0.095 C 
ATOM      3  N   UNL     1       5.229   5.476   3.550  0.00  0.00    -0.315 NA
ATOM      4  C   UNL     1       4.795   6.871   3.818  0.00  0.00    +0.083 C 
ATOM      5  C   UNL     1       3.422   6.995   3.124  0.00  0.00    +0.001 C 
ATOM      6  C   UNL     1       2.440   7.725   4.064  0.00  0.00    -0.073 C 
ATOM      7  N   UNL     1       1.180   6.944   3.973  0.00  0.00    +0.383 N 
ATOM      8  C   UNL     1       1.631   5.529   3.936  0.00  0.00    -0.061 C 
ATOM      9  H   UNL     1       5.927   5.181   4.216  0.00  0.00    +0.122 HD
ATOM     10  H   UNL     1       0.680   7.177   3.128  0.00  0.00    -0.081 HD
ENDROOT
BRANCH   7  11
ATOM     11  C   UNL     1       0.340   7.185   5.153  0.00  0.00    -0.069 C 
ATOM     12  C   UNL     1      -0.981   6.396   5.032  0.00  0.00    -0.015 C 
ATOM     13  C   UNL     1      -2.045   7.341   5.643  0.00  0.00    -0.002 C 
ATOM     14  C   UNL     1      -1.582   8.737   5.156  0.00  0.00    -0.002 C 
ATOM     15  C   UNL     1      -0.043   8.673   5.232  0.00  0.00    -0.015 C 
ENDBRANCH   7  11
BRANCH   1  17
ATOM     16  N   UNL     1       2.111   3.880   1.378  0.00  0.00    -0.309 N 
ATOM     17  C   UNL     1       2.586   5.117   1.625  0.00  0.00    +0.219 C 
ATOM     18  O   UNL     1       2.770   5.890   0.709  0.00  0.00    -0.275 OA
ATOM     19  H   UNL     1       1.964   3.262   2.111  0.00  0.00    +0.149 HD
BRANCH  16  20
ATOM     20  C   UNL     1       1.819   3.469   0.003  0.00  0.00    +0.160 C 
BRANCH  20  22
ATOM     21  C   UNL     1      -0.022   1.781   0.012  0.00  0.00    +0.073 A 
ATOM     22  C   UNL     1       1.305   2.052   0.001  0.00  0.00    +0.068 A 
ATOM     23  N   UNL     1       2.129   1.020  -0.013  0.00  0.00    -0.229 NA
ATOM     24  C   UNL     1       1.672  -0.214  -0.015  0.00  0.00    +0.156 A 
ATOM     25  S   UNL     1       0.002  -0.004   0.002  0.00  0.00    -0.061 S 
ATOM     26  N   UNL     1       2.390  -1.400  -0.029  0.00  0.00    -0.338 N 
ATOM     27  H   UNL     1       3.360  -1.379  -0.039  0.00  0.00    +0.144 HD
ATOM     28  H   UNL     1       1.924  -2.250  -0.029  0.00  0.00    +0.144 HD
ENDBRANCH  20  22
ENDBRANCH  16  20
ENDBRANCH   1  17
TORSDOF 4
