REMARK  Name = ZINC08757099
REMARK  7 active torsions:
REMARK  status: ('A' for Active; 'I' for Inactive)
REMARK    1  A    between atoms: C_1  and  C_2
REMARK    2  A    between atoms: C_2  and  C_4
REMARK    3  A    between atoms: C_2  and  N_14
REMARK    4  A    between atoms: C_15  and  C_17
REMARK    5  A    between atoms: C_17  and  S_18
REMARK    6  A    between atoms: S_18  and  C_19
REMARK    7  A    between atoms: C_23  and  C_25
REMARK                            x       y       z     vdW  Elec       q    Type
REMARK                         _______ _______ _______ _____ _____    ______ ____
ROOT
ATOM      1  N   UNL     1       2.103   7.945   0.911  0.00  0.00    -0.308 N 
ATOM      2  C   UNL     1       1.992   9.163   1.478  0.00  0.00    +0.224 C 
ATOM      3  O   UNL     1       1.014   9.846   1.259  0.00  0.00    -0.275 OA
ATOM      4  H   UNL     1       2.885   7.399   1.086  0.00  0.00    +0.149 HD
ENDROOT
BRANCH   1   6
ATOM      5  C   UNL     1       1.274   7.968  -1.390  0.00  0.00    +0.033 C 
ATOM      6  C   UNL     1       1.044   7.447   0.030  0.00  0.00    +0.100 C 
BRANCH   6   7
ATOM      7  C   UNL     1       1.064   5.940   0.022  0.00  0.00    -0.027 A 
ATOM      8  C   UNL     1       2.286   5.270   0.007  0.00  0.00    +0.006 A 
ATOM      9  C   UNL     1       2.340   3.910   0.001  0.00  0.00    +0.009 A 
ATOM     10  C   UNL     1       1.147   3.167   0.008  0.00  0.00    -0.018 A 
ATOM     11  C   UNL     1       1.163   1.762   0.000  0.00  0.00    +0.008 A 
ATOM     12  C   UNL     1      -0.013   1.076   0.008  0.00  0.00    +0.001 A 
ATOM     13  C   UNL     1      -1.235   1.746   0.017  0.00  0.00    +0.001 A 
ATOM     14  C   UNL     1      -1.288   3.106   0.031  0.00  0.00    +0.008 A 
ATOM     15  C   UNL     1      -0.096   3.849   0.023  0.00  0.00    -0.018 A 
ATOM     16  C   UNL     1      -0.111   5.254   0.030  0.00  0.00    +0.014 A 
ENDBRANCH   6   7
ENDBRANCH   1   6
BRANCH   2  17
ATOM     17  C   UNL     1       3.081   9.675   2.384  0.00  0.00    +0.173 C 
BRANCH  17  18
ATOM     18  S   UNL     1       2.642  11.326   2.983  0.00  0.00    -0.077 S 
BRANCH  18  19
ATOM     19  C   UNL     1       4.048  11.671   3.987  0.00  0.00    +0.185 A 
ATOM     20  N   UNL     1       4.259  12.800   4.698  0.00  0.00    -0.254 N 
ATOM     21  H   UNL     1       3.673  13.570   4.755  0.00  0.00    +0.191 HD
ATOM     22  N   UNL     1       5.498  12.636   5.340  0.00  0.00    -0.157 NA
ATOM     23  C   UNL     1       5.953  11.461   4.996  0.00  0.00    +0.155 A 
ATOM     24  N   UNL     1       5.076  10.873   4.183  0.00  0.00    -0.205 NA
BRANCH  23  25
ATOM     25  C   UNL     1       7.260  10.864   5.452  0.00  0.00    +0.059 C 
ATOM     26  C   UNL     1       7.304  10.802   6.992  0.00  0.00    +0.011 C 
ATOM     27  C   UNL     1       8.777  11.125   7.343  0.00  0.00    +0.001 C 
ATOM     28  C   UNL     1       9.146  12.213   6.304  0.00  0.00    +0.001 C 
ATOM     29  C   UNL     1       8.431  11.761   5.014  0.00  0.00    +0.011 C 
ENDBRANCH  23  25
ENDBRANCH  18  19
ENDBRANCH  17  18
ENDBRANCH   2  17
TORSDOF 6
