REMARK  Name = ZINC06755137
REMARK  3 active torsions:
REMARK  status: ('A' for Active; 'I' for Inactive)
REMARK    1  A    between atoms: C_4  and  C_7
REMARK    2  A    between atoms: C_7  and  C_8
REMARK    3  A    between atoms: C_13  and  C_18
REMARK                            x       y       z     vdW  Elec       q    Type
REMARK                         _______ _______ _______ _____ _____    ______ ____
ROOT
ATOM      1  C   UNL     1       2.949   4.076  -1.428  0.00  0.00    +0.107 A 
ATOM      2  N   UNL     1       2.363   3.719  -2.532  0.00  0.00    -0.159 NA
ATOM      3  N   UNL     1       2.848   4.114  -3.773  0.00  0.00    -0.168 N 
ATOM      4  C   UNL     1       2.338   3.822  -5.007  0.00  0.00    +0.301 A 
ATOM      5  O   UNL     1       1.334   3.139  -5.116  0.00  0.00    -0.263 OA
ATOM      6  C   UNL     1       2.992   4.323  -6.152  0.00  0.00    +0.159 A 
ATOM      7  N   UNL     1       4.082   5.065  -6.027  0.00  0.00    -0.141 NA
ATOM      8  N   UNL     1       4.553   5.333  -4.857  0.00  0.00    -0.121 NA
ATOM      9  C   UNL     1       3.977   4.888  -3.767  0.00  0.00    +0.220 A 
ATOM     10  S   UNL     1       4.323   5.045  -2.029  0.00  0.00    -0.031 S 
ENDROOT
BRANCH   6  11
ATOM     11  C   UNL     1       2.457   4.019  -7.498  0.00  0.00    +0.008 A 
ATOM     12  C   UNL     1       1.792   2.814  -7.732  0.00  0.00    +0.010 A 
ATOM     13  C   UNL     1       1.291   2.539  -8.988  0.00  0.00    +0.001 A 
ATOM     14  C   UNL     1       1.456   3.449 -10.017  0.00  0.00    +0.000 A 
ATOM     15  C   UNL     1       2.119   4.643  -9.793  0.00  0.00    +0.001 A 
ATOM     16  C   UNL     1       2.620   4.932  -8.540  0.00  0.00    +0.010 A 
ENDBRANCH   6  11
BRANCH   1  17
ATOM     17  C   UNL     1       2.570   3.750  -0.006  0.00  0.00    +0.100 C 
BRANCH  17  21
ATOM     18  C   UNL     1      -0.953   1.334   0.006  0.00  0.00    +0.000 A 
ATOM     19  C   UNL     1       0.294   0.738  -0.037  0.00  0.00    +0.000 A 
ATOM     20  C   UNL     1       1.434   1.520  -0.043  0.00  0.00    +0.004 A 
ATOM     21  C   UNL     1       1.328   2.898   0.000  0.00  0.00    -0.041 A 
ATOM     22  C   UNL     1       0.081   3.493   0.049  0.00  0.00    +0.004 A 
ATOM     23  C   UNL     1      -1.059   2.712   0.054  0.00  0.00    +0.000 A 
ENDBRANCH  17  21
ENDBRANCH   1  17
TORSDOF 3
