REMARK  Name = ZINC03267293
REMARK  8 active torsions:
REMARK  status: ('A' for Active; 'I' for Inactive)
REMARK    1  A    between atoms: C_1  and  C_2
REMARK    2  A    between atoms: C_3  and  C_34
REMARK    3  A    between atoms: C_5  and  N_9
REMARK    4  A    between atoms: C_6  and  C_7
REMARK    5  A    between atoms: C_10  and  C_12
REMARK    6  A    between atoms: C_12  and  S_13
REMARK    7  A    between atoms: S_13  and  C_14
REMARK    8  A    between atoms: N_27  and  C_28
REMARK                            x       y       z     vdW  Elec       q    Type
REMARK                         _______ _______ _______ _____ _____    ______ ____
ROOT
ATOM      1  C   UNL     1      -0.033  -4.765  -0.519  0.00  0.00    +0.178 A 
ATOM      2  N   UNL     1      -0.942  -3.823  -0.309  0.00  0.00    -0.215 NA
ATOM      3  C   UNL     1      -0.503  -2.627   0.066  0.00  0.00    +0.117 A 
ATOM      4  C   UNL     1       0.861  -2.309   0.253  0.00  0.00    +0.076 A 
ATOM      5  C   UNL     1       1.149  -0.945   0.665  0.00  0.00    -0.023 A 
ATOM      6  C   UNL     1       0.088  -0.124   0.829  0.00  0.00    -0.004 A 
ATOM      7  S   UNL     1      -1.333  -1.116   0.445  0.00  0.00    -0.073 S 
ATOM      8  C   UNL     1       0.110   1.315   1.246  0.00  0.00    +0.043 C 
ATOM      9  C   UNL     1       1.496   1.634   1.822  0.00  0.00    +0.005 C 
ATOM     10  C   UNL     1       2.561   1.091   0.864  0.00  0.00    +0.005 C 
ATOM     11  C   UNL     1       2.568  -0.437   0.908  0.00  0.00    +0.037 C 
ATOM     12  C   UNL     1       1.815  -3.352   0.018  0.00  0.00    +0.268 A 
ATOM     13  O   UNL     1       3.014  -3.174   0.152  0.00  0.00    -0.267 OA
ATOM     14  N   UNL     1       1.304  -4.546  -0.363  0.00  0.00    -0.255 N 
ENDROOT
BRANCH  14  15
ATOM     15  C   UNL     1       2.189  -5.605  -0.607  0.00  0.00    +0.052 A 
ATOM     16  C   UNL     1       2.705  -5.800  -1.881  0.00  0.00    +0.026 A 
ATOM     17  C   UNL     1       3.581  -6.841  -2.118  0.00  0.00    +0.002 A 
ATOM     18  C   UNL     1       3.934  -7.697  -1.091  0.00  0.00    +0.000 A 
ATOM     19  C   UNL     1       3.417  -7.508   0.178  0.00  0.00    +0.002 A 
ATOM     20  C   UNL     1       2.546  -6.465   0.422  0.00  0.00    +0.026 A 
ENDBRANCH  14  15
BRANCH   1  21
ATOM     21  S   UNL     1      -0.574  -6.366  -1.019  0.00  0.00    -0.078 S 
BRANCH  21  22
ATOM     22  C   UNL     1      -2.363  -6.092  -1.064  0.00  0.00    +0.173 C 
BRANCH  22  24
ATOM     23  N   UNL     1      -4.399  -7.398  -1.583  0.00  0.00    -0.278 N 
ATOM     24  C   UNL     1      -3.055  -7.365  -1.479  0.00  0.00    +0.228 C 
ATOM     25  O   UNL     1      -2.404  -8.359  -1.721  0.00  0.00    -0.275 OA
ATOM     26  H   UNL     1      -4.920  -6.603  -1.389  0.00  0.00    +0.155 HD
BRANCH  23  31
ATOM     27  C   UNL     1      -8.236 -10.489  -2.742  0.00  0.00    +0.046 C 
ATOM     28  C   UNL     1      -6.788 -10.126  -2.537  0.00  0.00    -0.021 A 
ATOM     29  C   UNL     1      -5.805 -11.025  -2.728  0.00  0.00    -0.007 A 
ATOM     30  S   UNL     1      -4.328 -10.099  -2.365  0.00  0.00    -0.077 S 
ATOM     31  C   UNL     1      -5.036  -8.570  -1.965  0.00  0.00    +0.090 A 
ATOM     32  C   UNL     1      -6.397  -8.799  -2.126  0.00  0.00    +0.083 A 
ATOM     33  C   UNL     1      -5.925 -12.466  -3.153  0.00  0.00    +0.052 C 
BRANCH  32  34
ATOM     34  C   UNL     1      -7.364  -7.769  -1.895  0.00  0.00    +0.102 C 
ATOM     35  N   UNL     1      -8.131  -6.951  -1.711  0.00  0.00    -0.191 NA
ENDBRANCH  32  34
ENDBRANCH  23  31
ENDBRANCH  22  24
ENDBRANCH  21  22
ENDBRANCH   1  21
TORSDOF 6
