REMARK  Name = ZINC36558864
REMARK  9 active torsions:
REMARK  status: ('A' for Active; 'I' for Inactive)
REMARK    1  A    between atoms: C_1  and  C_2
REMARK    2  A    between atoms: C_5  and  C_7
REMARK    3  A    between atoms: C_7  and  N_8
REMARK    4  A    between atoms: N_8  and  C_9
REMARK    5  A    between atoms: C_9  and  C_11
REMARK    6  A    between atoms: C_9  and  C_20
REMARK    7  A    between atoms: C_14  and  N_17
REMARK    8  A    between atoms: N_22  and  C_23
REMARK    9  A    between atoms: C_29  and  C_31
REMARK                            x       y       z     vdW  Elec       q    Type
REMARK                         _______ _______ _______ _____ _____    ______ ____
ROOT
ATOM      1  C   UNL     1       3.327  -2.640  -2.650  0.00  0.00    +0.193 C 
ENDROOT
BRANCH   1   2
ATOM      2  C   UNL     1       2.879  -1.301  -3.179  0.00  0.00    -0.018 A 
ATOM      3  C   UNL     1       2.442  -0.324  -2.305  0.00  0.00    +0.008 A 
ATOM      4  C   UNL     1       2.031   0.903  -2.790  0.00  0.00    +0.033 A 
ATOM      5  C   UNL     1       2.057   1.154  -4.149  0.00  0.00    +0.126 A 
ATOM      6  C   UNL     1       2.495   0.177  -5.023  0.00  0.00    +0.033 A 
ATOM      7  C   UNL     1       2.910  -1.049  -4.538  0.00  0.00    +0.008 A 
BRANCH   5   8
ATOM      8  N   UNL     1       1.616   2.468  -4.668  0.00  0.00    +0.056 N 
ATOM      9  O   UNL     1       1.233   3.322  -3.904  0.00  0.00    -0.126 OA
ATOM     10  O   UNL     1       1.639   2.687  -5.857  0.00  0.00    -0.126 OA
ENDBRANCH   5   8
ENDBRANCH   1   2
BRANCH   1  11
ATOM     11  C   UNL     1       4.830  -2.727  -2.715  0.00  0.00    +0.238 C 
ATOM     12  O   UNL     1       5.440  -3.328  -1.856  0.00  0.00    -0.273 OA
ATOM     13  N   UNL     1       5.497  -2.138  -3.727  0.00  0.00    -0.311 N 
ATOM     14  H   UNL     1       5.010  -1.657  -4.414  0.00  0.00    +0.149 HD
BRANCH  13  15
ATOM     15  C   UNL     1       6.958  -2.223  -3.789  0.00  0.00    +0.073 C 
ATOM     16  C   UNL     1       7.571  -1.112  -2.933  0.00  0.00    +0.022 C 
ATOM     17  C   UNL     1       9.097  -1.201  -2.998  0.00  0.00    +0.002 C 
ATOM     18  C   UNL     1       9.556  -1.039  -4.449  0.00  0.00    +0.000 C 
ATOM     19  C   UNL     1       8.943  -2.149  -5.305  0.00  0.00    +0.002 C 
ATOM     20  C   UNL     1       7.417  -2.060  -5.239  0.00  0.00    +0.022 C 
ENDBRANCH  13  15
ENDBRANCH   1  11
BRANCH   1  21
ATOM     21  N   UNL     1       2.889  -2.788  -1.261  0.00  0.00    -0.275 N 
ATOM     22  C   UNL     1       1.675  -2.338  -0.886  0.00  0.00    +0.248 C 
ATOM     23  O   UNL     1       1.368  -2.324   0.290  0.00  0.00    -0.270 OA
BRANCH  22  24
ATOM     24  C   UNL     1       0.716  -1.861  -1.905  0.00  0.00    +0.037 A 
ATOM     25  C   UNL     1       0.892  -2.204  -3.247  0.00  0.00    +0.014 A 
ATOM     26  C   UNL     1      -0.006  -1.756  -4.193  0.00  0.00    +0.021 A 
ATOM     27  C   UNL     1      -1.080  -0.968  -3.814  0.00  0.00    +0.041 A 
ATOM     28  C   UNL     1      -1.259  -0.624  -2.484  0.00  0.00    +0.021 A 
ATOM     29  C   UNL     1      -0.371  -1.071  -1.528  0.00  0.00    +0.014 A 
ATOM     30 CL   UNL     1      -2.205  -0.407  -5.011  0.00  0.00    -0.084 Cl
ENDBRANCH  22  24
BRANCH  21  31
ATOM     31  C   UNL     1       3.769  -3.424  -0.278  0.00  0.00    +0.183 C 
BRANCH  31  36
ATOM     32  C   UNL     1       2.240  -8.222   0.004  0.00  0.00    +0.086 C 
ATOM     33  C   UNL     1       3.061  -7.006  -0.337  0.00  0.00    +0.102 A 
ATOM     34  C   UNL     1       4.204  -7.003  -1.046  0.00  0.00    +0.045 A 
ATOM     35  C   UNL     1       4.633  -5.658  -1.125  0.00  0.00    +0.046 A 
ATOM     36  C   UNL     1       3.726  -4.920  -0.460  0.00  0.00    +0.122 A 
ATOM     37  O   UNL     1       2.773  -5.741   0.010  0.00  0.00    -0.463 OA
ENDBRANCH  31  36
ENDBRANCH  21  31
ENDBRANCH   1  21
TORSDOF 8
