REMARK  Name = ZINC41421409
REMARK  3 active torsions:
REMARK  status: ('A' for Active; 'I' for Inactive)
REMARK    1  A    between atoms: C_1  and  C_2
REMARK    2  A    between atoms: C_7  and  C_10
REMARK    3  A    between atoms: C_16  and  C_18
REMARK                            x       y       z     vdW  Elec       q    Type
REMARK                         _______ _______ _______ _____ _____    ______ ____
ROOT
ATOM      1  C   UNL     1      -0.019   1.526   0.010  0.00  0.00    +0.039 C 
ATOM      2  C   UNL     1       0.002  -0.004   0.002  0.00  0.00    +0.133 C 
ATOM      3  C   UNL     1      -1.436  -0.536   0.015  0.00  0.00    +0.139 C 
ATOM      4  N   UNL     1      -2.041  -0.205   1.315  0.00  0.00    -0.294 N 
ATOM      5  C   UNL     1      -1.296  -0.558   2.535  0.00  0.00    +0.144 C 
ATOM      6  C   UNL     1       0.135  -0.025   2.398  0.00  0.00    +0.166 C 
ATOM      7  O   UNL     1       0.691  -0.479   1.161  0.00  0.00    -0.366 OA
ATOM      8  C   UNL     1      -3.241   0.404   1.387  0.00  0.00    +0.245 C 
ATOM      9  O   UNL     1      -3.723   0.668   2.468  0.00  0.00    -0.273 OA
ENDROOT
BRANCH   6  10
ATOM     10  C   UNL     1       0.972  -0.533   3.544  0.00  0.00    -0.017 A 
ATOM     11  C   UNL     1       1.574  -1.775   3.462  0.00  0.00    +0.006 A 
ATOM     12  C   UNL     1       2.342  -2.240   4.513  0.00  0.00    +0.000 A 
ATOM     13  C   UNL     1       2.509  -1.465   5.645  0.00  0.00    +0.000 A 
ATOM     14  C   UNL     1       1.907  -0.223   5.726  0.00  0.00    +0.000 A 
ATOM     15  C   UNL     1       1.143   0.245   4.674  0.00  0.00    +0.006 A 
ENDBRANCH   6  10
BRANCH   8  16
ATOM     16  C   UNL     1      -3.984   0.755   0.124  0.00  0.00    +0.204 C 
ATOM     17  C   UNL     1      -3.194   1.818  -0.669  0.00  0.00    +0.043 C 
ATOM     18  C   UNL     1      -4.325   2.740  -1.202  0.00  0.00    +0.031 C 
ATOM     19  C   UNL     1      -5.338   2.670  -0.031  0.00  0.00    +0.161 C 
ATOM     20  O   UNL     1      -5.261   1.317   0.452  0.00  0.00    -0.367 OA
ENDBRANCH   8  16
TORSDOF 2
