REMARK  Name = ZINC02726936
REMARK  10 active torsions:
REMARK  status: ('A' for Active; 'I' for Inactive)
REMARK    1  A    between atoms: C_1  and  C_2
REMARK    2  A    between atoms: C_2  and  O_3
REMARK    3  A    between atoms: O_3  and  C_4
REMARK    4  A    between atoms: C_4  and  C_6
REMARK    5  A    between atoms: C_7  and  C_33
REMARK    6  A    between atoms: C_11  and  C_13
REMARK    7  A    between atoms: C_15  and  C_19
REMARK    8  A    between atoms: C_16  and  C_18
REMARK    9  A    between atoms: C_19  and  O_20
REMARK   10  A    between atoms: O_20  and  C_21
REMARK                            x       y       z     vdW  Elec       q    Type
REMARK                         _______ _______ _______ _____ _____    ______ ____
ROOT
ATOM      1  C   UNL     1       0.124  -0.676   1.160  0.00  0.00    +0.066 C 
ATOM      2  C   UNL     1      -0.139  -0.014   0.020  0.00  0.00    +0.016 C 
ATOM      3  N   UNL     1      -0.253  -0.690  -1.163  0.00  0.00    -0.321 N 
ATOM      4  C   UNL     1      -0.488  -2.037  -1.180  0.00  0.00    +0.015 C 
ATOM      5  C   UNL     1      -0.244  -2.789  -0.086  0.00  0.00    +0.024 C 
ATOM      6  C   UNL     1       0.313  -2.165   1.169  0.00  0.00    +0.099 C 
ATOM      7  C   UNL     1      -0.502  -4.171  -0.083  0.00  0.00    +0.162 C 
ATOM      8  O   UNL     1      -0.262  -4.821   0.915  0.00  0.00    -0.292 OA
ATOM      9  C   UNL     1      -1.070  -4.860  -1.294  0.00  0.00    +0.080 C 
ATOM     10  C   UNL     1      -1.913  -3.857  -2.089  0.00  0.00    +0.014 C 
ATOM     11  C   UNL     1      -1.033  -2.656  -2.443  0.00  0.00    +0.051 C 
ATOM     12  C   UNL     1      -0.316   1.482   0.047  0.00  0.00    +0.061 C 
ATOM     13  H   UNL     1      -0.156  -0.149  -2.116  0.00  0.00    +0.152 HD
ENDROOT
BRANCH   6  14
ATOM     14  C   UNL     1       1.784  -2.477   1.266  0.00  0.00    +0.003 A 
ATOM     15  C   UNL     1       2.448  -3.170   2.223  0.00  0.00    +0.019 A 
ATOM     16  C   UNL     1       3.816  -3.334   2.104  0.00  0.00    -0.000 A 
ATOM     17  C   UNL     1       4.452  -2.797   1.034  0.00  0.00    -0.007 A 
ATOM     18  S   UNL     1       3.103  -2.035   0.147  0.00  0.00    -0.097 S 
ATOM     19  C   UNL     1       5.917  -2.837   0.683  0.00  0.00    +0.052 C 
BRANCH  16  20
ATOM     20  C   UNL     1       4.588  -4.098   3.148  0.00  0.00    +0.265 C 
BRANCH  20  21
ATOM     21  O   UNL     1       3.692  -4.557   4.162  0.00  0.00    -0.487 OA
BRANCH  21  22
ATOM     22  C   UNL     1       4.231  -5.270   5.186  0.00  0.00    +0.121 A 
ATOM     23  C   UNL     1       5.595  -5.526   5.212  0.00  0.00    +0.047 A 
ATOM     24  C   UNL     1       6.142  -6.246   6.256  0.00  0.00    +0.019 A 
ATOM     25  C   UNL     1       5.330  -6.720   7.271  0.00  0.00    +0.018 A 
ATOM     26  C   UNL     1       3.970  -6.470   7.245  0.00  0.00    +0.019 A 
ATOM     27  C   UNL     1       3.419  -5.746   6.205  0.00  0.00    +0.047 A 
ATOM     28 BR   UNL     1       6.081  -7.712   8.695  0.00  0.00    -0.050 Br
ENDBRANCH  21  22
ENDBRANCH  20  21
ENDBRANCH  16  20
ENDBRANCH   6  14
BRANCH   1  29
ATOM     29  C   UNL     1       0.225   0.044   2.373  0.00  0.00    +0.338 C 
ATOM     30  O   UNL     1      -0.694   0.025   3.170  0.00  0.00    -0.245 OA
BRANCH  29  31
ATOM     31  O   UNL     1       1.341   0.751   2.646  0.00  0.00    -0.462 OA
BRANCH  31  33
ATOM     32  C   UNL     1       2.708   2.193   4.022  0.00  0.00    +0.048 C 
ATOM     33  C   UNL     1       1.375   1.455   3.890  0.00  0.00    +0.229 C 
ENDBRANCH  31  33
ENDBRANCH  29  31
ENDBRANCH   1  29
TORSDOF 7
