REMARK  Name = ZINC39325394
REMARK  11 active torsions:
REMARK  status: ('A' for Active; 'I' for Inactive)
REMARK    1  A    between atoms: C_1  and  C_2
REMARK    2  A    between atoms: C_2  and  O_3
REMARK    3  A    between atoms: O_3  and  C_4
REMARK    4  A    between atoms: C_11  and  C_16
REMARK    5  A    between atoms: C_16  and  N_17
REMARK    6  A    between atoms: N_17  and  C_18
REMARK    7  A    between atoms: N_17  and  S_27
REMARK    8  A    between atoms: C_18  and  C_19
REMARK    9  A    between atoms: C_19  and  C_20
REMARK   10  A    between atoms: C_25  and  C_26
REMARK   11  A    between atoms: S_27  and  C_30
REMARK                            x       y       z     vdW  Elec       q    Type
REMARK                         _______ _______ _______ _____ _____    ______ ____
ROOT
ATOM      1  N   UNL     1       3.845  -7.621   4.233  0.00  0.00    -0.175 NA
ENDROOT
BRANCH   1   2
ATOM      2  S   UNL     1       3.899  -7.922   5.860  0.00  0.00    +0.061 S 
ATOM      3  O   UNL     1       4.608  -9.143   6.024  0.00  0.00    -0.153 OA
ATOM      4  O   UNL     1       4.310  -6.713   6.483  0.00  0.00    -0.153 OA
BRANCH   2   5
ATOM      5  C   UNL     1       2.246  -8.225   6.389  0.00  0.00    +0.106 A 
ATOM      6  C   UNL     1       1.453  -7.174   6.813  0.00  0.00    +0.031 A 
ATOM      7  C   UNL     1       0.156  -7.410   7.228  0.00  0.00    +0.040 A 
ATOM      8  C   UNL     1      -0.349  -8.699   7.220  0.00  0.00    +0.124 A 
ATOM      9  C   UNL     1       0.446  -9.750   6.796  0.00  0.00    +0.040 A 
ATOM     10  C   UNL     1       1.741  -9.511   6.376  0.00  0.00    +0.031 A 
ATOM     11  F   UNL     1      -1.617  -8.931   7.625  0.00  0.00    -0.205 F 
ENDBRANCH   2   5
ENDBRANCH   1   2
BRANCH   1  12
ATOM     12  C   UNL     1       3.805  -6.240   3.744  0.00  0.00    +0.126 C 
BRANCH  12  20
ATOM     13  C   UNL     1       0.967  -1.863   1.125  0.00  0.00    +0.121 A 
ATOM     14  C   UNL     1       0.266  -2.749   0.299  0.00  0.00    +0.047 A 
ATOM     15  C   UNL     1       0.249  -4.090   0.513  0.00  0.00    +0.027 A 
ATOM     16  C   UNL     1       0.951  -4.651   1.597  0.00  0.00    +0.041 A 
ATOM     17  N   UNL     1       0.925  -5.969   1.795  0.00  0.00    -0.284 N 
ATOM     18  C   UNL     1       1.561  -6.562   2.792  0.00  0.00    +0.225 C 
ATOM     19  O   UNL     1       1.501  -7.770   2.921  0.00  0.00    -0.275 OA
ATOM     20  C   UNL     1       2.362  -5.732   3.769  0.00  0.00    +0.114 C 
ATOM     21  C   UNL     1       2.394  -4.232   3.549  0.00  0.00    -0.003 C 
ATOM     22  C   UNL     1       1.698  -3.742   2.484  0.00  0.00    -0.004 A 
ATOM     23  C   UNL     1       1.681  -2.308   2.195  0.00  0.00    +0.055 A 
ATOM     24  H   UNL     1       0.417  -6.519   1.179  0.00  0.00    +0.155 HD
BRANCH  13  25
ATOM     25  O   UNL     1       0.939  -0.532   0.849  0.00  0.00    -0.492 OA
BRANCH  25  27
ATOM     26  C   UNL     1       0.261   1.400  -0.435  0.00  0.00    +0.048 C 
ATOM     27  C   UNL     1       0.174  -0.120  -0.286  0.00  0.00    +0.225 C 
ENDBRANCH  25  27
ENDBRANCH  13  25
ENDBRANCH  12  20
ENDBRANCH   1  12
BRANCH   1  28
ATOM     28  C   UNL     1       3.836  -8.735   3.281  0.00  0.00    +0.114 C 
BRANCH  28  29
ATOM     29  C   UNL     1       5.270  -9.044   2.846  0.00  0.00    +0.052 C 
BRANCH  29  30
ATOM     30  C   UNL     1       5.262 -10.191   1.867  0.00  0.00    -0.043 A 
ATOM     31  C   UNL     1       5.464 -11.483   2.315  0.00  0.00    +0.004 A 
ATOM     32  C   UNL     1       5.456 -12.534   1.417  0.00  0.00    +0.000 A 
ATOM     33  C   UNL     1       5.246 -12.293   0.072  0.00  0.00    +0.000 A 
ATOM     34  C   UNL     1       5.043 -11.001  -0.375  0.00  0.00    +0.003 A 
ATOM     35  C   UNL     1       5.046  -9.950   0.523  0.00  0.00    -0.047 A 
ATOM     36  C   UNL     1       4.819  -8.542   0.036  0.00  0.00    +0.044 C 
ENDBRANCH  29  30
ENDBRANCH  28  29
ENDBRANCH   1  28
TORSDOF 9
