REMARK  Name = ZINC40530123
REMARK  13 active torsions:
REMARK  status: ('A' for Active; 'I' for Inactive)
REMARK    1  A    between atoms: C_1  and  C_2
REMARK    2  A    between atoms: C_2  and  C_3
REMARK    3  A    between atoms: C_3  and  C_4
REMARK    4  A    between atoms: C_4  and  C_5
REMARK    5  A    between atoms: C_5  and  O_6
REMARK    6  A    between atoms: O_6  and  C_7
REMARK    7  A    between atoms: C_11  and  C_13
REMARK    8  A    between atoms: C_18  and  O_27
REMARK    9  A    between atoms: C_22  and  N_26
REMARK   10  A    between atoms: C_23  and  C_24
REMARK   11  A    between atoms: O_27  and  C_28
REMARK   12  A    between atoms: C_28  and  C_30
REMARK   13  A    between atoms: C_30  and  C_31
REMARK                            x       y       z     vdW  Elec       q    Type
REMARK                         _______ _______ _______ _____ _____    ______ ____
ROOT
ATOM      1  C   UNL     1      -5.410  -8.224   0.057  0.00  0.00    +0.098 C 
ATOM      2  C   UNL     1      -6.131  -8.684  -1.182  0.00  0.00    +0.008 A 
ATOM      3  C   UNL     1      -5.508  -8.573  -2.413  0.00  0.00    +0.012 A 
ATOM      4  C   UNL     1      -6.154  -8.989  -3.560  0.00  0.00    +0.047 A 
ATOM      5  C   UNL     1      -7.433  -9.523  -3.481  0.00  0.00    +0.135 A 
ATOM      6  C   UNL     1      -8.059  -9.637  -2.251  0.00  0.00    +0.093 A 
ATOM      7  C   UNL     1      -7.408  -9.216  -1.098  0.00  0.00    +0.138 A 
ATOM      8  O   UNL     1      -8.035  -9.334   0.099  0.00  0.00    -0.441 OA
ATOM      9  C   UNL     1      -7.319  -9.309   1.235  0.00  0.00    +0.199 C 
ATOM     10  C   UNL     1      -6.070  -8.795   1.281  0.00  0.00    +0.098 C 
ENDROOT
BRANCH   1  15
ATOM     11  C   UNL     1      -4.303  -4.614   0.195  0.00  0.00    +0.121 A 
ATOM     12  C   UNL     1      -5.523  -3.955   0.254  0.00  0.00    +0.045 A 
ATOM     13  C   UNL     1      -6.699  -4.679   0.250  0.00  0.00    +0.004 A 
ATOM     14  C   UNL     1      -6.661  -6.060   0.186  0.00  0.00    +0.005 A 
ATOM     15  C   UNL     1      -5.447  -6.719   0.127  0.00  0.00    -0.031 A 
ATOM     16  C   UNL     1      -4.268  -5.999   0.125  0.00  0.00    +0.050 A 
BRANCH  11  17
ATOM     17  O   UNL     1      -3.145  -3.904   0.198  0.00  0.00    -0.492 OA
BRANCH  17  18
ATOM     18  C   UNL     1      -3.256  -2.481   0.272  0.00  0.00    +0.229 C 
BRANCH  18  19
ATOM     19  C   UNL     1      -1.859  -1.858   0.265  0.00  0.00    +0.041 C 
BRANCH  19  20
ATOM     20  C   UNL     1      -1.978  -0.335   0.344  0.00  0.00    +0.003 C 
BRANCH  20  22
ATOM     21  C   UNL     1      -0.700   1.811   0.415  0.00  0.00    +0.004 C 
ATOM     22  C   UNL     1      -0.581   0.287   0.337  0.00  0.00    -0.003 C 
ENDBRANCH  20  22
ENDBRANCH  19  20
ENDBRANCH  18  19
ENDBRANCH  17  18
ENDBRANCH  11  17
ENDBRANCH   1  15
BRANCH   9  23
ATOM     23  N   UNL     1      -7.873  -9.818   2.383  0.00  0.00    -0.328 N 
ATOM     24  H   UNL     1      -8.769 -10.189   2.366  0.00  0.00    +0.145 HD
ATOM     25  H   UNL     1      -7.369  -9.807   3.212  0.00  0.00    +0.145 HD
ENDBRANCH   9  23
BRANCH  10  26
ATOM     26  C   UNL     1      -5.361  -8.798   2.524  0.00  0.00    +0.101 C 
ATOM     27  N   UNL     1      -4.798  -8.799   3.511  0.00  0.00    -0.191 NA
ENDBRANCH  10  26
BRANCH   5  28
ATOM     28  O   UNL     1      -8.070  -9.934  -4.609  0.00  0.00    -0.425 OA
BRANCH  28  29
ATOM     29  C   UNL     1      -9.129  -9.224  -5.029  0.00  0.00    +0.317 C 
ATOM     30  O   UNL     1      -9.427  -8.195  -4.469  0.00  0.00    -0.250 OA
BRANCH  29  31
ATOM     31  C   UNL     1      -9.947  -9.710  -6.197  0.00  0.00    +0.156 C 
BRANCH  31  32
ATOM     32  C   UNL     1     -11.069  -8.740  -6.463  0.00  0.00    -0.037 A 
ATOM     33  C   UNL     1     -12.288  -8.903  -5.832  0.00  0.00    +0.005 A 
ATOM     34  C   UNL     1     -13.318  -8.014  -6.075  0.00  0.00    +0.020 A 
ATOM     35  C   UNL     1     -13.129  -6.960  -6.951  0.00  0.00    +0.041 A 
ATOM     36  C   UNL     1     -11.908  -6.796  -7.582  0.00  0.00    +0.020 A 
ATOM     37  C   UNL     1     -10.878  -7.683  -7.334  0.00  0.00    +0.005 A 
ATOM     38 CL   UNL     1     -14.421  -5.842  -7.258  0.00  0.00    -0.084 Cl
ENDBRANCH  31  32
ENDBRANCH  29  31
ENDBRANCH  28  29
ENDBRANCH   5  28
TORSDOF 12
