REMARK  Name = ZINC63557117
REMARK  7 active torsions:
REMARK  status: ('A' for Active; 'I' for Inactive)
REMARK    1  A    between atoms: C_4  and  C_7
REMARK    2  A    between atoms: C_7  and  C_8
REMARK    3  A    between atoms: C_12  and  N_15
REMARK    4  A    between atoms: C_16  and  C_18
REMARK    5  A    between atoms: N_23  and  C_25
REMARK    6  A    between atoms: C_25  and  C_26
REMARK    7  A    between atoms: C_26  and  C_27
REMARK                            x       y       z     vdW  Elec       q    Type
REMARK                         _______ _______ _______ _____ _____    ______ ____
ROOT
ATOM      1  C   UNL     1       4.916  -6.953   3.267  0.00  0.00    +0.101 C 
ATOM      2  C   UNL     1       3.583  -7.398   3.911  0.00  0.00    +0.110 C 
ATOM      3  C   UNL     1       3.896  -8.751   4.513  0.00  0.00    +0.216 C 
ATOM      4  O   UNL     1       3.066  -9.563   4.864  0.00  0.00    -0.276 OA
ATOM      5  N   UNL     1       5.226  -8.922   4.600  0.00  0.00    -0.300 N 
ATOM      6  C   UNL     1       5.949  -7.748   4.096  0.00  0.00    +0.121 C 
ENDROOT
BRANCH   1   8
ATOM      7  N   UNL     1       4.281  -4.603   2.830  0.00  0.00    -0.284 N 
ATOM      8  C   UNL     1       5.123  -5.469   3.427  0.00  0.00    +0.220 C 
ATOM      9  O   UNL     1       6.048  -5.054   4.092  0.00  0.00    -0.275 OA
ATOM     10  H   UNL     1       3.541  -4.934   2.297  0.00  0.00    +0.152 HD
BRANCH   7  14
ATOM     11  C   UNL     1       4.171  -0.963   1.399  0.00  0.00    +0.192 C 
ATOM     12  N   UNL     1       5.457  -1.697   1.431  0.00  0.00    -0.175 NA
ATOM     13  N   UNL     1       5.596  -2.676   2.138  0.00  0.00    -0.157 NA
ATOM     14  C   UNL     1       4.482  -3.160   2.985  0.00  0.00    +0.275 C 
ATOM     15  S   UNL     1       3.086  -2.199   2.244  0.00  0.00    -0.085 S 
BRANCH  11  16
ATOM     16  C   UNL     1       3.711  -0.707  -0.038  0.00  0.00    +0.074 C 
BRANCH  16  20
ATOM     17  C   UNL     1      -0.017   1.378   0.010  0.00  0.00    +0.000 A 
ATOM     18  C   UNL     1       1.171   2.086   0.002  0.00  0.00    +0.000 A 
ATOM     19  C   UNL     1       2.377   1.411  -0.013  0.00  0.00    +0.004 A 
ATOM     20  C   UNL     1       2.396   0.029  -0.020  0.00  0.00    -0.044 A 
ATOM     21  C   UNL     1       1.208  -0.679  -0.012  0.00  0.00    +0.004 A 
ATOM     22  C   UNL     1       0.002  -0.004   0.002  0.00  0.00    +0.000 A 
ENDBRANCH  16  20
ENDBRANCH  11  16
ENDBRANCH   7  14
ENDBRANCH   1   8
BRANCH   5  23
ATOM     23  C   UNL     1       5.872 -10.126   5.128  0.00  0.00    +0.112 C 
BRANCH  23  24
ATOM     24  C   UNL     1       6.110 -11.119   3.989  0.00  0.00    +0.052 C 
BRANCH  24  25
ATOM     25  C   UNL     1       6.774 -12.358   4.534  0.00  0.00    -0.040 C 
ATOM     26  C   UNL     1       6.167 -13.504   4.916  0.00  0.00    +0.000 A 
ATOM     27  C   UNL     1       4.761 -13.925   4.940  0.00  0.00    +0.030 A 
ATOM     28  C   UNL     1       4.455 -15.164   5.389  0.00  0.00    +0.042 A 
ATOM     29  C   UNL     1       5.445 -16.054   5.832  0.00  0.00    +0.022 A 
ATOM     30  C   UNL     1       6.757 -15.739   5.839  0.00  0.00    +0.027 A 
ATOM     31  C   UNL     1       7.193 -14.462   5.388  0.00  0.00    +0.043 A 
ATOM     32  N   UNL     1       8.387 -13.928   5.300  0.00  0.00    -0.380 N 
ATOM     33  C   UNL     1       8.254 -12.572   4.756  0.00  0.00    +0.144 C 
ATOM     34 CL   UNL     1       2.793 -15.666   5.419  0.00  0.00    -0.084 Cl
ATOM     35  H   UNL     1       9.219 -14.360   5.549  0.00  0.00    +0.160 HD
ENDBRANCH  24  25
ENDBRANCH  23  24
ENDBRANCH   5  23
TORSDOF 7
