REMARK  Name = ZINC64048524
REMARK  6 active torsions:
REMARK  status: ('A' for Active; 'I' for Inactive)
REMARK    1  A    between atoms: C_1  and  C_2
REMARK    2  A    between atoms: C_6  and  C_15
REMARK    3  A    between atoms: N_17  and  C_18
REMARK    4  A    between atoms: C_18  and  C_19
REMARK    5  A    between atoms: C_19  and  C_21
REMARK    6  A    between atoms: C_19  and  C_27
REMARK                            x       y       z     vdW  Elec       q    Type
REMARK                         _______ _______ _______ _____ _____    ______ ____
ROOT
ATOM      1  C   UNL     1       1.603  -6.274  -1.397  0.00  0.00    +0.116 C 
ENDROOT
BRANCH   1   4
ATOM      2  C   UNL     1       1.210  -4.063  -2.344  0.00  0.00    +0.255 C 
ATOM      3  O   UNL     1       0.896  -4.598  -3.387  0.00  0.00    -0.272 OA
ATOM      4  N   UNL     1       1.579  -4.813  -1.287  0.00  0.00    -0.311 N 
ATOM      5  H   UNL     1       1.830  -4.386  -0.453  0.00  0.00    +0.149 HD
BRANCH   2  11
ATOM      6  C   UNL     1       0.004  -0.766   1.302  0.00  0.00    +0.109 C 
ATOM      7  C   UNL     1       0.002  -0.004   0.002  0.00  0.00    +0.217 C 
ATOM      8  O   UNL     1      -0.089   1.205   0.008  0.00  0.00    -0.276 OA
ATOM      9  N   UNL     1       0.102  -0.666  -1.167  0.00  0.00    -0.264 N 
ATOM     10  C   UNL     1       0.118  -2.139  -1.211  0.00  0.00    +0.168 C 
ATOM     11  C   UNL     1       1.186  -2.561  -2.230  0.00  0.00    +0.276 C 
ATOM     12  O   UNL     1       0.863  -1.987  -3.499  0.00  0.00    -0.476 OA
ATOM     13  C   UNL     1       0.579  -0.658  -3.540  0.00  0.00    +0.143 A 
ATOM     14  C   UNL     1       0.188   0.024  -2.389  0.00  0.00    +0.078 A 
ATOM     15  C   UNL     1      -0.109   1.375  -2.446  0.00  0.00    +0.027 A 
ATOM     16  C   UNL     1      -0.020   2.050  -3.649  0.00  0.00    +0.002 A 
ATOM     17  C   UNL     1       0.365   1.378  -4.794  0.00  0.00    +0.004 A 
ATOM     18  C   UNL     1       0.673   0.027  -4.742  0.00  0.00    +0.047 A 
ENDBRANCH   2  11
ENDBRANCH   1   4
BRANCH   1  19
ATOM     19  C   UNL     1       2.054  -6.879  -0.067  0.00  0.00    +0.064 C 
BRANCH  19  20
ATOM     20  C   UNL     1       1.961  -8.381  -0.140  0.00  0.00    -0.033 C 
ATOM     21  C   UNL     1       1.207  -9.188   0.641  0.00  0.00    -0.000 A 
ATOM     22  C   UNL     1       0.285  -8.919   1.751  0.00  0.00    +0.010 A 
ATOM     23  C   UNL     1      -0.337  -9.958   2.353  0.00  0.00    +0.001 A 
ATOM     24  C   UNL     1      -0.125 -11.282   1.944  0.00  0.00    +0.002 A 
ATOM     25  C   UNL     1       0.707 -11.608   0.932  0.00  0.00    +0.026 A 
ATOM     26  C   UNL     1       1.414 -10.595   0.228  0.00  0.00    +0.043 A 
ATOM     27  N   UNL     1       2.263 -10.655  -0.770  0.00  0.00    -0.380 N 
ATOM     28  C   UNL     1       2.686  -9.291  -1.107  0.00  0.00    +0.145 C 
ATOM     29  H   UNL     1       2.558 -11.465  -1.214  0.00  0.00    +0.160 HD
ENDBRANCH  19  20
BRANCH  19  30
ATOM     30  C   UNL     1       3.480  -6.477   0.210  0.00  0.00    -0.039 A 
ATOM     31  C   UNL     1       4.481  -6.826  -0.678  0.00  0.00    +0.004 A 
ATOM     32  C   UNL     1       5.789  -6.457  -0.425  0.00  0.00    +0.000 A 
ATOM     33  C   UNL     1       6.096  -5.739   0.716  0.00  0.00    +0.000 A 
ATOM     34  C   UNL     1       5.095  -5.390   1.603  0.00  0.00    +0.000 A 
ATOM     35  C   UNL     1       3.787  -5.755   1.348  0.00  0.00    +0.004 A 
ENDBRANCH  19  30
ENDBRANCH   1  19
TORSDOF 5
