REMARK  Name = ZINC10770112
REMARK  9 active torsions:
REMARK  status: ('A' for Active; 'I' for Inactive)
REMARK    1  A    between atoms: C_1  and  C_2
REMARK    2  A    between atoms: C_2  and  C_33
REMARK    3  A    between atoms: C_5  and  C_31
REMARK    4  A    between atoms: C_6  and  N_12
REMARK    5  A    between atoms: C_9  and  C_10
REMARK    6  A    between atoms: C_9  and  C_11
REMARK    7  A    between atoms: C_13  and  C_15
REMARK    8  A    between atoms: N_20  and  S_22
REMARK    9  A    between atoms: S_22  and  C_25
REMARK                            x       y       z     vdW  Elec       q    Type
REMARK                         _______ _______ _______ _____ _____    ______ ____
ROOT
ATOM      1  N   UNL     1       2.468   6.407  -2.368  0.00  0.00    -0.279 N 
ATOM      2  C   UNL     1       3.805   6.563  -2.426  0.00  0.00    +0.222 C 
ATOM      3  O   UNL     1       4.536   5.698  -1.991  0.00  0.00    -0.275 OA
ATOM      4  H   UNL     1       1.883   7.099  -2.716  0.00  0.00    +0.155 HD
ENDROOT
BRANCH   1  10
ATOM      5  C   UNL     1      -0.654   1.173  -2.361  0.00  0.00    -0.010 C 
ATOM      6  C   UNL     1      -0.994   1.548  -0.916  0.00  0.00    -0.069 C 
ATOM      7  C   UNL     1      -1.104   3.074  -0.803  0.00  0.00    +0.024 C 
ATOM      8  C   UNL     1       0.286   3.646  -1.050  0.00  0.00    -0.021 A 
ATOM      9  C   UNL     1       0.587   4.919  -1.665  0.00  0.00    +0.084 A 
ATOM     10  C   UNL     1       1.927   5.257  -1.811  0.00  0.00    +0.090 A 
ATOM     11  S   UNL     1       2.756   3.896  -1.130  0.00  0.00    -0.078 S 
ATOM     12  C   UNL     1       1.359   2.914  -0.666  0.00  0.00    -0.015 A 
ATOM     13  C   UNL     1       1.331   1.576  -0.002  0.00  0.00    -0.041 C 
ATOM     14  C   UNL     1       1.815   1.744   1.450  0.00  0.00    -0.005 C 
ATOM     15  C   UNL     1       2.306   0.632  -0.720  0.00  0.00    -0.005 C 
ATOM     16  C   UNL     1      -2.372   0.948  -0.582  0.00  0.00    -0.010 C 
ATOM     17  N   UNL     1      -0.026   0.959   0.046  0.00  0.00    +0.389 N 
ATOM     18  H   UNL     1       0.067  -0.042  -0.163  0.00  0.00    -0.084 HD
ATOM     19  H   UNL     1      -0.401   1.078   0.994  0.00  0.00    -0.084 HD
BRANCH   9  20
ATOM     20  C   UNL     1      -0.445   5.808  -2.109  0.00  0.00    +0.102 C 
ATOM     21  N   UNL     1      -1.264   6.512  -2.461  0.00  0.00    -0.191 NA
ENDBRANCH   9  20
ENDBRANCH   1  10
BRANCH   2  22
ATOM     22  C   UNL     1       4.393   7.812  -3.030  0.00  0.00    +0.091 C 
ATOM     23  C   UNL     1       3.947   7.932  -4.489  0.00  0.00    +0.015 C 
ATOM     24  C   UNL     1       4.516   9.217  -5.095  0.00  0.00    +0.018 C 
ATOM     25  C   UNL     1       6.047   9.159  -5.060  0.00  0.00    +0.109 C 
ATOM     26  N   UNL     1       6.479   8.899  -3.680  0.00  0.00    -0.175 NA
ATOM     27  C   UNL     1       5.922   7.738  -2.972  0.00  0.00    +0.122 C 
BRANCH  26  28
ATOM     28  S   UNL     1       7.573   9.895  -2.937  0.00  0.00    +0.067 S 
ATOM     29  O   UNL     1       7.490  11.152  -3.595  0.00  0.00    -0.152 OA
ATOM     30  O   UNL     1       7.367   9.752  -1.538  0.00  0.00    -0.152 OA
BRANCH  28  31
ATOM     31  C   UNL     1       9.178   9.253  -3.277  0.00  0.00    +0.144 A 
ATOM     32  C   UNL     1      10.005   9.529  -4.314  0.00  0.00    +0.038 A 
ATOM     33  C   UNL     1      11.236   8.903  -4.376  0.00  0.00    +0.030 A 
ATOM     34  C   UNL     1      11.574   8.021  -3.402  0.00  0.00    +0.080 A 
ATOM     35  S   UNL     1      10.133   8.064  -2.349  0.00  0.00    -0.057 S 
ATOM     36 CL   UNL     1      13.030   7.092  -3.225  0.00  0.00    -0.076 Cl
ENDBRANCH  28  31
ENDBRANCH  26  28
ENDBRANCH   2  22
TORSDOF 5
