REMARK  Name = ZINC63385894
REMARK  4 active torsions:
REMARK  status: ('A' for Active; 'I' for Inactive)
REMARK    1  A    between atoms: C_1  and  C_2
REMARK    2  A    between atoms: C_6  and  C_8
REMARK    3  A    between atoms: C_14  and  C_16
REMARK    4  A    between atoms: C_19  and  C_23
REMARK                            x       y       z     vdW  Elec       q    Type
REMARK                         _______ _______ _______ _____ _____    ______ ____
ROOT
ATOM      1  C   UNL     1      -0.013   1.086   0.008  0.00  0.00    +0.066 C 
ATOM      2  C   UNL     1      -0.742   1.585  -1.213  0.00  0.00    +0.054 A 
ATOM      3  N   UNL     1      -2.045   1.798  -1.199  0.00  0.00    -0.229 NA
ATOM      4  C   UNL     1      -2.674   2.234  -2.269  0.00  0.00    +0.165 A 
ATOM      5  N   UNL     1      -4.026   2.508  -2.424  0.00  0.00    -0.260 N 
ATOM      6  C   UNL     1      -4.872   2.328  -1.390  0.00  0.00    +0.256 C 
ATOM      7  O   UNL     1      -4.451   1.927  -0.321  0.00  0.00    -0.269 OA
ATOM      8  S   UNL     1      -1.440   2.381  -3.405  0.00  0.00    -0.053 S 
ATOM      9  C   UNL     1      -0.088   1.841  -2.372  0.00  0.00    +0.059 A 
ATOM     10  H   UNL     1      -4.362   2.828  -3.276  0.00  0.00    +0.157 HD
ENDROOT
BRANCH   9  11
ATOM     11  C   UNL     1       1.377   1.706  -2.700  0.00  0.00    +0.250 C 
ATOM     12  N   UNL     1       1.545   1.382  -4.134  0.00  0.00    -0.265 NA
ATOM     13  C   UNL     1       2.684   0.427  -4.158  0.00  0.00    +0.180 C 
ATOM     14  N   UNL     1       2.461  -0.362  -2.917  0.00  0.00    -0.177 NA
ATOM     15  O   UNL     1       1.948   0.626  -1.946  0.00  0.00    -0.274 OA
ATOM     16  H   UNL     1       0.709   0.958  -4.509  0.00  0.00    +0.127 HD
ATOM     17  H   UNL     1       1.790  -1.099  -3.073  0.00  0.00    +0.156 HD
BRANCH  13  18
ATOM     18  C   UNL     1       2.619  -0.455  -5.378  0.00  0.00    -0.014 A 
ATOM     19  C   UNL     1       2.054   0.022  -6.546  0.00  0.00    +0.009 A 
ATOM     20  C   UNL     1       1.995  -0.786  -7.666  0.00  0.00    +0.039 A 
ATOM     21  C   UNL     1       2.501  -2.074  -7.618  0.00  0.00    +0.123 A 
ATOM     22  C   UNL     1       3.066  -2.551  -6.447  0.00  0.00    +0.039 A 
ATOM     23  C   UNL     1       3.130  -1.739  -5.330  0.00  0.00    +0.009 A 
ATOM     24  F   UNL     1       2.442  -2.865  -8.711  0.00  0.00    -0.205 F 
ENDBRANCH  13  18
ENDBRANCH   9  11
BRANCH   6  25
ATOM     25  C   UNL     1      -6.300   2.617  -1.553  0.00  0.00    +0.074 A 
ATOM     26  C   UNL     1      -7.325   2.507  -0.626  0.00  0.00    +0.021 A 
ATOM     27  C   UNL     1      -8.576   2.854  -1.076  0.00  0.00    +0.008 A 
ATOM     28  C   UNL     1      -8.724   3.270  -2.358  0.00  0.00    +0.046 A 
ATOM     29  S   UNL     1      -7.169   3.209  -2.992  0.00  0.00    -0.092 S 
ENDBRANCH   6  25
TORSDOF 3
