REMARK  Name = ZINC63663571
REMARK  12 active torsions:
REMARK  status: ('A' for Active; 'I' for Inactive)
REMARK    1  A    between atoms: C_1  and  C_2
REMARK    2  A    between atoms: C_2  and  O_3
REMARK    3  A    between atoms: O_3  and  C_4
REMARK    4  A    between atoms: C_6  and  C_16
REMARK    5  A    between atoms: C_8  and  O_13
REMARK    6  A    between atoms: C_9  and  O_10
REMARK    7  A    between atoms: O_10  and  C_11
REMARK    8  A    between atoms: C_11  and  C_12
REMARK    9  A    between atoms: O_13  and  C_14
REMARK   10  A    between atoms: C_14  and  C_15
REMARK   11  A    between atoms: N_18  and  C_19
REMARK   12  A    between atoms: C_19  and  C_20
REMARK                            x       y       z     vdW  Elec       q    Type
REMARK                         _______ _______ _______ _____ _____    ______ ____
ROOT
ATOM      1  C   UNL     1       0.626  -4.948  -0.019  0.00  0.00    +0.245 C 
ATOM      2  O   UNL     1       1.744  -4.470  -0.022  0.00  0.00    -0.270 OA
ATOM      3  N   UNL     1       0.466  -6.286  -0.024  0.00  0.00    -0.307 N 
ATOM      4  H   UNL     1      -0.426  -6.668  -0.021  0.00  0.00    +0.149 HD
ENDROOT
BRANCH   1   7
ATOM      5  C   UNL     1      -1.498  -1.849   0.006  0.00  0.00    +0.166 A 
ATOM      6  C   UNL     1      -0.391  -2.676  -0.003  0.00  0.00    +0.062 A 
ATOM      7  C   UNL     1      -0.555  -4.063  -0.008  0.00  0.00    +0.044 A 
ATOM      8  C   UNL     1      -1.840  -4.611  -0.004  0.00  0.00    +0.062 A 
ATOM      9  C   UNL     1      -2.945  -3.780   0.005  0.00  0.00    +0.166 A 
ATOM     10  C   UNL     1      -2.778  -2.398   0.016  0.00  0.00    +0.204 A 
BRANCH   5  11
ATOM     11  O   UNL     1      -1.339  -0.499   0.012  0.00  0.00    -0.488 OA
BRANCH  11  13
ATOM     12  C   UNL     1      -0.019   1.526   0.010  0.00  0.00    +0.048 C 
ATOM     13  C   UNL     1       0.002  -0.004   0.002  0.00  0.00    +0.226 C 
ENDBRANCH  11  13
ENDBRANCH   5  11
BRANCH  10  14
ATOM     14  O   UNL     1      -3.865  -1.584   0.030  0.00  0.00    -0.485 OA
BRANCH  14  15
ATOM     15  C   UNL     1      -4.397  -1.188  -1.236  0.00  0.00    +0.226 C 
ATOM     16  C   UNL     1      -5.609  -0.280  -1.020  0.00  0.00    +0.048 C 
ENDBRANCH  14  15
ENDBRANCH  10  14
BRANCH   9  17
ATOM     17  O   UNL     1      -4.196  -4.314   0.008  0.00  0.00    -0.488 OA
BRANCH  17  18
ATOM     18  C   UNL     1      -4.294  -5.739   0.002  0.00  0.00    +0.226 C 
ATOM     19  C   UNL     1      -5.768  -6.149   0.007  0.00  0.00    +0.048 C 
ENDBRANCH  17  18
ENDBRANCH   9  17
ENDBRANCH   1   7
BRANCH   3  20
ATOM     20  C   UNL     1       1.638  -7.164  -0.034  0.00  0.00    +0.139 C 
BRANCH  20  21
ATOM     21  C   UNL     1       1.188  -8.603  -0.038  0.00  0.00    -0.030 A 
ATOM     22  C   UNL     1       0.986  -9.258   1.184  0.00  0.00    +0.007 A 
ATOM     23  C   UNL     1       0.587 -10.545   1.263  0.00  0.00    +0.026 A 
ATOM     24  C   UNL     1       0.352 -11.300   0.082  0.00  0.00    +0.043 A 
ATOM     25  N   UNL     1      -0.054 -12.537  -0.097  0.00  0.00    -0.378 N 
ATOM     26  C   UNL     1      -0.044 -12.824  -1.529  0.00  0.00    +0.106 C 
ATOM     27  C   UNL     1      -1.412 -13.290  -2.036  0.00  0.00    +0.029 C 
ATOM     28  C   UNL     1      -1.388 -13.290  -3.568  0.00  0.00    +0.003 C 
ATOM     29  C   UNL     1      -1.229 -11.873  -4.117  0.00  0.00    +0.004 C 
ATOM     30  C   UNL     1       0.134 -11.296  -3.695  0.00  0.00    +0.033 C 
ATOM     31  C   UNL     1       0.269 -11.500  -2.204  0.00  0.00    -0.038 C 
ATOM     32  C   UNL     1       0.552 -10.628  -1.226  0.00  0.00    -0.001 A 
ATOM     33  C   UNL     1       0.986  -9.225  -1.221  0.00  0.00    +0.015 A 
ATOM     34  H   UNL     1      -0.316 -13.155   0.603  0.00  0.00    +0.160 HD
ENDBRANCH  20  21
ENDBRANCH   3  20
TORSDOF 9
