REMARK  Name = ZINC36514478
REMARK  21 active torsions:
REMARK  status: ('A' for Active; 'I' for Inactive)
REMARK    1  A    between atoms: C_1  and  C_2
REMARK    2  A    between atoms: C_2  and  C_3
REMARK    3  A    between atoms: C_3  and  C_4
REMARK    4  A    between atoms: C_4  and  C_5
REMARK    5  A    between atoms: C_5  and  C_6
REMARK    6  A    between atoms: C_6  and  N_7
REMARK    7  A    between atoms: N_7  and  C_8
REMARK    8  A    between atoms: C_8  and  C_10
REMARK    9  A    between atoms: C_8  and  C_17
REMARK   10  A    between atoms: C_14  and  O_16
REMARK   11  A    between atoms: N_19  and  C_20
REMARK   12  A    between atoms: C_20  and  C_21
REMARK   13  A    between atoms: C_20  and  C_22
REMARK   14  A    between atoms: C_20  and  C_23
REMARK   15  A    between atoms: C_23  and  C_24
REMARK   16  A    between atoms: C_24  and  C_25
REMARK   17  A    between atoms: C_24  and  C_26
REMARK   18  A    between atoms: C_24  and  C_27
REMARK   19  A    between atoms: C_28  and  C_30
REMARK   20  A    between atoms: C_31  and  O_37
REMARK   21  A    between atoms: C_35  and  O_36
REMARK                            x       y       z     vdW  Elec       q    Type
REMARK                         _______ _______ _______ _____ _____    ______ ____
ROOT
ATOM      1  C   UNL     1      -7.363  -6.247  -1.917  0.00  0.00    +0.193 C 
ENDROOT
BRANCH   1   2
ATOM      2  C   UNL     1      -7.302  -7.270  -3.022  0.00  0.00    -0.015 A 
ATOM      3  C   UNL     1      -8.470  -7.814  -3.525  0.00  0.00    +0.006 A 
ATOM      4  C   UNL     1      -8.417  -8.753  -4.538  0.00  0.00    +0.004 A 
ATOM      5  C   UNL     1      -7.197  -9.150  -5.051  0.00  0.00    +0.045 A 
ATOM      6  C   UNL     1      -6.025  -8.606  -4.549  0.00  0.00    +0.117 A 
ATOM      7  C   UNL     1      -6.081  -7.659  -3.535  0.00  0.00    +0.051 A 
BRANCH   6   8
ATOM      8  O   UNL     1      -4.824  -8.995  -5.051  0.00  0.00    -0.507 OA
ATOM      9  H   UNL     1      -4.518  -8.461  -5.798  0.00  0.00    +0.292 HD
ENDBRANCH   6   8
ENDBRANCH   1   2
BRANCH   1  10
ATOM     10  C   UNL     1      -8.693  -5.538  -1.962  0.00  0.00    +0.239 C 
ATOM     11  O   UNL     1      -9.438  -5.588  -1.006  0.00  0.00    -0.273 OA
ATOM     12  N   UNL     1      -9.053  -4.850  -3.063  0.00  0.00    -0.308 N 
ATOM     13  H   UNL     1      -8.457  -4.811  -3.827  0.00  0.00    +0.149 HD
BRANCH  12  14
ATOM     14  C   UNL     1     -10.345  -4.161  -3.106  0.00  0.00    +0.030 C 
ATOM     15  C   UNL     1     -11.438  -5.093  -2.577  0.00  0.00    +0.031 C 
ATOM     16  C   UNL     1     -10.282  -2.904  -2.237  0.00  0.00    +0.031 C 
BRANCH  14  17
ATOM     17  C   UNL     1     -10.666  -3.768  -4.550  0.00  0.00    +0.031 C 
BRANCH  17  18
ATOM     18  C   UNL     1      -9.438  -3.110  -5.183  0.00  0.00    -0.036 C 
ATOM     19  C   UNL     1      -8.352  -4.164  -5.406  0.00  0.00    +0.010 C 
ATOM     20  C   UNL     1      -9.829  -2.489  -6.526  0.00  0.00    +0.010 C 
ATOM     21  C   UNL     1      -8.907  -2.019  -4.252  0.00  0.00    +0.010 C 
ENDBRANCH  17  18
ENDBRANCH  14  17
ENDBRANCH  12  14
ENDBRANCH   1  10
BRANCH   1  22
ATOM     22  N   UNL     1      -7.210  -6.916  -0.623  0.00  0.00    -0.282 N 
ATOM     23  C   UNL     1      -6.271  -6.493   0.247  0.00  0.00    +0.255 C 
ATOM     24  O   UNL     1      -5.619  -5.496   0.001  0.00  0.00    -0.270 OA
BRANCH  23  25
ATOM     25  C   UNL     1      -6.035  -7.238   1.495  0.00  0.00    +0.119 A 
ATOM     26  C   UNL     1      -5.088  -8.273   1.531  0.00  0.00    +0.133 A 
ATOM     27  C   UNL     1      -4.874  -8.967   2.711  0.00  0.00    +0.046 A 
ATOM     28  C   UNL     1      -5.588  -8.643   3.849  0.00  0.00    +0.007 A 
ATOM     29  C   UNL     1      -6.524  -7.626   3.824  0.00  0.00    +0.046 A 
ATOM     30  C   UNL     1      -6.750  -6.915   2.656  0.00  0.00    +0.133 A 
BRANCH  30  31
ATOM     31  O   UNL     1      -7.665  -5.913   2.636  0.00  0.00    -0.506 OA
ATOM     32  H   UNL     1      -8.558  -6.200   2.404  0.00  0.00    +0.292 HD
ENDBRANCH  30  31
BRANCH  26  33
ATOM     33  O   UNL     1      -4.386  -8.593   0.415  0.00  0.00    -0.506 OA
ATOM     34  H   UNL     1      -3.557  -8.105   0.320  0.00  0.00    +0.292 HD
ENDBRANCH  26  33
ENDBRANCH  23  25
BRANCH  22  35
ATOM     35  C   UNL     1      -8.076  -8.045  -0.275  0.00  0.00    +0.109 C 
BRANCH  35  36
ATOM     36  C   UNL     1      -7.425  -9.350  -0.738  0.00  0.00    +0.019 C 
BRANCH  36  37
ATOM     37  C   UNL     1      -8.330 -10.528  -0.374  0.00  0.00    +0.002 C 
BRANCH  37  38
ATOM     38  C   UNL     1      -7.679 -11.833  -0.837  0.00  0.00    -0.000 C 
BRANCH  38  40
ATOM     39  C   UNL     1      -7.933 -14.317  -0.936  0.00  0.00    +0.004 C 
ATOM     40  C   UNL     1      -8.584 -13.012  -0.473  0.00  0.00    -0.003 C 
ENDBRANCH  38  40
ENDBRANCH  37  38
ENDBRANCH  36  37
ENDBRANCH  35  36
ENDBRANCH  22  35
ENDBRANCH   1  22
TORSDOF 15
