REMARK  Name = ZINC63778231
REMARK  8 active torsions:
REMARK  status: ('A' for Active; 'I' for Inactive)
REMARK    1  A    between atoms: C_5  and  C_7
REMARK    2  A    between atoms: C_7  and  N_8
REMARK    3  A    between atoms: C_9  and  C_11
REMARK    4  A    between atoms: C_11  and  C_13
REMARK    5  A    between atoms: C_11  and  N_23
REMARK    6  A    between atoms: C_13  and  C_14
REMARK    7  A    between atoms: N_23  and  S_24
REMARK    8  A    between atoms: S_24  and  C_27
REMARK                            x       y       z     vdW  Elec       q    Type
REMARK                         _______ _______ _______ _____ _____    ______ ____
ROOT
ATOM      1  C   UNL     1       1.794  -4.255   2.802  0.00  0.00    +0.166 C 
ENDROOT
BRANCH   1   3
ATOM      2  N   UNL     1       1.604  -2.387   1.191  0.00  0.00    -0.310 N 
ATOM      3  C   UNL     1       1.678  -3.717   1.399  0.00  0.00    +0.232 C 
ATOM      4  O   UNL     1       1.652  -4.480   0.457  0.00  0.00    -0.274 OA
ATOM      5  H   UNL     1       1.625  -1.776   1.944  0.00  0.00    +0.149 HD
BRANCH   2   6
ATOM      6  C   UNL     1       1.491  -1.865  -0.173  0.00  0.00    +0.142 C 
BRANCH   6  11
ATOM      7  C   UNL     1       0.145   1.663  -0.203  0.00  0.00    +0.000 A 
ATOM      8  C   UNL     1       1.303   2.403  -0.053  0.00  0.00    +0.003 A 
ATOM      9  C   UNL     1       2.522   1.764   0.059  0.00  0.00    +0.038 A 
ATOM     10  C   UNL     1       2.585   0.381   0.020  0.00  0.00    +0.128 A 
ATOM     11  C   UNL     1       1.425  -0.359  -0.130  0.00  0.00    +0.005 A 
ATOM     12  C   UNL     1       0.206   0.282  -0.242  0.00  0.00    +0.008 A 
ATOM     13  F   UNL     1       3.777  -0.246   0.129  0.00  0.00    -0.205 F 
ENDBRANCH   6  11
ENDBRANCH   2   6
ENDBRANCH   1   3
BRANCH   1  14
ATOM     14  N   UNL     1       1.859  -5.718   2.760  0.00  0.00    -0.178 NA
ATOM     15  H   UNL     1       1.041  -6.238   2.725  0.00  0.00    +0.149 HD
BRANCH  14  16
ATOM     16  S   UNL     1       3.327  -6.482   2.775  0.00  0.00    +0.059 S 
ATOM     17  O   UNL     1       3.058  -7.878   2.766  0.00  0.00    -0.153 OA
ATOM     18  O   UNL     1       4.122  -5.853   1.779  0.00  0.00    -0.153 OA
BRANCH  16  19
ATOM     19  C   UNL     1       4.085  -6.126   4.325  0.00  0.00    +0.105 A 
ATOM     20  C   UNL     1       4.818  -4.964   4.485  0.00  0.00    +0.030 A 
ATOM     21  C   UNL     1       5.413  -4.684   5.700  0.00  0.00    +0.022 A 
ATOM     22  C   UNL     1       5.275  -5.566   6.757  0.00  0.00    +0.041 A 
ATOM     23  C   UNL     1       4.542  -6.728   6.597  0.00  0.00    +0.022 A 
ATOM     24  C   UNL     1       3.943  -7.005   5.382  0.00  0.00    +0.030 A 
ATOM     25 CL   UNL     1       6.023  -5.215   8.284  0.00  0.00    -0.084 Cl
ENDBRANCH  16  19
ENDBRANCH  14  16
ENDBRANCH   1  14
BRANCH   1  26
ATOM     26  C   UNL     1       0.574  -3.821   3.617  0.00  0.00    +0.063 C 
BRANCH  26  27
ATOM     27  C   UNL     1       0.752  -4.245   5.052  0.00  0.00    -0.040 C 
ATOM     28  C   UNL     1       1.253  -3.500   6.064  0.00  0.00    -0.001 A 
ATOM     29  C   UNL     1       1.763  -2.126   6.129  0.00  0.00    +0.010 A 
ATOM     30  C   UNL     1       2.208  -1.646   7.313  0.00  0.00    +0.001 A 
ATOM     31  C   UNL     1       2.195  -2.428   8.476  0.00  0.00    +0.002 A 
ATOM     32  C   UNL     1       1.742  -3.699   8.496  0.00  0.00    +0.026 A 
ATOM     33  C   UNL     1       1.249  -4.305   7.307  0.00  0.00    +0.043 A 
ATOM     34  N   UNL     1       0.765  -5.500   7.072  0.00  0.00    -0.380 N 
ATOM     35  C   UNL     1       0.401  -5.587   5.654  0.00  0.00    +0.144 C 
ATOM     36  H   UNL     1       0.661  -6.208   7.728  0.00  0.00    +0.160 HD
ENDBRANCH  26  27
ENDBRANCH   1  26
TORSDOF 8
