REMARK  Name = ZINC20947716
REMARK  7 active torsions:
REMARK  status: ('A' for Active; 'I' for Inactive)
REMARK    1  A    between atoms: C_5  and  N_7
REMARK    2  A    between atoms: N_7  and  C_8
REMARK    3  A    between atoms: C_8  and  C_9
REMARK    4  A    between atoms: C_9  and  C_10
REMARK    5  A    between atoms: C_12  and  C_14
REMARK    6  A    between atoms: C_14  and  N_15
REMARK    7  A    between atoms: C_19  and  C_21
REMARK                            x       y       z     vdW  Elec       q    Type
REMARK                         _______ _______ _______ _____ _____    ______ ____
ROOT
ATOM      1  N   UNL     1       1.304  -4.766   2.513  0.00  0.00    +0.390 N 
ATOM      2  C   UNL     1       0.035  -4.420   3.187  0.00  0.00    -0.077 C 
ATOM      3  C   UNL     1      -0.850  -5.682   3.037  0.00  0.00    -0.020 C 
ATOM      4  C   UNL     1       0.195  -6.818   3.194  0.00  0.00    -0.013 C 
ATOM      5  C   UNL     1       1.448  -6.234   2.510  0.00  0.00    -0.037 C 
ATOM      6  H   UNL     1       2.076  -4.351   3.013  0.00  0.00    -0.080 HD
ENDROOT
BRANCH   5   7
ATOM      7  C   UNL     1       2.683  -6.630   3.278  0.00  0.00    -0.057 A 
ATOM      8  C   UNL     1       3.006  -5.973   4.451  0.00  0.00    +0.006 A 
ATOM      9  C   UNL     1       4.138  -6.332   5.158  0.00  0.00    +0.049 A 
ATOM     10  C   UNL     1       4.953  -7.353   4.692  0.00  0.00    +0.162 A 
ATOM     11  C   UNL     1       4.627  -8.014   3.514  0.00  0.00    +0.162 A 
ATOM     12  C   UNL     1       3.487  -7.652   2.812  0.00  0.00    +0.051 A 
ATOM     13  O   UNL     1       5.409  -9.024   3.043  0.00  0.00    -0.485 OA
ATOM     14  C   UNL     1       6.735  -9.113   3.576  0.00  0.00    +0.270 C 
ATOM     15  C   UNL     1       6.652  -8.965   5.101  0.00  0.00    +0.270 C 
ATOM     16  O   UNL     1       6.067  -7.692   5.397  0.00  0.00    -0.485 OA
ENDBRANCH   5   7
BRANCH   1  17
ATOM     17  C   UNL     1       1.282  -4.269   1.131  0.00  0.00    +0.020 C 
BRANCH  17  19
ATOM     18  N   UNL     1       1.236  -2.081  -0.022  0.00  0.00    -0.269 N 
ATOM     19  C   UNL     1       1.259  -2.762   1.141  0.00  0.00    +0.203 C 
ATOM     20  O   UNL     1       1.260  -2.162   2.195  0.00  0.00    -0.277 OA
BRANCH  18  25
ATOM     21  C   UNL     1      -0.017   1.377   0.010  0.00  0.00    +0.002 A 
ATOM     22  C   UNL     1       1.170   2.087   0.002  0.00  0.00    +0.003 A 
ATOM     23  C   UNL     1       2.380   1.418  -0.013  0.00  0.00    +0.040 A 
ATOM     24  C   UNL     1       2.406   0.035  -0.022  0.00  0.00    +0.145 A 
ATOM     25  C   UNL     1       1.214  -0.681  -0.014  0.00  0.00    +0.072 A 
ATOM     26  C   UNL     1       0.002  -0.004   0.002  0.00  0.00    +0.026 A 
ATOM     27  F   UNL     1       3.588  -0.619  -0.038  0.00  0.00    -0.204 F 
ENDBRANCH  18  25
BRANCH  18  28
ATOM     28  C   UNL     1       1.234  -2.806  -1.295  0.00  0.00    +0.128 C 
BRANCH  28  29
ATOM     29  C   UNL     1       2.676  -3.035  -1.753  0.00  0.00    +0.138 C 
BRANCH  29  30
ATOM     30  C   UNL     1       2.675  -3.764  -3.033  0.00  0.00    +0.064 C 
ATOM     31  N   UNL     1       2.673  -4.326  -4.020  0.00  0.00    -0.197 NA
ENDBRANCH  29  30
ENDBRANCH  28  29
ENDBRANCH  18  28
ENDBRANCH  17  19
ENDBRANCH   1  17
TORSDOF 7
