REMARK  Name = ZINC54201474
REMARK  8 active torsions:
REMARK  status: ('A' for Active; 'I' for Inactive)
REMARK    1  A    between atoms: C_1  and  O_2
REMARK    2  A    between atoms: O_2  and  C_3
REMARK    3  A    between atoms: C_6  and  C_9
REMARK    4  A    between atoms: C_12  and  C_29
REMARK    5  A    between atoms: C_20  and  C_21
REMARK    6  A    between atoms: C_26  and  O_27
REMARK    7  A    between atoms: C_32  and  O_35
REMARK    8  A    between atoms: O_35  and  C_36
REMARK                            x       y       z     vdW  Elec       q    Type
REMARK                         _______ _______ _______ _____ _____    ______ ____
ROOT
ATOM      1  C   UNL     1       2.107  -2.522  -3.836  0.00  0.00    +0.136 C 
ATOM      2  C   UNL     1       0.965  -3.043  -4.730  0.00  0.00    +0.087 C 
ATOM      3  C   UNL     1       1.208  -4.534  -4.801  0.00  0.00    +0.069 C 
ATOM      4  N   UNL     1       2.254  -4.832  -4.108  0.00  0.00    -0.182 NA
ATOM      5  N   UNL     1       2.867  -3.736  -3.498  0.00  0.00    -0.195 N 
ATOM      6  C   UNL     1       3.989  -3.781  -2.713  0.00  0.00    +0.174 C 
ATOM      7  N   UNL     1       4.607  -2.780  -2.105  0.00  0.00    -0.152 NA
ATOM      8  C   UNL     1       5.685  -2.958  -1.374  0.00  0.00    +0.276 C 
ATOM      9  O   UNL     1       6.246  -2.027  -0.818  0.00  0.00    -0.267 OA
ATOM     10  C   UNL     1       6.180  -4.349  -1.260  0.00  0.00    +0.080 C 
ATOM     11  C   UNL     1       7.252  -4.838  -0.585  0.00  0.00    +0.032 C 
ATOM     12  S   UNL     1       4.965  -5.205  -2.256  0.00  0.00    -0.050 S 
ENDROOT
BRANCH   1  16
ATOM     13  C   UNL     1       0.539  -0.697  -0.304  0.00  0.00    +0.120 A 
ATOM     14  C   UNL     1       0.989   0.092  -1.353  0.00  0.00    +0.046 A 
ATOM     15  C   UNL     1       1.495  -0.501  -2.494  0.00  0.00    +0.009 A 
ATOM     16  C   UNL     1       1.554  -1.879  -2.591  0.00  0.00    -0.025 A 
ATOM     17  C   UNL     1       1.106  -2.667  -1.547  0.00  0.00    +0.009 A 
ATOM     18  C   UNL     1       0.604  -2.079  -0.402  0.00  0.00    +0.046 A 
BRANCH  13  20
ATOM     19  C   UNL     1       0.003   1.311   0.849  0.00  0.00    +0.277 C 
ATOM     20  O   UNL     1       0.040  -0.117   0.819  0.00  0.00    -0.495 OA
ENDBRANCH  13  20
ENDBRANCH   1  16
BRANCH  11  21
ATOM     21  C   UNL     1       7.457  -6.288  -0.486  0.00  0.00    +0.018 A 
ATOM     22  C   UNL     1       6.398  -7.169  -0.737  0.00  0.00    +0.011 A 
ATOM     23  C   UNL     1       6.599  -8.528  -0.642  0.00  0.00    +0.001 A 
ATOM     24  C   UNL     1       7.845  -9.029  -0.300  0.00  0.00    +0.004 A 
ATOM     25  C   UNL     1       8.899  -8.172  -0.049  0.00  0.00    +0.046 A 
ATOM     26  C   UNL     1       8.719  -6.802  -0.144  0.00  0.00    +0.124 A 
BRANCH  26  27
ATOM     27  O   UNL     1       9.756  -5.959   0.096  0.00  0.00    -0.506 OA
ATOM     28  H   UNL     1       9.836  -5.688   1.021  0.00  0.00    +0.292 HD
ENDBRANCH  26  27
ENDBRANCH  11  21
BRANCH   3  29
ATOM     29  C   UNL     1       0.378  -5.497  -5.545  0.00  0.00    -0.002 A 
ATOM     30  C   UNL     1      -0.734  -5.054  -6.267  0.00  0.00    +0.013 A 
ATOM     31  C   UNL     1      -1.507  -5.958  -6.962  0.00  0.00    +0.046 A 
ATOM     32  C   UNL     1      -1.183  -7.309  -6.946  0.00  0.00    +0.120 A 
ATOM     33  C   UNL     1      -0.080  -7.754  -6.231  0.00  0.00    +0.046 A 
ATOM     34  C   UNL     1       0.703  -6.857  -5.537  0.00  0.00    +0.013 A 
BRANCH  32  35
ATOM     35  O   UNL     1      -1.949  -8.196  -7.633  0.00  0.00    -0.495 OA
ATOM     36  C   UNL     1      -1.560  -9.570  -7.574  0.00  0.00    +0.277 C 
ENDBRANCH  32  35
ENDBRANCH   3  29
TORSDOF 6
