REMARK  Name = ZINC34829988
REMARK  7 active torsions:
REMARK  status: ('A' for Active; 'I' for Inactive)
REMARK    1  A    between atoms: C_1  and  C_2
REMARK    2  A    between atoms: C_7  and  C_8
REMARK    3  A    between atoms: N_17  and  C_18
REMARK    4  A    between atoms: C_18  and  C_19
REMARK    5  A    between atoms: N_24  and  S_29
REMARK    6  A    between atoms: C_25  and  C_28
REMARK    7  A    between atoms: S_29  and  C_32
REMARK                            x       y       z     vdW  Elec       q    Type
REMARK                         _______ _______ _______ _____ _____    ______ ____
ROOT
ATOM      1  C   UNL     1      -1.369  -1.368   3.551  0.00  0.00    +0.020 C 
ENDROOT
BRANCH   1  10
ATOM      2  C   UNL     1       0.243   0.050   2.492  0.00  0.00    -0.005 C 
ATOM      3  C   UNL     1       1.644   0.640   2.620  0.00  0.00    -0.047 A 
ATOM      4  C   UNL     1       2.341   1.229   1.568  0.00  0.00    +0.010 A 
ATOM      5  C   UNL     1       3.583   1.725   1.772  0.00  0.00    +0.045 A 
ATOM      6  S   UNL     1       3.839   1.376   3.506  0.00  0.00    -0.101 S 
ATOM      7  C   UNL     1       2.280   0.602   3.825  0.00  0.00    -0.010 A 
ATOM      8  C   UNL     1       1.740   0.030   5.095  0.00  0.00    +0.024 C 
ATOM      9  C   UNL     1       0.230  -0.194   4.897  0.00  0.00    -0.072 C 
ATOM     10  N   UNL     1       0.012  -0.871   3.611  0.00  0.00    +0.393 N 
ATOM     11  H   UNL     1       0.648  -1.651   3.536  0.00  0.00    -0.080 HD
BRANCH   2  18
ATOM     12  C   UNL     1      -0.648   1.422   0.111  0.00  0.00    +0.044 C 
ATOM     13  C   UNL     1      -0.299  -0.043   0.050  0.00  0.00    -0.049 A 
ATOM     14  C   UNL     1      -0.400  -0.728  -1.146  0.00  0.00    +0.003 A 
ATOM     15  C   UNL     1      -0.080  -2.072  -1.202  0.00  0.00    +0.000 A 
ATOM     16  C   UNL     1       0.341  -2.730  -0.061  0.00  0.00    +0.000 A 
ATOM     17  C   UNL     1       0.443  -2.044   1.134  0.00  0.00    +0.002 A 
ATOM     18  C   UNL     1       0.127  -0.699   1.189  0.00  0.00    -0.054 A 
ENDBRANCH   2  18
ENDBRANCH   1  10
BRANCH   1  19
ATOM     19  C   UNL     1      -1.577  -2.406   4.623  0.00  0.00    +0.199 C 
ATOM     20  O   UNL     1      -0.664  -2.703   5.365  0.00  0.00    -0.278 OA
ATOM     21  N   UNL     1      -2.777  -3.005   4.759  0.00  0.00    -0.300 N 
ATOM     22  C   UNL     1      -3.890  -2.659   3.864  0.00  0.00    +0.125 C 
ATOM     23  C   UNL     1      -5.090  -2.230   4.718  0.00  0.00    +0.129 C 
ATOM     24  N   UNL     1      -5.308  -3.240   5.762  0.00  0.00    -0.171 NA
ATOM     25  C   UNL     1      -4.195  -3.586   6.657  0.00  0.00    +0.094 C 
ATOM     26  C   UNL     1      -2.994  -4.019   5.800  0.00  0.00    +0.128 C 
ATOM     27  C   UNL     1      -3.818  -2.367   7.503  0.00  0.00    +0.027 C 
BRANCH  24  28
ATOM     28  S   UNL     1      -6.783  -3.975   5.929  0.00  0.00    +0.061 S 
ATOM     29  O   UNL     1      -6.862  -4.428   7.274  0.00  0.00    -0.153 OA
ATOM     30  O   UNL     1      -7.743  -3.093   5.364  0.00  0.00    -0.153 OA
BRANCH  28  31
ATOM     31  C   UNL     1      -6.764  -5.415   4.913  0.00  0.00    +0.105 A 
ATOM     32  C   UNL     1      -7.175  -5.337   3.596  0.00  0.00    +0.028 A 
ATOM     33  C   UNL     1      -7.161  -6.467   2.799  0.00  0.00    +0.002 A 
ATOM     34  C   UNL     1      -6.735  -7.674   3.320  0.00  0.00    +0.000 A 
ATOM     35  C   UNL     1      -6.323  -7.752   4.637  0.00  0.00    +0.002 A 
ATOM     36  C   UNL     1      -6.333  -6.622   5.433  0.00  0.00    +0.028 A 
ENDBRANCH  28  31
ENDBRANCH  24  28
ENDBRANCH   1  19
TORSDOF 5
