REMARK  Name = ZINC61307032
REMARK  10 active torsions:
REMARK  status: ('A' for Active; 'I' for Inactive)
REMARK    1  A    between atoms: C_1  and  C_2
REMARK    2  A    between atoms: C_2  and  C_3
REMARK    3  A    between atoms: C_3  and  C_4
REMARK    4  A    between atoms: C_4  and  C_5
REMARK    5  A    between atoms: C_5  and  N_6
REMARK    6  A    between atoms: C_7  and  C_9
REMARK    7  A    between atoms: C_9  and  C_10
REMARK    8  A    between atoms: C_9  and  N_11
REMARK    9  A    between atoms: C_14  and  C_17
REMARK   10  A    between atoms: C_22  and  C_25
REMARK                            x       y       z     vdW  Elec       q    Type
REMARK                         _______ _______ _______ _____ _____    ______ ____
ROOT
ATOM      1  N   UNL     1       2.607  -6.697  -4.821  0.00  0.00    +0.387 N 
ATOM      2  C   UNL     1       3.987  -6.211  -4.931  0.00  0.00    -0.077 C 
ATOM      3  C   UNL     1       4.573  -6.628  -6.282  0.00  0.00    -0.006 C 
ATOM      4  C   UNL     1       4.559  -8.156  -6.388  0.00  0.00    +0.072 C 
ATOM      5  C   UNL     1       3.124  -8.657  -6.198  0.00  0.00    -0.006 C 
ATOM      6  C   UNL     1       2.592  -8.165  -4.850  0.00  0.00    -0.077 C 
ATOM      7  H   UNL     1       2.064  -6.341  -5.594  0.00  0.00    -0.081 HD
ENDROOT
BRANCH   4   8
ATOM      8  C   UNL     1       5.062  -8.571  -7.746  0.00  0.00    +0.219 C 
ATOM      9  O   UNL     1       5.027  -7.788  -8.671  0.00  0.00    -0.275 OA
ATOM     10  N   UNL     1       5.551  -9.813  -7.933  0.00  0.00    -0.301 N 
ATOM     11  C   UNL     1       5.695 -10.739  -6.801  0.00  0.00    +0.108 C 
ATOM     12  C   UNL     1       4.975 -12.048  -7.139  0.00  0.00    +0.032 C 
ATOM     13  C   UNL     1       5.508 -12.590  -8.467  0.00  0.00    +0.078 C 
ATOM     14  C   UNL     1       5.226 -11.582  -9.583  0.00  0.00    +0.032 C 
ATOM     15  C   UNL     1       5.944 -10.269  -9.273  0.00  0.00    +0.108 C 
BRANCH  13  16
ATOM     16  C   UNL     1       4.826 -13.896  -8.786  0.00  0.00    +0.214 C 
ATOM     17  O   UNL     1       3.995 -14.347  -8.027  0.00  0.00    -0.276 OA
ATOM     18  N   UNL     1       5.139 -14.561  -9.916  0.00  0.00    -0.329 N 
ATOM     19  H   UNL     1       5.803 -14.200 -10.523  0.00  0.00    +0.145 HD
ATOM     20  H   UNL     1       4.700 -15.401 -10.121  0.00  0.00    +0.145 HD
ENDBRANCH  13  16
ENDBRANCH   4   8
BRANCH   1  21
ATOM     21  C   UNL     1       2.023  -6.228  -3.558  0.00  0.00    +0.016 C 
ATOM     22  C   UNL     1       0.604  -6.784  -3.414  0.00  0.00    -0.004 C 
BRANCH  21  24
ATOM     23  N   UNL     1       2.022  -4.048  -2.389  0.00  0.00    -0.317 N 
ATOM     24  C   UNL     1       1.975  -4.722  -3.555  0.00  0.00    +0.199 C 
ATOM     25  O   UNL     1       1.894  -4.116  -4.603  0.00  0.00    -0.278 OA
ATOM     26  H   UNL     1       2.087  -4.533  -1.551  0.00  0.00    +0.149 HD
BRANCH  23  27
ATOM     27  C   UNL     1       1.975  -2.584  -2.386  0.00  0.00    +0.104 C 
BRANCH  27  28
ATOM     28  C   UNL     1       2.044  -2.074  -0.945  0.00  0.00    +0.019 C 
BRANCH  28  29
ATOM     29  C   UNL     1       1.995  -0.545  -0.943  0.00  0.00    +0.001 C 
BRANCH  29  31
ATOM     30  C   UNL     1       2.015   1.494   0.501  0.00  0.00    +0.004 C 
ATOM     31  C   UNL     1       2.064  -0.035   0.498  0.00  0.00    -0.003 C 
ENDBRANCH  29  31
ENDBRANCH  28  29
ENDBRANCH  27  28
ENDBRANCH  23  27
ENDBRANCH  21  24
ENDBRANCH   1  21
TORSDOF 8
