REMARK  Name = ZINC42161606
REMARK  4 active torsions:
REMARK  status: ('A' for Active; 'I' for Inactive)
REMARK    1  A    between atoms: C_5  and  S_7
REMARK    2  A    between atoms: S_7  and  N_10
REMARK    3  A    between atoms: C_14  and  C_16
REMARK    4  A    between atoms: C_16  and  C_17
REMARK                            x       y       z     vdW  Elec       q    Type
REMARK                         _______ _______ _______ _____ _____    ______ ____
ROOT
ATOM      1  S   UNL     1       1.304  -2.529   0.101  0.00  0.00    +0.062 S 
ATOM      2  O   UNL     1      -0.017  -2.087  -0.182  0.00  0.00    -0.153 OA
ATOM      3  O   UNL     1       2.233  -1.736   0.829  0.00  0.00    -0.153 OA
ENDROOT
BRANCH   1   8
ATOM      4  C   UNL     1       1.807  -5.486   2.775  0.00  0.00    +0.002 A 
ATOM      5  C   UNL     1       0.909  -6.443   2.341  0.00  0.00    +0.001 A 
ATOM      6  C   UNL     1       0.132  -6.206   1.223  0.00  0.00    +0.017 A 
ATOM      7  C   UNL     1       0.252  -5.010   0.538  0.00  0.00    +0.044 A 
ATOM      8  C   UNL     1       1.150  -4.052   0.973  0.00  0.00    +0.119 A 
ATOM      9  C   UNL     1       1.927  -4.290   2.091  0.00  0.00    +0.029 A 
ATOM     10 BR   UNL     1      -0.811  -4.685  -0.992  0.00  0.00    -0.048 Br
ENDBRANCH   1   8
BRANCH   1  11
ATOM     11  N   UNL     1       2.012  -2.868  -1.357  0.00  0.00    -0.173 NA
ATOM     12  C   UNL     1       1.307  -2.997  -2.645  0.00  0.00    +0.110 C 
ATOM     13  C   UNL     1       2.228  -3.889  -3.514  0.00  0.00    +0.019 C 
ATOM     14  C   UNL     1       3.635  -3.398  -3.082  0.00  0.00    +0.022 C 
ATOM     15  C   UNL     1       3.449  -3.086  -1.582  0.00  0.00    +0.091 C 
BRANCH  15  16
ATOM     16  C   UNL     1       4.231  -1.825  -1.209  0.00  0.00    +0.145 C 
BRANCH  16  17
ATOM     17  C   UNL     1       5.707  -2.086  -1.360  0.00  0.00    +0.358 C 
ATOM     18  O   UNL     1       6.103  -3.205  -1.639  0.00  0.00    -0.246 OA
ATOM     19  O   UNL     1       6.506  -1.178  -1.204  0.00  0.00    -0.246 OA
ENDBRANCH  16  17
ENDBRANCH  15  16
ENDBRANCH   1  11
TORSDOF 4
