REMARK  Name = ZINC00651974
REMARK  12 active torsions:
REMARK  status: ('A' for Active; 'I' for Inactive)
REMARK    1  A    between atoms: C_1  and  C_2
REMARK    2  A    between atoms: C_3  and  C_34
REMARK    3  A    between atoms: C_4  and  C_22
REMARK    4  A    between atoms: C_10  and  C_15
REMARK    5  A    between atoms: C_24  and  O_32
REMARK    6  A    between atoms: C_25  and  O_30
REMARK    7  A    between atoms: C_26  and  O_28
REMARK    8  A    between atoms: O_28  and  C_29
REMARK    9  A    between atoms: O_30  and  C_31
REMARK   10  A    between atoms: O_32  and  C_33
REMARK   11  A    between atoms: C_34  and  O_36
REMARK   12  A    between atoms: O_36  and  C_37
REMARK                            x       y       z     vdW  Elec       q    Type
REMARK                         _______ _______ _______ _____ _____    ______ ____
ROOT
ATOM      1  C   UNL     1      -7.397  -1.116   2.652  0.00  0.00    +0.061 C 
ATOM      2  C   UNL     1      -6.386  -2.015   1.988  0.00  0.00    +0.016 C 
ATOM      3  C   UNL     1      -5.998  -1.766   0.725  0.00  0.00    +0.065 C 
ATOM      4  C   UNL     1      -4.987  -2.635   0.035  0.00  0.00    +0.092 C 
ATOM      5  C   UNL     1      -4.843  -3.961   0.739  0.00  0.00    +0.024 C 
ATOM      6  C   UNL     1      -5.283  -4.121   2.005  0.00  0.00    +0.016 C 
ATOM      7  N   UNL     1      -5.871  -3.080   2.673  0.00  0.00    -0.321 N 
ATOM      8  C   UNL     1      -5.145  -5.445   2.715  0.00  0.00    +0.059 C 
ATOM      9  C   UNL     1      -3.902  -6.176   2.202  0.00  0.00    +0.032 C 
ATOM     10  C   UNL     1      -4.040  -6.365   0.688  0.00  0.00    +0.088 C 
ATOM     11  C   UNL     1      -4.237  -5.021   0.043  0.00  0.00    +0.162 C 
ATOM     12  O   UNL     1      -3.864  -4.847  -1.101  0.00  0.00    -0.292 OA
ATOM     13  H   UNL     1      -5.926  -3.106   3.772  0.00  0.00    +0.152 HD
ENDROOT
BRANCH   9  14
ATOM     14  C   UNL     1      -3.793  -7.521   2.873  0.00  0.00    -0.043 A 
ATOM     15  C   UNL     1      -4.819  -8.439   2.751  0.00  0.00    +0.005 A 
ATOM     16  C   UNL     1      -4.717  -9.675   3.361  0.00  0.00    +0.020 A 
ATOM     17  C   UNL     1      -3.592  -9.989   4.104  0.00  0.00    +0.041 A 
ATOM     18  C   UNL     1      -2.568  -9.067   4.231  0.00  0.00    +0.020 A 
ATOM     19  C   UNL     1      -2.669  -7.833   3.615  0.00  0.00    +0.005 A 
ATOM     20 CL   UNL     1      -3.467 -11.538   4.877  0.00  0.00    -0.084 Cl
ENDBRANCH   9  14
BRANCH   4  21
ATOM     21  C   UNL     1      -3.655  -1.931   0.027  0.00  0.00    -0.028 A 
ATOM     22  C   UNL     1      -3.057  -1.603  -1.176  0.00  0.00    +0.054 A 
ATOM     23  C   UNL     1      -1.830  -0.957  -1.188  0.00  0.00    +0.165 A 
ATOM     24  C   UNL     1      -1.202  -0.638   0.010  0.00  0.00    +0.204 A 
ATOM     25  C   UNL     1      -1.804  -0.975   1.217  0.00  0.00    +0.165 A 
ATOM     26  C   UNL     1      -3.033  -1.617   1.221  0.00  0.00    +0.054 A 
BRANCH  25  27
ATOM     27  O   UNL     1      -1.191  -0.670   2.392  0.00  0.00    -0.491 OA
ATOM     28  C   UNL     1      -1.868  -1.046   3.593  0.00  0.00    +0.277 C 
ENDBRANCH  25  27
BRANCH  24  29
ATOM     29  O   UNL     1       0.002  -0.004   0.002  0.00  0.00    -0.488 OA
ATOM     30  C   UNL     1      -0.017   1.425   0.010  0.00  0.00    +0.277 C 
ENDBRANCH  24  29
BRANCH  23  31
ATOM     31  O   UNL     1      -1.242  -0.634  -2.372  0.00  0.00    -0.491 OA
ATOM     32  C   UNL     1      -1.945  -0.992  -3.563  0.00  0.00    +0.277 C 
ENDBRANCH  23  31
ENDBRANCH   4  21
BRANCH   3  33
ATOM     33  C   UNL     1      -6.552  -0.663   0.034  0.00  0.00    +0.337 C 
ATOM     34  O   UNL     1      -7.372   0.049   0.582  0.00  0.00    -0.245 OA
BRANCH  33  35
ATOM     35  O   UNL     1      -6.171  -0.401  -1.234  0.00  0.00    -0.465 OA
ATOM     36  C   UNL     1      -6.771   0.729  -1.871  0.00  0.00    +0.280 C 
ENDBRANCH  33  35
ENDBRANCH   3  33
TORSDOF 7
