REMARK  Name = ZINC13752254
REMARK  11 active torsions:
REMARK  status: ('A' for Active; 'I' for Inactive)
REMARK    1  A    between atoms: C_1  and  C_2
REMARK    2  A    between atoms: C_2  and  C_3
REMARK    3  A    between atoms: C_3  and  C_4
REMARK    4  A    between atoms: C_4  and  C_5
REMARK    5  A    between atoms: C_5  and  N_6
REMARK    6  A    between atoms: C_10  and  C_11
REMARK    7  A    between atoms: C_12  and  N_22
REMARK    8  A    between atoms: N_22  and  C_23
REMARK    9  A    between atoms: C_23  and  C_24
REMARK   10  A    between atoms: C_24  and  C_26
REMARK   11  A    between atoms: C_24  and  O_32
REMARK                            x       y       z     vdW  Elec       q    Type
REMARK                         _______ _______ _______ _____ _____    ______ ____
ROOT
ATOM      1  C   UNL     1      -0.001  -2.728   0.003  0.00  0.00    +0.081 A 
ATOM      2  C   UNL     1      -1.188  -2.011   0.280  0.00  0.00    +0.134 A 
ATOM      3  N   UNL     1      -1.163  -0.686   0.294  0.00  0.00    -0.214 NA
ATOM      4  C   UNL     1      -0.042  -0.005   0.055  0.00  0.00    +0.142 A 
ATOM      5  C   UNL     1      -0.076   1.401   0.085  0.00  0.00    +0.047 A 
ATOM      6  C   UNL     1       1.065   2.106  -0.158  0.00  0.00    +0.005 A 
ATOM      7  C   UNL     1       2.256   1.420  -0.436  0.00  0.00    +0.018 A 
ATOM      8  C   UNL     1       2.270   0.069  -0.460  0.00  0.00    +0.096 A 
ATOM      9  N   UNL     1       1.135  -0.646  -0.217  0.00  0.00    -0.268 N 
ATOM     10  C   UNL     1       1.183  -1.995  -0.250  0.00  0.00    +0.267 A 
ATOM     11  O   UNL     1       2.229  -2.572  -0.493  0.00  0.00    -0.267 OA
ENDROOT
BRANCH   1  16
ATOM     12  N   UNL     1      -1.976  -6.622  -1.852  0.00  0.00    -0.255 N 
ATOM     13  C   UNL     1      -1.094  -6.212  -0.957  0.00  0.00    +0.258 C 
ATOM     14  O   UNL     1      -0.510  -7.007  -0.242  0.00  0.00    -0.269 OA
ATOM     15  C   UNL     1      -0.847  -4.813  -0.852  0.00  0.00    +0.077 C 
ATOM     16  C   UNL     1       0.003  -4.142  -0.020  0.00  0.00    +0.037 C 
ATOM     17  S   UNL     1      -1.957  -4.175  -2.099  0.00  0.00    -0.061 S 
ATOM     18  C   UNL     1      -2.624  -5.740  -2.644  0.00  0.00    +0.121 C 
ATOM     19  S   UNL     1      -3.792  -6.044  -3.859  0.00  0.00    -0.027 S 
BRANCH  12  20
ATOM     20  C   UNL     1      -2.254  -8.054  -1.987  0.00  0.00    +0.115 C 
BRANCH  20  21
ATOM     21  C   UNL     1      -3.401  -8.441  -1.051  0.00  0.00    +0.019 C 
BRANCH  21  22
ATOM     22  C   UNL     1      -3.691  -9.937  -1.192  0.00  0.00    +0.001 C 
BRANCH  22  24
ATOM     23  C   UNL     1      -5.128 -11.820  -0.397  0.00  0.00    +0.004 C 
ATOM     24  C   UNL     1      -4.838 -10.324  -0.256  0.00  0.00    -0.003 C 
ENDBRANCH  22  24
ENDBRANCH  21  22
ENDBRANCH  20  21
ENDBRANCH  12  20
ENDBRANCH   1  16
BRANCH   2  25
ATOM     25  N   UNL     1      -2.363  -2.685   0.533  0.00  0.00    -0.326 N 
ATOM     26  H   UNL     1      -2.378  -3.655   0.521  0.00  0.00    +0.148 HD
BRANCH  25  27
ATOM     27  C   UNL     1      -3.590  -1.937   0.819  0.00  0.00    +0.139 C 
BRANCH  27  28
ATOM     28  C   UNL     1      -4.740  -2.917   1.061  0.00  0.00    +0.161 C 
BRANCH  28  29
ATOM     29  C   UNL     1      -6.026  -2.150   1.233  0.00  0.00    -0.018 A 
ATOM     30  C   UNL     1      -6.322  -1.563   2.449  0.00  0.00    +0.006 A 
ATOM     31  C   UNL     1      -7.500  -0.855   2.606  0.00  0.00    +0.000 A 
ATOM     32  C   UNL     1      -8.384  -0.743   1.550  0.00  0.00    +0.000 A 
ATOM     33  C   UNL     1      -8.090  -1.334   0.336  0.00  0.00    +0.000 A 
ATOM     34  C   UNL     1      -6.911  -2.037   0.177  0.00  0.00    +0.006 A 
ENDBRANCH  28  29
BRANCH  28  35
ATOM     35  O   UNL     1      -4.477  -3.677   2.241  0.00  0.00    -0.386 OA
ATOM     36  H   UNL     1      -4.385  -3.142   3.042  0.00  0.00    +0.210 HD
ENDBRANCH  28  35
ENDBRANCH  27  28
ENDBRANCH  25  27
ENDBRANCH   2  25
TORSDOF 10
