REMARK  Name = ZINC28056131
REMARK  9 active torsions:
REMARK  status: ('A' for Active; 'I' for Inactive)
REMARK    1  A    between atoms: C_1  and  C_2
REMARK    2  A    between atoms: C_2  and  O_3
REMARK    3  A    between atoms: O_3  and  C_4
REMARK    4  A    between atoms: C_7  and  C_12
REMARK    5  A    between atoms: C_9  and  O_10
REMARK    6  A    between atoms: O_10  and  C_11
REMARK    7  A    between atoms: C_30  and  C_32
REMARK    8  A    between atoms: C_35  and  O_38
REMARK    9  A    between atoms: O_38  and  C_39
REMARK                            x       y       z     vdW  Elec       q    Type
REMARK                         _______ _______ _______ _____ _____    ______ ____
ROOT
ATOM      1  C   UNL     1       2.925   1.050   2.559  0.00  0.00    +0.234 C 
ATOM      2  C   UNL     1       3.370   1.500   1.186  0.00  0.00    +0.025 C 
ATOM      3  C   UNL     1       4.461   2.260   1.073  0.00  0.00    +0.050 C 
ATOM      4  C   UNL     1       5.210   2.606   2.305  0.00  0.00    +0.039 A 
ATOM      5  C   UNL     1       6.135   3.642   2.326  0.00  0.00    +0.033 A 
ATOM      6  C   UNL     1       6.813   3.927   3.498  0.00  0.00    +0.042 A 
ATOM      7  C   UNL     1       6.572   3.185   4.642  0.00  0.00    +0.023 A 
ATOM      8  C   UNL     1       5.652   2.152   4.629  0.00  0.00    +0.048 A 
ATOM      9  C   UNL     1       4.967   1.858   3.465  0.00  0.00    +0.131 A 
ATOM     10  O   UNL     1       4.052   0.856   3.413  0.00  0.00    -0.479 OA
ATOM     11 CL   UNL     1       7.970   5.221   3.534  0.00  0.00    -0.084 Cl
ATOM     12  N   UNL     1       4.923   2.726  -0.163  0.00  0.00    -0.282 N 
ATOM     13  C   UNL     1       4.387   2.146  -1.301  0.00  0.00    +0.240 A 
ATOM     14  N   UNL     1       4.763   2.190  -2.546  0.00  0.00    -0.092 NA
ATOM     15  N   UNL     1       3.970   1.483  -3.277  0.00  0.00    -0.021 NA
ATOM     16  N   UNL     1       3.044   0.948  -2.550  0.00  0.00    -0.042 NA
ATOM     17  N   UNL     1       3.278   1.363  -1.240  0.00  0.00    -0.201 N 
ATOM     18  C   UNL     1       2.553   1.078  -0.010  0.00  0.00    +0.174 C 
ATOM     19  H   UNL     1       5.682   3.522  -0.202  0.00  0.00    +0.155 HD
ENDROOT
BRANCH   1  23
ATOM     20  C   UNL     1       0.362   4.023   4.256  0.00  0.00    +0.162 A 
ATOM     21  C   UNL     1      -0.171   2.837   3.775  0.00  0.00    +0.050 A 
ATOM     22  C   UNL     1       0.660   1.878   3.228  0.00  0.00    +0.011 A 
ATOM     23  C   UNL     1       2.023   2.099   3.157  0.00  0.00    +0.001 A 
ATOM     24  C   UNL     1       2.562   3.277   3.640  0.00  0.00    +0.057 A 
ATOM     25  C   UNL     1       1.734   4.245   4.186  0.00  0.00    +0.162 A 
BRANCH  25  26
ATOM     26  O   UNL     1       2.261   5.406   4.657  0.00  0.00    -0.491 OA
ATOM     27  C   UNL     1       3.659   5.616   4.448  0.00  0.00    +0.277 C 
ENDBRANCH  25  26
BRANCH  20  28
ATOM     28  O   UNL     1      -0.455   4.967   4.796  0.00  0.00    -0.489 OA
BRANCH  28  30
ATOM     29  C   UNL     1      -2.604   5.842   5.472  0.00  0.00    +0.048 C 
ATOM     30  C   UNL     1      -1.852   4.671   4.835  0.00  0.00    +0.226 C 
ENDBRANCH  28  30
ENDBRANCH  20  28
ENDBRANCH   1  23
BRANCH  18  31
ATOM     31  C   UNL     1       1.248   1.832  -0.014  0.00  0.00    -0.018 A 
ATOM     32  C   UNL     1       0.051   1.140  -0.030  0.00  0.00    +0.009 A 
ATOM     33  C   UNL     1      -1.147   1.829  -0.040  0.00  0.00    +0.046 A 
ATOM     34  C   UNL     1      -1.148   3.216  -0.021  0.00  0.00    +0.120 A 
ATOM     35  C   UNL     1       0.054   3.908  -0.004  0.00  0.00    +0.046 A 
ATOM     36  C   UNL     1       1.249   3.215  -0.000  0.00  0.00    +0.009 A 
BRANCH  34  37
ATOM     37  O   UNL     1      -2.324   3.896  -0.025  0.00  0.00    -0.495 OA
ATOM     38  C   UNL     1      -3.523   3.118  -0.043  0.00  0.00    +0.277 C 
ENDBRANCH  34  37
ENDBRANCH  18  31
TORSDOF 6
