REMARK  Name = ZINC13980027
REMARK  8 active torsions:
REMARK  status: ('A' for Active; 'I' for Inactive)
REMARK    1  A    between atoms: C_4  and  C_7
REMARK    2  A    between atoms: C_12  and  O_13
REMARK    3  A    between atoms: O_13  and  C_14
REMARK    4  A    between atoms: C_14  and  C_15
REMARK    5  A    between atoms: N_17  and  N_18
REMARK    6  A    between atoms: N_18  and  C_19
REMARK    7  A    between atoms: C_19  and  N_21
REMARK    8  A    between atoms: C_22  and  C_24
REMARK                            x       y       z     vdW  Elec       q    Type
REMARK                         _______ _______ _______ _____ _____    ______ ____
ROOT
ATOM      1  C   UNL     1       3.518  -1.061  -0.037  0.00  0.00    +0.267 C 
ATOM      2  O   UNL     1       4.560  -0.441  -0.044  0.00  0.00    -0.271 OA
ATOM      3  N   UNL     1       2.342  -0.403  -0.022  0.00  0.00    -0.232 N 
ATOM      4  H   UNL     1       1.509  -0.900  -0.017  0.00  0.00    +0.173 HD
ENDROOT
BRANCH   3   5
ATOM      5  N   UNL     1       2.323   0.998  -0.015  0.00  0.00    -0.245 N 
ATOM      6  H   UNL     1       3.156   1.494  -0.020  0.00  0.00    +0.172 HD
BRANCH   5   7
ATOM      7  C   UNL     1       1.147   1.655   0.000  0.00  0.00    +0.153 C 
ATOM      8  S   UNL     1       1.124   3.367   0.009  0.00  0.00    -0.017 S 
BRANCH   7   9
ATOM      9  N   UNL     1      -0.011   0.966   0.007  0.00  0.00    -0.263 N 
ATOM     10  C   UNL     1      -1.187   1.624   0.017  0.00  0.00    +0.251 C 
ATOM     11  O   UNL     1      -1.204   2.839   0.023  0.00  0.00    -0.270 OA
ATOM     12  H   UNL     1       0.002  -0.004   0.002  0.00  0.00    +0.157 HD
BRANCH  10  13
ATOM     13  C   UNL     1      -2.456   0.868   0.018  0.00  0.00    +0.051 A 
ATOM     14  C   UNL     1      -2.441  -0.528   0.005  0.00  0.00    +0.014 A 
ATOM     15  C   UNL     1      -3.630  -1.228   0.012  0.00  0.00    +0.001 A 
ATOM     16  C   UNL     1      -4.836  -0.550   0.022  0.00  0.00    +0.001 A 
ATOM     17  C   UNL     1      -4.860   0.833   0.030  0.00  0.00    +0.016 A 
ATOM     18  C   UNL     1      -3.677   1.547   0.028  0.00  0.00    +0.030 A 
ATOM     19 BR   UNL     1      -3.711   3.437   0.038  0.00  0.00    -0.050 Br
ENDBRANCH  10  13
ENDBRANCH   7   9
ENDBRANCH   5   7
ENDBRANCH   3   5
BRANCH   1  20
ATOM     20  C   UNL     1       3.539  -2.568  -0.045  0.00  0.00    +0.326 C 
BRANCH  20  21
ATOM     21  O   UNL     1       4.892  -3.026  -0.061  0.00  0.00    -0.482 OA
BRANCH  21  27
ATOM     22  C   UNL     1       6.386  -4.889  -0.091  0.00  0.00    +0.024 A 
ATOM     23  C   UNL     1       6.577  -6.269  -0.096  0.00  0.00    +0.012 A 
ATOM     24  C   UNL     1       5.487  -7.116  -0.090  0.00  0.00    +0.001 A 
ATOM     25  C   UNL     1       4.204  -6.598  -0.074  0.00  0.00    +0.004 A 
ATOM     26  C   UNL     1       4.003  -5.231  -0.064  0.00  0.00    +0.046 A 
ATOM     27  C   UNL     1       5.088  -4.370  -0.070  0.00  0.00    +0.129 A 
BRANCH  22  31
ATOM     28  C   UNL     1       9.735  -2.269  -0.125  0.00  0.00    +0.000 A 
ATOM     29  C   UNL     1       9.680  -3.306   0.789  0.00  0.00    +0.001 A 
ATOM     30  C   UNL     1       8.596  -4.159   0.805  0.00  0.00    +0.008 A 
ATOM     31  C   UNL     1       7.554  -3.975  -0.103  0.00  0.00    -0.014 A 
ATOM     32  C   UNL     1       7.617  -2.933  -1.026  0.00  0.00    +0.008 A 
ATOM     33  C   UNL     1       8.704  -2.082  -1.028  0.00  0.00    +0.001 A 
ENDBRANCH  22  31
ENDBRANCH  21  27
ENDBRANCH  20  21
ENDBRANCH   1  20
TORSDOF 8
