REMARK  Name = ZINC21225950
REMARK  8 active torsions:
REMARK  status: ('A' for Active; 'I' for Inactive)
REMARK    1  A    between atoms: C_1  and  C_2
REMARK    2  A    between atoms: C_2  and  O_3
REMARK    3  A    between atoms: O_3  and  C_4
REMARK    4  A    between atoms: C_6  and  C_12
REMARK    5  A    between atoms: C_9  and  O_10
REMARK    6  A    between atoms: C_23  and  C_26
REMARK    7  A    between atoms: C_30  and  O_32
REMARK    8  A    between atoms: O_32  and  C_33
REMARK                            x       y       z     vdW  Elec       q    Type
REMARK                         _______ _______ _______ _____ _____    ______ ____
ROOT
ATOM      1  C   UNL     1      -0.018   1.506   0.010  0.00  0.00    +0.063 C 
ATOM      2  C   UNL     1       1.417   2.034  -0.001  0.00  0.00    +0.109 C 
ATOM      3  C   UNL     1       2.217   1.310   1.052  0.00  0.00    +0.218 C 
ATOM      4  O   UNL     1       3.099   1.891   1.648  0.00  0.00    -0.275 OA
ATOM      5  N   UNL     1       1.954   0.021   1.331  0.00  0.00    -0.289 N 
ATOM      6  C   UNL     1       0.980  -0.667   0.654  0.00  0.00    +0.018 C 
ATOM      7  C   UNL     1       0.002  -0.004   0.002  0.00  0.00    +0.020 C 
ATOM      8  C   UNL     1      -1.010  -0.689  -0.691  0.00  0.00    +0.162 C 
ATOM      9  O   UNL     1      -1.868  -0.058  -1.275  0.00  0.00    -0.292 OA
ATOM     10  C   UNL     1      -1.047  -2.194  -0.722  0.00  0.00    +0.088 C 
ATOM     11  C   UNL     1      -0.395  -2.733   0.555  0.00  0.00    +0.032 C 
ATOM     12  C   UNL     1       1.027  -2.175   0.651  0.00  0.00    +0.059 C 
ATOM     13  H   UNL     1       2.525  -0.499   2.114  0.00  0.00    +0.155 HD
ENDROOT
BRANCH   1  16
ATOM     14  C   UNL     1      -2.509   3.221   2.276  0.00  0.00    +0.163 A 
ATOM     15  C   UNL     1      -1.856   2.777   1.137  0.00  0.00    +0.053 A 
ATOM     16  C   UNL     1      -0.723   1.993   1.250  0.00  0.00    -0.034 A 
ATOM     17  C   UNL     1      -0.233   1.658   2.499  0.00  0.00    +0.028 A 
ATOM     18  C   UNL     1      -0.876   2.102   3.640  0.00  0.00    +0.086 A 
ATOM     19  C   UNL     1      -2.016   2.885   3.533  0.00  0.00    +0.177 A 
ATOM     20 CL   UNL     1      -0.258   1.679   5.206  0.00  0.00    -0.080 Cl
BRANCH  19  21
ATOM     21  O   UNL     1      -2.650   3.322   4.653  0.00  0.00    -0.502 OA
ATOM     22  H   UNL     1      -2.259   3.055   5.646  0.00  0.00    +0.292 HD
ENDBRANCH  19  21
BRANCH  14  23
ATOM     23  O   UNL     1      -3.626   3.989   2.166  0.00  0.00    -0.489 OA
BRANCH  23  25
ATOM     24  C   UNL     1      -5.334   5.160   0.921  0.00  0.00    +0.048 C 
ATOM     25  C   UNL     1      -4.075   4.295   0.844  0.00  0.00    +0.226 C 
ENDBRANCH  23  25
ENDBRANCH  14  23
ENDBRANCH   1  16
BRANCH  11  26
ATOM     26  C   UNL     1      -0.344  -4.239   0.500  0.00  0.00    -0.040 A 
ATOM     27  C   UNL     1       0.331  -4.870  -0.529  0.00  0.00    +0.004 A 
ATOM     28  C   UNL     1       0.379  -6.250  -0.582  0.00  0.00    +0.004 A 
ATOM     29  C   UNL     1      -0.246  -7.003   0.393  0.00  0.00    +0.045 A 
ATOM     30  C   UNL     1      -0.924  -6.372   1.426  0.00  0.00    +0.120 A 
ATOM     31  C   UNL     1      -0.967  -4.986   1.480  0.00  0.00    +0.049 A 
BRANCH  30  32
ATOM     32  O   UNL     1      -1.540  -7.110   2.387  0.00  0.00    -0.495 OA
ATOM     33  C   UNL     1      -1.450  -8.531   2.271  0.00  0.00    +0.277 C 
ENDBRANCH  30  32
ENDBRANCH  11  26
TORSDOF 6
