REMARK  Name = ZINC00875609
REMARK  7 active torsions:
REMARK  status: ('A' for Active; 'I' for Inactive)
REMARK    1  A    between atoms: C_1  and  C_2
REMARK    2  A    between atoms: C_3  and  O_26
REMARK    3  A    between atoms: C_11  and  C_13
REMARK    4  A    between atoms: C_19  and  C_24
REMARK    5  A    between atoms: C_19  and  C_25
REMARK    6  A    between atoms: O_26  and  C_27
REMARK    7  A    between atoms: C_27  and  C_29
REMARK                            x       y       z     vdW  Elec       q    Type
REMARK                         _______ _______ _______ _____ _____    ______ ____
ROOT
ATOM      1  C   UNL     1       2.553   4.369   0.135  0.00  0.00    +0.051 C 
ATOM      2  C   UNL     1       1.314   3.529   0.309  0.00  0.00    +0.034 A 
ATOM      3  C   UNL     1       0.088   4.140   0.513  0.00  0.00    +0.138 A 
ATOM      4  C   UNL     1      -1.051   3.365   0.674  0.00  0.00    +0.047 A 
ATOM      5  C   UNL     1      -0.961   1.989   0.623  0.00  0.00    +0.011 A 
ATOM      6  C   UNL     1       0.264   1.374   0.422  0.00  0.00    +0.003 A 
ATOM      7  C   UNL     1       1.405   2.143   0.264  0.00  0.00    +0.134 A 
ATOM      8  O   UNL     1       2.626   1.580   0.065  0.00  0.00    -0.468 OA
ATOM      9  C   UNL     1       2.670   0.214  -0.344  0.00  0.00    +0.180 C 
ATOM     10  C   UNL     1       1.761  -0.603   0.581  0.00  0.00    +0.082 C 
ATOM     11  C   UNL     1       0.319  -0.133   0.375  0.00  0.00    +0.065 C 
ATOM     12  C   UNL     1       4.105  -0.310  -0.242  0.00  0.00    +0.094 C 
ATOM     13  C   UNL     1       4.973   0.440  -1.258  0.00  0.00    +0.033 C 
ATOM     14  N   UNL     1       4.383   0.299  -2.590  0.00  0.00    -0.321 N 
ATOM     15  C   UNL     1       3.061   0.143  -2.756  0.00  0.00    +0.133 C 
ATOM     16  S   UNL     1       2.442   0.005  -4.347  0.00  0.00    -0.019 S 
ATOM     17  N   UNL     1       2.205   0.091  -1.724  0.00  0.00    -0.289 N 
ATOM     18  C   UNL     1       5.037   1.921  -0.881  0.00  0.00    +0.031 C 
ATOM     19  C   UNL     1       6.384  -0.150  -1.259  0.00  0.00    +0.031 C 
ATOM     20  H   UNL     1       4.960   0.319  -3.370  0.00  0.00    +0.148 HD
ATOM     21  H   UNL     1       1.258  -0.031  -1.898  0.00  0.00    +0.151 HD
ENDROOT
BRANCH  11  22
ATOM     22  C   UNL     1      -0.554  -0.700   1.464  0.00  0.00    -0.003 A 
ATOM     23  C   UNL     1      -1.631  -1.517   1.357  0.00  0.00    +0.012 A 
ATOM     24  C   UNL     1      -2.286  -1.917   2.506  0.00  0.00    +0.008 A 
ATOM     25  C   UNL     1      -1.833  -1.481   3.707  0.00  0.00    +0.045 A 
ATOM     26  S   UNL     1      -0.435  -0.477   3.232  0.00  0.00    -0.101 S 
ENDBRANCH  11  22
BRANCH   3  27
ATOM     27  O   UNL     1       0.002   5.496   0.556  0.00  0.00    -0.426 OA
BRANCH  27  28
ATOM     28  C   UNL     1      -0.132   6.136  -0.617  0.00  0.00    +0.309 C 
ATOM     29  O   UNL     1      -0.263   5.504  -1.638  0.00  0.00    -0.251 OA
ATOM     30  C   UNL     1      -0.117   7.642  -0.659  0.00  0.00    +0.136 C 
ENDBRANCH  27  28
ENDBRANCH   3  27
TORSDOF 3
