REMARK  Name = ZINC13979772
REMARK  11 active torsions:
REMARK  status: ('A' for Active; 'I' for Inactive)
REMARK    1  A    between atoms: C_1  and  C_2
REMARK    2  A    between atoms: C_4  and  O_10
REMARK    3  A    between atoms: C_6  and  C_9
REMARK    4  A    between atoms: O_10  and  C_11
REMARK    5  A    between atoms: C_11  and  C_12
REMARK    6  A    between atoms: N_14  and  N_15
REMARK    7  A    between atoms: C_16  and  C_18
REMARK    8  A    between atoms: C_21  and  C_25
REMARK    9  A    between atoms: C_25  and  C_26
REMARK   10  A    between atoms: C_25  and  C_27
REMARK   11  A    between atoms: C_25  and  C_28
REMARK                            x       y       z     vdW  Elec       q    Type
REMARK                         _______ _______ _______ _____ _____    ______ ____
ROOT
ATOM      1  C   UNL     1      -6.149   2.808   0.128  0.00  0.00    +0.267 C 
ATOM      2  O   UNL     1      -6.080   1.603   0.253  0.00  0.00    -0.271 OA
ATOM      3  N   UNL     1      -5.023   3.539   0.008  0.00  0.00    -0.231 N 
ATOM      4  H   UNL     1      -5.078   4.502  -0.092  0.00  0.00    +0.173 HD
ENDROOT
BRANCH   3   5
ATOM      5  N   UNL     1      -3.772   2.907   0.027  0.00  0.00    -0.230 N 
ATOM      6  C   UNL     1      -2.646   3.638  -0.093  0.00  0.00    +0.260 C 
ATOM      7  O   UNL     1      -2.716   4.845  -0.218  0.00  0.00    -0.269 OA
ATOM      8  H   UNL     1      -3.717   1.944   0.127  0.00  0.00    +0.173 HD
BRANCH   6   9
ATOM      9  C   UNL     1      -1.327   2.971  -0.073  0.00  0.00    +0.039 A 
ATOM     10  C   UNL     1      -1.244   1.585   0.064  0.00  0.00    +0.013 A 
ATOM     11  C   UNL     1      -0.010   0.969   0.087  0.00  0.00    +0.006 A 
ATOM     12  C   UNL     1       1.145   1.722  -0.036  0.00  0.00    -0.028 A 
ATOM     13  C   UNL     1       1.070   3.097  -0.178  0.00  0.00    +0.022 A 
ATOM     14  C   UNL     1      -0.159   3.725  -0.197  0.00  0.00    +0.028 A 
ATOM     15 BR   UNL     1       2.654   4.116  -0.346  0.00  0.00    -0.050 Br
BRANCH  12  16
ATOM     16  C   UNL     1       2.489   1.042  -0.016  0.00  0.00    -0.012 C 
ATOM     17  C   UNL     1       2.295  -0.469   0.134  0.00  0.00    +0.015 C 
ATOM     18  C   UNL     1       3.228   1.333  -1.324  0.00  0.00    +0.015 C 
ATOM     19  C   UNL     1       3.311   1.569   1.162  0.00  0.00    +0.015 C 
ENDBRANCH  12  16
ENDBRANCH   6   9
ENDBRANCH   3   5
BRANCH   1  20
ATOM     20  C   UNL     1      -7.494   3.487   0.108  0.00  0.00    +0.326 C 
BRANCH  20  21
ATOM     21  O   UNL     1      -8.524   2.508   0.251  0.00  0.00    -0.483 OA
BRANCH  21  25
ATOM     22  C   UNL     1     -13.301   1.546   0.536  0.00  0.00    +0.045 C 
ATOM     23  C   UNL     1     -12.160   2.520   0.389  0.00  0.00    -0.028 A 
ATOM     24  C   UNL     1     -10.857   2.061   0.387  0.00  0.00    +0.050 A 
ATOM     25  C   UNL     1      -9.807   2.957   0.252  0.00  0.00    +0.122 A 
ATOM     26  C   UNL     1     -10.068   4.314   0.125  0.00  0.00    +0.050 A 
ATOM     27  C   UNL     1     -11.372   4.768   0.122  0.00  0.00    -0.028 A 
ATOM     28  C   UNL     1     -12.418   3.873   0.256  0.00  0.00    +0.047 A 
ATOM     29 CL   UNL     1     -14.056   4.447   0.258  0.00  0.00    -0.083 Cl
ATOM     30  C   UNL     1     -11.656   6.241  -0.023  0.00  0.00    +0.045 C 
ENDBRANCH  21  25
ENDBRANCH  20  21
ENDBRANCH   1  20
TORSDOF 6
