REMARK  Name = ZINC03169980
REMARK  6 active torsions:
REMARK  status: ('A' for Active; 'I' for Inactive)
REMARK    1  A    between atoms: C_5  and  N_7
REMARK    2  A    between atoms: N_7  and  N_8
REMARK    3  A    between atoms: C_14  and  C_16
REMARK    4  A    between atoms: C_14  and  C_18
REMARK    5  A    between atoms: C_16  and  O_17
REMARK    6  A    between atoms: C_18  and  O_19
REMARK                            x       y       z     vdW  Elec       q    Type
REMARK                         _______ _______ _______ _____ _____    ______ ____
ROOT
ATOM      1  N   UNL     1      -0.840  -0.720   0.698  0.00  0.00    -0.160 NA
ATOM      2  C   UNL     1       0.002  -0.004   0.002  0.00  0.00    +0.222 C 
ATOM      3  C   UNL     1       1.048  -0.615  -0.854  0.00  0.00    +0.374 C 
ATOM      4  O   UNL     1       0.851  -1.640  -1.478  0.00  0.00    -0.242 OA
ATOM      5  O   UNL     1       2.239   0.040  -0.899  0.00  0.00    -0.457 OA
ATOM      6  C   UNL     1       2.159   1.456  -1.100  0.00  0.00    +0.262 C 
ATOM      7  C   UNL     1       1.296   2.083   0.001  0.00  0.00    +0.114 C 
ATOM      8  N   UNL     1      -0.017   1.412   0.010  0.00  0.00    -0.309 N 
ATOM      9  H   UNL     1      -0.848   1.913   0.017  0.00  0.00    +0.149 HD
ENDROOT
BRANCH   1  10
ATOM     10  N   UNL     1      -0.775  -2.119   0.652  0.00  0.00    -0.235 N 
ATOM     11  H   UNL     1      -0.105  -2.556   0.104  0.00  0.00    +0.174 HD
BRANCH  10  16
ATOM     12  C   UNL     1      -3.526  -3.020   2.915  0.00  0.00    +0.002 A 
ATOM     13  C   UNL     1      -3.461  -4.401   2.869  0.00  0.00    +0.001 A 
ATOM     14  C   UNL     1      -2.506  -5.026   2.088  0.00  0.00    +0.017 A 
ATOM     15  C   UNL     1      -1.616  -4.272   1.347  0.00  0.00    +0.040 A 
ATOM     16  C   UNL     1      -1.675  -2.884   1.395  0.00  0.00    +0.062 A 
ATOM     17  C   UNL     1      -2.637  -2.260   2.182  0.00  0.00    +0.026 A 
ATOM     18 BR   UNL     1      -0.315  -5.128   0.274  0.00  0.00    -0.048 Br
ENDBRANCH  10  16
ENDBRANCH   1  10
BRANCH   7  19
ATOM     19  C   UNL     1       1.109   3.575  -0.281  0.00  0.00    +0.187 C 
BRANCH  19  20
ATOM     20  O   UNL     1       0.288   4.152   0.737  0.00  0.00    -0.393 OA
ATOM     21  H   UNL     1       0.127   5.099   0.622  0.00  0.00    +0.209 HD
ENDBRANCH  19  20
ENDBRANCH   7  19
BRANCH   7  22
ATOM     22  C   UNL     1       1.978   1.894   1.358  0.00  0.00    +0.187 C 
BRANCH  22  23
ATOM     23  O   UNL     1       1.111   2.357   2.395  0.00  0.00    -0.393 OA
ATOM     24  H   UNL     1       1.479   2.268   3.284  0.00  0.00    +0.209 HD
ENDBRANCH  22  23
ENDBRANCH   7  22
TORSDOF 6
