REMARK  Name = ZINC03057098
REMARK  9 active torsions:
REMARK  status: ('A' for Active; 'I' for Inactive)
REMARK    1  A    between atoms: C_1  and  N_2
REMARK    2  A    between atoms: N_2  and  C_3
REMARK    3  A    between atoms: N_2  and  C_29
REMARK    4  A    between atoms: C_3  and  C_4
REMARK    5  A    between atoms: C_4  and  C_5
REMARK    6  A    between atoms: C_5  and  N_6
REMARK    7  A    between atoms: C_7  and  C_9
REMARK    8  A    between atoms: C_9  and  N_10
REMARK    9  A    between atoms: C_19  and  C_20
REMARK                            x       y       z     vdW  Elec       q    Type
REMARK                         _______ _______ _______ _____ _____    ______ ____
ROOT
ATOM      1  N   UNL     1      -0.387   0.203 -11.300  0.00  0.00    -0.253 N 
ATOM      2  C   UNL     1      -1.503  -0.612 -11.531  0.00  0.00    +0.080 A 
ATOM      3  C   UNL     1      -1.808  -1.636 -10.644  0.00  0.00    +0.027 A 
ATOM      4  C   UNL     1      -2.912  -2.436 -10.869  0.00  0.00    +0.002 A 
ATOM      5  C   UNL     1      -3.718  -2.218 -11.972  0.00  0.00    +0.004 A 
ATOM      6  C   UNL     1      -3.423  -1.197 -12.857  0.00  0.00    +0.048 A 
ATOM      7  C   UNL     1      -2.318  -0.391 -12.639  0.00  0.00    +0.150 A 
ATOM      8  O   UNL     1      -2.021   0.614 -13.509  0.00  0.00    -0.449 OA
ATOM      9  C   UNL     1      -1.319   1.668 -12.991  0.00  0.00    +0.191 C 
ATOM     10  C   UNL     1      -1.580   2.940 -13.363  0.00  0.00    +0.059 C 
ATOM     11  C   UNL     1      -0.262   1.352 -12.007  0.00  0.00    +0.287 C 
ATOM     12  O   UNL     1       0.686   2.097 -11.838  0.00  0.00    -0.266 OA
ENDROOT
BRANCH  10  13
ATOM     13  C   UNL     1      -0.947   4.060 -12.648  0.00  0.00    -0.019 A 
ATOM     14  C   UNL     1      -0.547   5.204 -13.347  0.00  0.00    +0.008 A 
ATOM     15  C   UNL     1       0.046   6.249 -12.672  0.00  0.00    +0.003 A 
ATOM     16  C   UNL     1       0.245   6.171 -11.305  0.00  0.00    +0.038 A 
ATOM     17  C   UNL     1      -0.148   5.042 -10.604  0.00  0.00    +0.124 A 
ATOM     18  C   UNL     1      -0.748   3.989 -11.266  0.00  0.00    +0.046 A 
ATOM     19  F   UNL     1       0.049   4.974  -9.269  0.00  0.00    -0.205 F 
ENDBRANCH  10  13
BRANCH   1  20
ATOM     20  C   UNL     1       0.628  -0.183 -10.318  0.00  0.00    +0.209 C 
BRANCH  20  22
ATOM     21  N   UNL     1       1.060   0.157  -7.906  0.00  0.00    -0.314 N 
ATOM     22  C   UNL     1       0.264   0.385  -8.970  0.00  0.00    +0.231 C 
ATOM     23  O   UNL     1      -0.744   1.046  -8.843  0.00  0.00    -0.274 OA
ATOM     24  H   UNL     1       1.974  -0.443  -8.021  0.00  0.00    +0.149 HD
BRANCH  21  25
ATOM     25  C   UNL     1       0.706   0.708  -6.596  0.00  0.00    +0.102 C 
BRANCH  25  26
ATOM     26  C   UNL     1       1.766   0.305  -5.569  0.00  0.00    +0.000 C 
BRANCH  26  27
ATOM     27  C   UNL     1       1.397   0.881  -4.201  0.00  0.00    -0.077 C 
BRANCH  27  29
ATOM     28  C   UNL     1       3.708   1.121  -3.521  0.00  0.00    -0.096 C 
ATOM     29  N   UNL     1       2.415   0.494  -3.215  0.00  0.00    +0.380 N 
ATOM     30  H   UNL     1       2.546  -0.597  -3.275  0.00  0.00    -0.082 HD
BRANCH  29  31
ATOM     31  C   UNL     1       1.980   0.823  -1.851  0.00  0.00    -0.069 C 
ATOM     32  C   UNL     1       3.006   0.294  -0.847  0.00  0.00    -0.015 C 
ATOM     33  C   UNL     1       2.553   0.637   0.573  0.00  0.00    -0.002 C 
ATOM     34  C   UNL     1       2.432   2.155   0.718  0.00  0.00    -0.000 C 
ATOM     35  C   UNL     1       1.406   2.683  -0.286  0.00  0.00    -0.002 C 
ATOM     36  C   UNL     1       1.859   2.341  -1.707  0.00  0.00    -0.015 C 
ENDBRANCH  29  31
ENDBRANCH  27  29
ENDBRANCH  26  27
ENDBRANCH  25  26
ENDBRANCH  21  25
ENDBRANCH  20  22
ENDBRANCH   1  20
TORSDOF 8
