REMARK  Name = ZINC66731947
REMARK  10 active torsions:
REMARK  status: ('A' for Active; 'I' for Inactive)
REMARK    1  A    between atoms: C_1  and  C_2
REMARK    2  A    between atoms: C_4  and  N_9
REMARK    3  A    between atoms: C_6  and  C_8
REMARK    4  A    between atoms: C_13  and  O_16
REMARK    5  A    between atoms: O_16  and  C_17
REMARK    6  A    between atoms: C_17  and  C_19
REMARK    7  A    between atoms: C_19  and  C_20
REMARK    8  A    between atoms: C_19  and  C_21
REMARK    9  A    between atoms: C_19  and  N_24
REMARK   10  A    between atoms: C_25  and  C_27
REMARK                            x       y       z     vdW  Elec       q    Type
REMARK                         _______ _______ _______ _____ _____    ______ ____
ROOT
ATOM      1  N   UNL     1      -0.213  -3.114  -2.518  0.00  0.00    -0.312 N 
ATOM      2  C   UNL     1      -0.296  -4.579  -2.597  0.00  0.00    +0.107 C 
ATOM      3  C   UNL     1       0.862  -5.093  -3.458  0.00  0.00    +0.023 C 
ATOM      4  C   UNL     1       0.835  -4.388  -4.816  0.00  0.00    +0.048 C 
ATOM      5  C   UNL     1       1.015  -2.882  -4.614  0.00  0.00    +0.194 C 
ATOM      6  C   UNL     1      -0.147  -2.343  -3.767  0.00  0.00    +0.151 C 
ENDROOT
BRANCH   1  10
ATOM      7  C   UNL     1      -0.076   1.013   0.161  0.00  0.00    +0.063 C 
ATOM      8  C   UNL     1      -0.137  -0.487   0.029  0.00  0.00    +0.017 A 
ATOM      9  C   UNL     1      -0.145  -1.079  -1.219  0.00  0.00    +0.064 A 
ATOM     10  C   UNL     1      -0.202  -2.473  -1.291  0.00  0.00    +0.125 A 
ATOM     11  N   UNL     1      -0.247  -3.174  -0.161  0.00  0.00    -0.220 NA
ATOM     12  C   UNL     1      -0.238  -2.567   1.008  0.00  0.00    +0.106 A 
ATOM     13  N   UNL     1      -0.179  -1.254   1.109  0.00  0.00    -0.347 N 
ATOM     14  C   UNL     1      -0.290  -3.397   2.265  0.00  0.00    +0.086 C 
ATOM     15  H   UNL     1      -0.170  -0.843   1.988  0.00  0.00    +0.167 HD
ENDBRANCH   1  10
BRANCH   5  16
ATOM     16  O   UNL     1       1.021  -2.228  -5.885  0.00  0.00    -0.458 OA
BRANCH  16  17
ATOM     17  C   UNL     1       2.210  -2.083  -6.490  0.00  0.00    +0.331 C 
ATOM     18  O   UNL     1       3.213  -2.496  -5.958  0.00  0.00    -0.248 OA
BRANCH  17  19
ATOM     19  C   UNL     1       2.295  -1.403  -7.832  0.00  0.00    +0.132 C 
ATOM     20  C   UNL     1       2.376   0.112  -7.633  0.00  0.00    +0.044 C 
BRANCH  19  21
ATOM     21  N   UNL     1       1.104  -1.729  -8.620  0.00  0.00    -0.300 N 
ATOM     22  C   UNL     1       0.783  -3.017  -8.855  0.00  0.00    +0.211 C 
ATOM     23  O   UNL     1       1.524  -3.903  -8.486  0.00  0.00    -0.276 OA
ATOM     24  C   UNL     1      -0.497  -3.355  -9.574  0.00  0.00    +0.109 C 
ATOM     25  H   UNL     1       0.547  -1.018  -8.974  0.00  0.00    +0.150 HD
ENDBRANCH  19  21
BRANCH  19  26
ATOM     26  C   UNL     1       3.544  -1.887  -8.571  0.00  0.00    +0.023 C 
ATOM     27  C   UNL     1       4.710  -0.906  -8.707  0.00  0.00    +0.006 C 
ATOM     28  C   UNL     1       3.854  -1.251  -9.927  0.00  0.00    +0.006 C 
ENDBRANCH  19  26
ENDBRANCH  17  19
ENDBRANCH  16  17
ENDBRANCH   5  16
TORSDOF 6
