REMARK  Name = ZINC21036497
REMARK  10 active torsions:
REMARK  status: ('A' for Active; 'I' for Inactive)
REMARK    1  A    between atoms: C_4  and  C_7
REMARK    2  A    between atoms: C_7  and  C_8
REMARK    3  A    between atoms: C_8  and  C_9
REMARK    4  A    between atoms: C_9  and  S_10
REMARK    5  A    between atoms: S_10  and  C_11
REMARK    6  A    between atoms: C_17  and  C_19
REMARK    7  A    between atoms: C_19  and  S_20
REMARK    8  A    between atoms: S_20  and  C_21
REMARK    9  A    between atoms: N_26  and  N_27
REMARK   10  A    between atoms: C_28  and  C_29
REMARK                            x       y       z     vdW  Elec       q    Type
REMARK                         _______ _______ _______ _____ _____    ______ ____
ROOT
ATOM      1  C   UNL     1      -4.504   9.286   0.075  0.00  0.00    +0.160 A 
ATOM      2  N   UNL     1      -4.886   8.017   0.070  0.00  0.00    -0.133 NA
ATOM      3  N   UNL     1      -4.053   7.070   0.061  0.00  0.00    -0.125 NA
ATOM      4  C   UNL     1      -2.748   7.284   0.055  0.00  0.00    +0.189 A 
ATOM      5  S   UNL     1      -2.726   9.074   0.072  0.00  0.00    -0.024 S 
ATOM      6  N   UNL     1      -1.692   6.376   0.045  0.00  0.00    -0.263 N 
ATOM      7  C   UNL     1      -1.942   5.051   0.039  0.00  0.00    +0.229 C 
ATOM      8  O   UNL     1      -3.087   4.650   0.043  0.00  0.00    -0.275 OA
ATOM      9  H   UNL     1      -0.654   6.739   0.042  0.00  0.00    +0.157 HD
ENDROOT
BRANCH   1  10
ATOM     10  S   UNL     1      -5.470  10.759   0.089  0.00  0.00    -0.097 S 
BRANCH  10  11
ATOM     11  C   UNL     1      -7.182  10.162   0.095  0.00  0.00    +0.077 C 
BRANCH  11  12
ATOM     12  C   UNL     1      -8.139  11.356   0.108  0.00  0.00    +0.016 C 
BRANCH  12  13
ATOM     13  C   UNL     1      -9.584  10.852   0.113  0.00  0.00    +0.036 C 
BRANCH  13  17
ATOM     14  C   UNL     1     -12.255  14.185   0.147  0.00  0.00    +0.000 A 
ATOM     15  C   UNL     1     -11.829  13.653  -1.056  0.00  0.00    +0.000 A 
ATOM     16  C   UNL     1     -10.965  12.574  -1.067  0.00  0.00    +0.003 A 
ATOM     17  C   UNL     1     -10.526  12.028   0.125  0.00  0.00    -0.047 A 
ATOM     18  C   UNL     1     -10.956  12.557   1.327  0.00  0.00    +0.003 A 
ATOM     19  C   UNL     1     -11.816  13.639   1.339  0.00  0.00    +0.000 A 
ENDBRANCH  13  17
ENDBRANCH  12  13
ENDBRANCH  11  12
ENDBRANCH  10  11
ENDBRANCH   1  10
BRANCH   7  20
ATOM     20  C   UNL     1      -0.799   4.069   0.028  0.00  0.00    +0.173 C 
BRANCH  20  21
ATOM     21  S   UNL     1      -1.456   2.378   0.022  0.00  0.00    -0.075 S 
BRANCH  21  22
ATOM     22  C   UNL     1      -0.016   1.362   0.009  0.00  0.00    +0.211 A 
ATOM     23  N   UNL     1       0.002  -0.004   0.002  0.00  0.00    -0.186 NA
ATOM     24  C   UNL     1       1.308  -0.409  -0.013  0.00  0.00    +0.232 A 
ATOM     25  N   UNL     1       2.064   0.662  -0.014  0.00  0.00    -0.245 N 
ATOM     26  N   UNL     1       1.225   1.784  -0.000  0.00  0.00    -0.144 NA
ATOM     27  N   UNL     1       1.754  -1.723  -0.025  0.00  0.00    -0.205 N 
ATOM     28  H   UNL     1       1.029  -2.550  -0.023  0.00  0.00    +0.177 HD
ATOM     29  H   UNL     1       3.159   0.562  -0.025  0.00  0.00    +0.192 HD
BRANCH  27  30
ATOM     30  N   UNL     1       3.128  -1.995  -0.039  0.00  0.00    -0.188 NA
ATOM     31  C   UNL     1       3.546  -3.225  -0.050  0.00  0.00    +0.138 C 
BRANCH  31  32
ATOM     32  C   UNL     1       4.992  -3.512  -0.066  0.00  0.00    -0.005 A 
ATOM     33  C   UNL     1       5.916  -2.464  -0.074  0.00  0.00    +0.009 A 
ATOM     34  C   UNL     1       7.267  -2.740  -0.083  0.00  0.00    +0.001 A 
ATOM     35  C   UNL     1       7.709  -4.051  -0.095  0.00  0.00    +0.000 A 
ATOM     36  C   UNL     1       6.800  -5.094  -0.092  0.00  0.00    +0.001 A 
ATOM     37  C   UNL     1       5.446  -4.833  -0.078  0.00  0.00    +0.009 A 
ENDBRANCH  31  32
ENDBRANCH  27  30
ENDBRANCH  21  22
ENDBRANCH  20  21
ENDBRANCH   7  20
TORSDOF 10
