REMARK  Name = ZINC07378425
REMARK  5 active torsions:
REMARK  status: ('A' for Active; 'I' for Inactive)
REMARK    1  A    between atoms: N_11  and  S_12
REMARK    2  A    between atoms: S_12  and  C_15
REMARK    3  A    between atoms: C_18  and  C_21
REMARK    4  A    between atoms: N_23  and  C_24
REMARK    5  A    between atoms: C_24  and  C_25
REMARK                            x       y       z     vdW  Elec       q    Type
REMARK                         _______ _______ _______ _____ _____    ______ ____
ROOT
ATOM      1  S   UNL     1      -6.351  -1.452   0.024  0.00  0.00    +0.075 S 
ATOM      2  O   UNL     1      -6.044  -2.770   0.458  0.00  0.00    -0.150 OA
ATOM      3  O   UNL     1      -7.303  -0.633   0.689  0.00  0.00    -0.150 OA
ENDROOT
BRANCH   1  14
ATOM      4  C   UNL     1      -5.984  -4.923  -3.874  0.00  0.00    +0.002 A 
ATOM      5  C   UNL     1      -5.116  -4.548  -2.865  0.00  0.00    +0.002 A 
ATOM      6  C   UNL     1      -5.393  -3.439  -2.085  0.00  0.00    +0.026 A 
ATOM      7  C   UNL     1      -6.543  -2.706  -2.319  0.00  0.00    +0.073 A 
ATOM      8  C   UNL     1      -7.422  -3.084  -3.335  0.00  0.00    +0.056 A 
ATOM      9  C   UNL     1      -7.135  -4.195  -4.112  0.00  0.00    +0.025 A 
ATOM     10  N   UNL     1      -8.585  -2.337  -3.556  0.00  0.00    -0.283 N 
ATOM     11  C   UNL     1      -8.733  -1.117  -3.007  0.00  0.00    +0.236 C 
ATOM     12  O   UNL     1      -9.767  -0.505  -3.175  0.00  0.00    -0.274 OA
ATOM     13  C   UNL     1      -7.634  -0.504  -2.183  0.00  0.00    +0.227 C 
ATOM     14  N   UNL     1      -6.850  -1.575  -1.550  0.00  0.00    -0.192 N 
ATOM     15  H   UNL     1      -9.292  -2.703  -4.111  0.00  0.00    +0.155 HD
ENDBRANCH   1  14
BRANCH   1  16
ATOM     16  C   UNL     1      -4.832  -0.557   0.021  0.00  0.00    +0.109 A 
ATOM     17  C   UNL     1      -4.848   0.827   0.007  0.00  0.00    +0.029 A 
ATOM     18  C   UNL     1      -3.663   1.533   0.005  0.00  0.00    +0.015 A 
ATOM     19  C   UNL     1      -2.447   0.849   0.016  0.00  0.00    +0.037 A 
ATOM     20  C   UNL     1      -2.438  -0.547   0.025  0.00  0.00    +0.015 A 
ATOM     21  C   UNL     1      -3.630  -1.241   0.032  0.00  0.00    +0.029 A 
BRANCH  19  22
ATOM     22  C   UNL     1      -1.173   1.599   0.014  0.00  0.00    +0.244 C 
ATOM     23  O   UNL     1      -1.184   2.815   0.002  0.00  0.00    -0.270 OA
ATOM     24  N   UNL     1       0.000   0.936   0.025  0.00  0.00    -0.303 N 
ATOM     25  H   UNL     1       0.009  -0.034   0.035  0.00  0.00    +0.149 HD
BRANCH  24  26
ATOM     26  C   UNL     1       1.262   1.680   0.017  0.00  0.00    +0.217 C 
BRANCH  26  27
ATOM     27  C   UNL     1       2.434   0.696   0.026  0.00  0.00    +0.405 C 
ATOM     28  F   UNL     1       2.366  -0.121  -1.108  0.00  0.00    -0.169 F 
ATOM     29  F   UNL     1       3.639   1.406   0.017  0.00  0.00    -0.169 F 
ATOM     30  F   UNL     1       2.368  -0.097   1.176  0.00  0.00    -0.169 F 
ENDBRANCH  26  27
ENDBRANCH  24  26
ENDBRANCH  19  22
ENDBRANCH   1  16
TORSDOF 5
