REMARK  Name = ZINC05415713
REMARK  8 active torsions:
REMARK  status: ('A' for Active; 'I' for Inactive)
REMARK    1  A    between atoms: C_1  and  C_2
REMARK    2  A    between atoms: C_5  and  S_8
REMARK    3  A    between atoms: S_8  and  N_11
REMARK    4  A    between atoms: N_11  and  N_12
REMARK    5  A    between atoms: C_13  and  C_14
REMARK    6  A    between atoms: C_13  and  C_20
REMARK    7  A    between atoms: C_20  and  C_22
REMARK    8  A    between atoms: C_20  and  N_23
REMARK                            x       y       z     vdW  Elec       q    Type
REMARK                         _______ _______ _______ _____ _____    ______ ____
ROOT
ATOM      1  N   UNL     1       1.696  -4.951   0.743  0.00  0.00    -0.168 NA
ATOM      2  C   UNL     1       0.945  -4.000   1.206  0.00  0.00    +0.092 C 
ENDROOT
BRANCH   2   3
ATOM      3  C   UNL     1       1.150  -3.500   2.579  0.00  0.00    -0.000 A 
ATOM      4  C   UNL     1       0.052  -3.166   3.375  0.00  0.00    +0.010 A 
ATOM      5  C   UNL     1       0.251  -2.705   4.660  0.00  0.00    +0.001 A 
ATOM      6  C   UNL     1       1.534  -2.562   5.156  0.00  0.00    +0.000 A 
ATOM      7  C   UNL     1       2.627  -2.886   4.371  0.00  0.00    +0.001 A 
ATOM      8  C   UNL     1       2.443  -3.354   3.087  0.00  0.00    +0.010 A 
ENDBRANCH   2   3
BRANCH   1   9
ATOM      9  N   UNL     1       2.607  -5.599   1.588  0.00  0.00    -0.136 N 
ATOM     10  H   UNL     1       2.622  -5.390   2.536  0.00  0.00    +0.197 HD
BRANCH   9  11
ATOM     11  S   UNL     1       3.657  -6.721   0.970  0.00  0.00    +0.086 S 
ATOM     12  O   UNL     1       4.532  -7.084   2.029  0.00  0.00    -0.149 OA
ATOM     13  O   UNL     1       2.868  -7.675   0.273  0.00  0.00    -0.149 OA
BRANCH  11  18
ATOM     14  C   UNL     1       7.030  -3.916  -3.172  0.00  0.00    +0.044 C 
ATOM     15  C   UNL     1       6.188  -4.616  -2.138  0.00  0.00    -0.050 A 
ATOM     16  C   UNL     1       6.601  -4.653  -0.819  0.00  0.00    +0.005 A 
ATOM     17  C   UNL     1       5.828  -5.296   0.130  0.00  0.00    +0.029 A 
ATOM     18  C   UNL     1       4.642  -5.901  -0.239  0.00  0.00    +0.110 A 
ATOM     19  C   UNL     1       4.231  -5.869  -1.559  0.00  0.00    +0.029 A 
ATOM     20  C   UNL     1       5.001  -5.222  -2.507  0.00  0.00    +0.005 A 
ENDBRANCH  11  18
ENDBRANCH   9  11
ENDBRANCH   1   9
BRANCH   2  21
ATOM     21  C   UNL     1      -0.137  -3.406   0.342  0.00  0.00    +0.157 C 
ATOM     22  C   UNL     1      -0.219  -4.179  -0.976  0.00  0.00    +0.039 C 
BRANCH  21  23
ATOM     23  N   UNL     1       0.176  -2.002   0.065  0.00  0.00    -0.235 N 
ATOM     24  C   UNL     1      -0.591  -0.908   0.392  0.00  0.00    +0.090 A 
ATOM     25  C   UNL     1      -1.812  -0.742   1.036  0.00  0.00    +0.029 A 
ATOM     26  C   UNL     1      -2.322   0.513   1.213  0.00  0.00    +0.002 A 
ATOM     27  C   UNL     1      -1.631   1.628   0.754  0.00  0.00    +0.002 A 
ATOM     28  C   UNL     1      -0.431   1.492   0.120  0.00  0.00    +0.032 A 
ATOM     29  C   UNL     1       0.114   0.215  -0.074  0.00  0.00    +0.113 A 
ATOM     30  N   UNL     1       1.250  -0.225  -0.651  0.00  0.00    -0.129 NA
ATOM     31  N   UNL     1       1.316  -1.508  -0.587  0.00  0.00    -0.064 NA
ENDBRANCH  21  23
ENDBRANCH   2  21
TORSDOF 6
