REMARK  Name = ZINC36159075
REMARK  11 active torsions:
REMARK  status: ('A' for Active; 'I' for Inactive)
REMARK    1  A    between atoms: C_1  and  C_2
REMARK    2  A    between atoms: C_2  and  C_3
REMARK    3  A    between atoms: C_2  and  O_4
REMARK    4  A    between atoms: O_4  and  C_5
REMARK    5  A    between atoms: C_5  and  C_6
REMARK    6  A    between atoms: C_6  and  C_8
REMARK    7  A    between atoms: C_6  and  O_31
REMARK    8  A    between atoms: C_8  and  N_9
REMARK    9  A    between atoms: N_9  and  C_10
REMARK   10  A    between atoms: N_9  and  C_25
REMARK   11  A    between atoms: C_10  and  C_11
REMARK                            x       y       z     vdW  Elec       q    Type
REMARK                         _______ _______ _______ _____ _____    ______ ____
ROOT
ATOM      1  N   UNL     1      -5.215  -2.230  -2.402  0.00  0.00    +0.388 N 
ATOM      2  H   UNL     1      -5.861  -1.722  -1.816  0.00  0.00    -0.081 HD
ENDROOT
BRANCH   1   3
ATOM      3  C   UNL     1      -4.921  -3.534  -1.793  0.00  0.00    -0.068 C 
ATOM      4  C   UNL     1      -6.223  -4.313  -1.603  0.00  0.00    -0.015 C 
ATOM      5  C   UNL     1      -5.917  -5.671  -0.968  0.00  0.00    -0.002 C 
ATOM      6  C   UNL     1      -4.978  -6.461  -1.882  0.00  0.00    -0.000 C 
ATOM      7  C   UNL     1      -3.675  -5.681  -2.072  0.00  0.00    -0.002 C 
ATOM      8  C   UNL     1      -3.982  -4.324  -2.707  0.00  0.00    -0.015 C 
ENDBRANCH   1   3
BRANCH   1   9
ATOM      9  C   UNL     1      -3.970  -1.461  -2.539  0.00  0.00    -0.044 C 
BRANCH   9  10
ATOM     10  C   UNL     1      -3.421  -1.130  -1.150  0.00  0.00    +0.124 C 
BRANCH  10  11
ATOM     11  O   UNL     1      -4.339  -0.275  -0.466  0.00  0.00    -0.391 OA
ATOM     12  H   UNL     1      -4.504   0.565  -0.915  0.00  0.00    +0.210 HD
ENDBRANCH  10  11
BRANCH  10  13
ATOM     13  C   UNL     1      -2.072  -0.420  -1.292  0.00  0.00    +0.189 C 
BRANCH  13  14
ATOM     14  O   UNL     1      -1.504  -0.214   0.003  0.00  0.00    -0.375 OA
BRANCH  14  16
ATOM     15  C   UNL     1      -0.448   1.958   0.065  0.00  0.00    +0.037 C 
ATOM     16  C   UNL     1      -0.236   0.445  -0.017  0.00  0.00    +0.112 C 
ATOM     17  C   UNL     1       0.598  -0.018   1.179  0.00  0.00    +0.037 C 
ENDBRANCH  14  16
ENDBRANCH  13  14
ENDBRANCH  10  13
ENDBRANCH   9  10
ENDBRANCH   1   9
BRANCH   1  18
ATOM     18  C   UNL     1      -5.813  -2.433  -3.728  0.00  0.00    -0.003 C 
BRANCH  18  19
ATOM     19  C   UNL     1      -7.282  -2.734  -3.576  0.00  0.00    +0.094 A 
ATOM     20  N   UNL     1      -8.001  -3.112  -4.664  0.00  0.00    -0.312 N 
ATOM     21  H   UNL     1      -7.559  -3.184  -5.524  0.00  0.00    +0.170 HD
ATOM     22  C   UNL     1      -9.316  -3.390  -4.573  0.00  0.00    +0.260 A 
ATOM     23  O   UNL     1      -9.948  -3.728  -5.558  0.00  0.00    -0.267 OA
ATOM     24  C   UNL     1      -9.956  -3.280  -3.296  0.00  0.00    +0.075 A 
ATOM     25  C   UNL     1     -11.366  -3.533  -2.964  0.00  0.00    -0.023 A 
ATOM     26  C   UNL     1     -11.729  -3.358  -1.682  0.00  0.00    -0.004 A 
ATOM     27  S   UNL     1     -10.241  -2.859  -0.847  0.00  0.00    -0.073 S 
ATOM     28  C   UNL     1      -9.134  -2.885  -2.232  0.00  0.00    +0.116 A 
ATOM     29  N   UNL     1      -7.838  -2.631  -2.398  0.00  0.00    -0.229 NA
ATOM     30  C   UNL     1     -13.191  -3.639  -1.462  0.00  0.00    +0.043 C 
ATOM     31  C   UNL     1     -13.810  -3.603  -2.877  0.00  0.00    +0.010 C 
ATOM     32  C   UNL     1     -12.600  -3.973  -3.757  0.00  0.00    +0.037 C 
ENDBRANCH  18  19
ENDBRANCH   1  18
TORSDOF 9
