REMARK  Name = ZINC52618139
REMARK  8 active torsions:
REMARK  status: ('A' for Active; 'I' for Inactive)
REMARK    1  A    between atoms: C_3  and  C_7
REMARK    2  A    between atoms: C_7  and  N_8
REMARK    3  A    between atoms: N_8  and  C_9
REMARK    4  A    between atoms: C_9  and  C_10
REMARK    5  A    between atoms: N_14  and  C_16
REMARK    6  A    between atoms: C_16  and  C_17
REMARK    7  A    between atoms: C_17  and  C_18
REMARK    8  A    between atoms: C_21  and  N_27
REMARK                            x       y       z     vdW  Elec       q    Type
REMARK                         _______ _______ _______ _____ _____    ______ ____
ROOT
ATOM      1  C   UNL     1       8.003   5.808   4.115  0.00  0.00    -0.074 C 
ENDROOT
BRANCH   1   5
ATOM      2  C   UNL     1       5.871   3.173   2.842  0.00  0.00    -0.016 C 
ATOM      3  C   UNL     1       4.967   4.223   3.541  0.00  0.00    -0.016 C 
ATOM      4  C   UNL     1       5.886   4.794   4.642  0.00  0.00    -0.079 C 
ATOM      5  N   UNL     1       7.277   4.536   4.227  0.00  0.00    +0.380 N 
ATOM      6  C   UNL     1       7.259   3.856   2.914  0.00  0.00    -0.074 C 
ATOM      7  H   UNL     1       7.730   3.946   4.909  0.00  0.00    -0.082 HD
BRANCH   2   8
ATOM      8  C   UNL     1       5.440   2.959   1.389  0.00  0.00    +0.082 C 
BRANCH   8   9
ATOM      9  N   UNL     1       4.142   2.271   1.359  0.00  0.00    -0.312 NA
ATOM     10  H   UNL     1       3.450   2.783   1.885  0.00  0.00    +0.122 HD
BRANCH   9  11
ATOM     11  C   UNL     1       3.696   2.049  -0.023  0.00  0.00    +0.117 C 
BRANCH  11  14
ATOM     12  C   UNL     1      -0.017   1.378   0.010  0.00  0.00    +0.020 A 
ATOM     13  C   UNL     1       1.185   2.070   0.002  0.00  0.00    +0.008 A 
ATOM     14  C   UNL     1       2.365   1.343  -0.013  0.00  0.00    -0.016 A 
ATOM     15  C   UNL     1       2.305  -0.038  -0.020  0.00  0.00    +0.115 A 
ATOM     16  N   UNL     1       1.144  -0.663  -0.013  0.00  0.00    -0.263 NA
ATOM     17  C   UNL     1       0.002  -0.004   0.002  0.00  0.00    +0.111 A 
ENDBRANCH  11  14
ENDBRANCH   9  11
ENDBRANCH   8   9
ENDBRANCH   2   8
ENDBRANCH   1   5
BRANCH   1  18
ATOM     18  C   UNL     1       8.139   6.441   5.502  0.00  0.00    +0.014 C 
BRANCH  18  19
ATOM     19  C   UNL     1       8.884   7.746   5.387  0.00  0.00    -0.043 C 
ATOM     20  C   UNL     1       8.346   8.982   5.278  0.00  0.00    +0.001 A 
ATOM     21  C   UNL     1       6.962   9.465   5.235  0.00  0.00    +0.036 A 
ATOM     22  C   UNL     1       6.722  10.794   5.118  0.00  0.00    +0.050 A 
ATOM     23  C   UNL     1       7.760  11.740   5.035  0.00  0.00    +0.028 A 
ATOM     24  C   UNL     1       9.064  11.392   5.066  0.00  0.00    +0.028 A 
ATOM     25  C   UNL     1       9.438   9.980   5.191  0.00  0.00    +0.043 A 
ATOM     26  N   UNL     1      10.603   9.384   5.244  0.00  0.00    -0.380 N 
ATOM     27  C   UNL     1      10.384   7.939   5.377  0.00  0.00    +0.144 C 
ATOM     28  H   UNL     1      11.466   9.824   5.206  0.00  0.00    +0.160 HD
BRANCH  22  29
ATOM     29  N   UNL     1       5.394  11.242   5.078  0.00  0.00    -0.288 N 
ATOM     30  C   UNL     1       4.267  10.479   5.151  0.00  0.00    +0.229 A 
ATOM     31  N   UNL     1       3.246  11.290   5.077  0.00  0.00    -0.138 NA
ATOM     32  N   UNL     1       3.658  12.502   4.964  0.00  0.00    -0.138 NA
ATOM     33  C   UNL     1       4.963  12.530   4.965  0.00  0.00    +0.229 A 
ENDBRANCH  22  29
ENDBRANCH  18  19
ENDBRANCH   1  18
TORSDOF 8
