REMARK  Name = ZINC12346461
REMARK  8 active torsions:
REMARK  status: ('A' for Active; 'I' for Inactive)
REMARK    1  A    between atoms: C_1  and  C_2
REMARK    2  A    between atoms: C_2  and  C_3
REMARK    3  A    between atoms: C_2  and  C_4
REMARK    4  A    between atoms: C_4  and  N_5
REMARK    5  A    between atoms: C_11  and  C_17
REMARK    6  A    between atoms: C_20  and  O_23
REMARK    7  A    between atoms: O_23  and  C_24
REMARK    8  A    between atoms: C_24  and  C_25
REMARK                            x       y       z     vdW  Elec       q    Type
REMARK                         _______ _______ _______ _____ _____    ______ ____
ROOT
ATOM      1  N   UNL     1       3.278   0.777  -3.682  0.00  0.00    -0.292 N 
ATOM      2  C   UNL     1       4.474   1.448  -3.153  0.00  0.00    +0.159 C 
ATOM      3  C   UNL     1       4.218   1.587  -1.669  0.00  0.00    +0.039 C 
ATOM      4  C   UNL     1       3.006   1.042  -1.441  0.00  0.00    +0.058 C 
ATOM      5  C   UNL     1       2.450   0.561  -2.644  0.00  0.00    +0.247 C 
ATOM      6  O   UNL     1       1.362   0.022  -2.732  0.00  0.00    -0.270 OA
ATOM      7  C   UNL     1       2.490   1.045  -0.016  0.00  0.00    +0.142 C 
ATOM      8  N   UNL     1       3.361   1.647   1.008  0.00  0.00    -0.288 N 
ATOM      9  C   UNL     1       4.550   2.151   0.623  0.00  0.00    +0.304 C 
ATOM     10  O   UNL     1       5.277   2.648   1.461  0.00  0.00    -0.252 OA
ATOM     11  N   UNL     1       4.957   2.122  -0.653  0.00  0.00    -0.271 N 
ATOM     12  H   UNL     1       3.086   1.679   1.937  0.00  0.00    +0.151 HD
ATOM     13  H   UNL     1       5.823   2.503  -0.866  0.00  0.00    +0.156 HD
ENDROOT
BRANCH   7  14
ATOM     14  C   UNL     1       1.176   1.783   0.000  0.00  0.00    -0.022 A 
ATOM     15  C   UNL     1      -0.013   1.076   0.008  0.00  0.00    +0.009 A 
ATOM     16  C   UNL     1      -1.218   1.750   0.017  0.00  0.00    +0.046 A 
ATOM     17  C   UNL     1      -1.237   3.137   0.031  0.00  0.00    +0.121 A 
ATOM     18  C   UNL     1      -0.043   3.844   0.024  0.00  0.00    +0.046 A 
ATOM     19  C   UNL     1       1.160   3.165   0.008  0.00  0.00    +0.009 A 
BRANCH  17  20
ATOM     20  O   UNL     1      -2.422   3.802   0.045  0.00  0.00    -0.487 OA
BRANCH  20  21
ATOM     21  C   UNL     1      -3.611   3.009   0.052  0.00  0.00    +0.264 C 
BRANCH  21  22
ATOM     22  C   UNL     1      -4.817   3.913   0.068  0.00  0.00    -0.010 A 
ATOM     23  C   UNL     1      -5.362   4.316   1.272  0.00  0.00    +0.007 A 
ATOM     24  C   UNL     1      -6.465   5.149   1.287  0.00  0.00    +0.000 A 
ATOM     25  C   UNL     1      -7.029   5.570   0.097  0.00  0.00    +0.000 A 
ATOM     26  C   UNL     1      -6.487   5.162  -1.107  0.00  0.00    +0.000 A 
ATOM     27  C   UNL     1      -5.381   4.333  -1.122  0.00  0.00    +0.007 A 
ENDBRANCH  21  22
ENDBRANCH  20  21
ENDBRANCH  17  20
ENDBRANCH   7  14
BRANCH   1  28
ATOM     28  C   UNL     1       3.032   0.412  -5.079  0.00  0.00    +0.111 C 
BRANCH  28  30
ATOM     29  C   UNL     1       3.264   2.777  -5.849  0.00  0.00    +0.009 C 
ATOM     30  C   UNL     1       2.329   1.568  -5.793  0.00  0.00    +0.000 C 
ATOM     31  C   UNL     1       1.961   1.141  -7.215  0.00  0.00    +0.009 C 
ENDBRANCH  28  30
ENDBRANCH   1  28
TORSDOF 6
