REMARK  Name = ZINC20309353
REMARK  10 active torsions:
REMARK  status: ('A' for Active; 'I' for Inactive)
REMARK    1  A    between atoms: C_1  and  N_2
REMARK    2  A    between atoms: N_2  and  C_3
REMARK    3  A    between atoms: N_2  and  C_4
REMARK    4  A    between atoms: C_4  and  C_5
REMARK    5  A    between atoms: C_5  and  N_6
REMARK    6  A    between atoms: C_7  and  C_27
REMARK    7  A    between atoms: C_9  and  C_14
REMARK    8  A    between atoms: C_14  and  C_16
REMARK    9  A    between atoms: C_25  and  O_26
REMARK   10  A    between atoms: C_30  and  N_33
REMARK                            x       y       z     vdW  Elec       q    Type
REMARK                         _______ _______ _______ _____ _____    ______ ____
ROOT
ATOM      1  N   UNL     1       3.348   2.846  -5.472  0.00  0.00    -0.285 N 
ATOM      2  C   UNL     1       3.082   2.467  -4.079  0.00  0.00    +0.145 C 
ATOM      3  C   UNL     1       1.758   1.738  -4.087  0.00  0.00    +0.076 C 
ATOM      4  C   UNL     1       1.335   1.711  -5.371  0.00  0.00    +0.249 C 
ATOM      5  C   UNL     1       2.323   2.404  -6.223  0.00  0.00    +0.288 C 
ATOM      6  O   UNL     1       2.226   2.550  -7.426  0.00  0.00    -0.266 OA
ATOM      7  O   UNL     1       0.187   1.141  -5.806  0.00  0.00    -0.282 OA
ENDROOT
BRANCH   2   8
ATOM      8  C   UNL     1       4.171   1.559  -3.572  0.00  0.00    -0.022 A 
ATOM      9  C   UNL     1       4.605   0.499  -4.347  0.00  0.00    +0.008 A 
ATOM     10  C   UNL     1       5.608  -0.331  -3.883  0.00  0.00    +0.033 A 
ATOM     11  C   UNL     1       6.171  -0.109  -2.641  0.00  0.00    +0.126 A 
ATOM     12  C   UNL     1       5.734   0.948  -1.863  0.00  0.00    +0.033 A 
ATOM     13  C   UNL     1       4.734   1.781  -2.329  0.00  0.00    +0.008 A 
BRANCH  11  14
ATOM     14  N   UNL     1       7.241  -1.001  -2.142  0.00  0.00    +0.056 N 
ATOM     15  O   UNL     1       7.737  -0.804  -1.048  0.00  0.00    -0.126 OA
ATOM     16  O   UNL     1       7.627  -1.931  -2.827  0.00  0.00    -0.126 OA
ENDBRANCH  11  14
ENDBRANCH   2   8
BRANCH   3  17
ATOM     17  C   UNL     1       1.069   1.164  -2.926  0.00  0.00    +0.199 C 
ATOM     18  O   UNL     1       0.934  -0.042  -2.833  0.00  0.00    -0.287 OA
BRANCH  17  19
ATOM     19  C   UNL     1       0.542   2.048  -1.871  0.00  0.00    +0.064 A 
ATOM     20  C   UNL     1       0.764   3.436  -1.945  0.00  0.00    +0.016 A 
ATOM     21  C   UNL     1       0.288   4.269  -0.988  0.00  0.00    +0.009 A 
ATOM     22  C   UNL     1      -0.440   3.755   0.103  0.00  0.00    -0.014 A 
ATOM     23  C   UNL     1      -0.939   4.604   1.104  0.00  0.00    +0.008 A 
ATOM     24  C   UNL     1      -1.640   4.079   2.148  0.00  0.00    +0.001 A 
ATOM     25  C   UNL     1      -1.870   2.708   2.240  0.00  0.00    +0.001 A 
ATOM     26  C   UNL     1      -1.400   1.855   1.288  0.00  0.00    +0.012 A 
ATOM     27  C   UNL     1      -0.679   2.361   0.194  0.00  0.00    +0.024 A 
ATOM     28  C   UNL     1      -0.175   1.504  -0.805  0.00  0.00    +0.135 A 
BRANCH  28  29
ATOM     29  O   UNL     1      -0.388   0.169  -0.734  0.00  0.00    -0.505 OA
ATOM     30  H   UNL     1      -0.954  -0.253   0.110  0.00  0.00    +0.292 HD
ENDBRANCH  28  29
ENDBRANCH  17  19
ENDBRANCH   3  17
BRANCH   1  31
ATOM     31  C   UNL     1       4.522   3.574  -5.958  0.00  0.00    +0.090 C 
BRANCH  31  32
ATOM     32  C   UNL     1       5.620   2.578  -6.335  0.00  0.00    -0.060 C 
BRANCH  32  34
ATOM     33  C   UNL     1       7.951   2.409  -6.971  0.00  0.00    -0.097 C 
ATOM     34  N   UNL     1       6.798   3.308  -6.823  0.00  0.00    +0.377 N 
ATOM     35  C   UNL     1       6.503   3.998  -8.086  0.00  0.00    -0.097 C 
ATOM     36  H   UNL     1       7.057   4.070  -6.074  0.00  0.00    -0.083 HD
ENDBRANCH  32  34
ENDBRANCH  31  32
ENDBRANCH   1  31
TORSDOF 8
