REMARK  Name = ZINC13549466
REMARK  5 active torsions:
REMARK  status: ('A' for Active; 'I' for Inactive)
REMARK    1  A    between atoms: C_1  and  C_2
REMARK    2  A    between atoms: C_2  and  C_3
REMARK    3  A    between atoms: C_9  and  C_11
REMARK    4  A    between atoms: N_16  and  S_17
REMARK    5  A    between atoms: S_17  and  C_20
REMARK                            x       y       z     vdW  Elec       q    Type
REMARK                         _______ _______ _______ _____ _____    ______ ____
ROOT
ATOM      1  C   UNL     1       2.247   8.449   2.424  0.00  0.00    +0.166 C 
ATOM      2  C   UNL     1       1.768   8.843   3.837  0.00  0.00    +0.031 C 
ATOM      3  C   UNL     1       0.345   8.230   3.906  0.00  0.00    +0.019 C 
ATOM      4  C   UNL     1      -0.145   8.423   2.447  0.00  0.00    +0.110 C 
ATOM      5  N   UNL     1       1.048   8.184   1.616  0.00  0.00    -0.165 NA
ENDROOT
BRANCH   1  12
ATOM      6  C   UNL     1       6.517  12.966   1.050  0.00  0.00    +0.103 A 
ATOM      7  N   UNL     1       5.426  12.677   0.370  0.00  0.00    -0.145 NA
ATOM      8  N   UNL     1       4.660  11.747   0.748  0.00  0.00    -0.126 NA
ATOM      9  C   UNL     1       4.907  11.038   1.836  0.00  0.00    +0.188 A 
ATOM     10  S   UNL     1       6.395  11.763   2.368  0.00  0.00    -0.035 S 
ATOM     11  N   UNL     1       4.179   9.994   2.397  0.00  0.00    -0.262 N 
ATOM     12  C   UNL     1       3.035   9.580   1.816  0.00  0.00    +0.238 C 
ATOM     13  O   UNL     1       2.641  10.119   0.804  0.00  0.00    -0.274 OA
ATOM     14  H   UNL     1       4.537   9.505   3.315  0.00  0.00    +0.157 HD
BRANCH   6  16
ATOM     15  C   UNL     1       7.181  15.313   1.496  0.00  0.00    +0.011 C 
ATOM     16  C   UNL     1       7.569  14.013   0.790  0.00  0.00    +0.061 C 
ENDBRANCH   6  16
ENDBRANCH   1  12
BRANCH   5  17
ATOM     17  S   UNL     1       1.040   7.702   0.031  0.00  0.00    +0.062 S 
ATOM     18  O   UNL     1       2.275   8.128  -0.529  0.00  0.00    -0.153 OA
ATOM     19  O   UNL     1      -0.216   8.094  -0.506  0.00  0.00    -0.153 OA
BRANCH  17  20
ATOM     20  C   UNL     1       1.064   5.940   0.022  0.00  0.00    +0.106 A 
ATOM     21  C   UNL     1       2.286   5.270   0.008  0.00  0.00    +0.029 A 
ATOM     22  C   UNL     1       2.340   3.910  -0.000  0.00  0.00    +0.010 A 
ATOM     23  C   UNL     1       1.147   3.167   0.008  0.00  0.00    -0.018 A 
ATOM     24  C   UNL     1       1.163   1.762   0.000  0.00  0.00    +0.008 A 
ATOM     25  C   UNL     1      -0.013   1.076   0.008  0.00  0.00    +0.001 A 
ATOM     26  C   UNL     1      -1.235   1.746   0.017  0.00  0.00    +0.001 A 
ATOM     27  C   UNL     1      -1.288   3.106   0.030  0.00  0.00    +0.008 A 
ATOM     28  C   UNL     1      -0.096   3.849   0.023  0.00  0.00    -0.016 A 
ATOM     29  C   UNL     1      -0.111   5.254   0.030  0.00  0.00    +0.037 A 
ENDBRANCH  17  20
ENDBRANCH   5  17
TORSDOF 4
