REMARK  Name = ZINC10401657
REMARK  8 active torsions:
REMARK  status: ('A' for Active; 'I' for Inactive)
REMARK    1  A    between atoms: C_1  and  C_2
REMARK    2  A    between atoms: C_4  and  O_9
REMARK    3  A    between atoms: O_9  and  C_10
REMARK    4  A    between atoms: C_10  and  C_11
REMARK    5  A    between atoms: N_13  and  N_14
REMARK    6  A    between atoms: C_15  and  C_17
REMARK    7  A    between atoms: C_18  and  C_19
REMARK    8  A    between atoms: C_23  and  N_25
REMARK                            x       y       z     vdW  Elec       q    Type
REMARK                         _______ _______ _______ _____ _____    ______ ____
ROOT
ATOM      1  N   UNL     1      -2.443   8.098   0.067  0.00  0.00    -0.231 N 
ATOM      2  C   UNL     1      -1.266   7.440   0.053  0.00  0.00    +0.253 C 
ATOM      3  O   UNL     1      -0.221   8.062   0.046  0.00  0.00    -0.269 OA
ATOM      4  H   UNL     1      -3.276   7.601   0.072  0.00  0.00    +0.173 HD
ENDROOT
BRANCH   1   7
ATOM      5  C   UNL     1      -3.638  10.156   0.089  0.00  0.00    +0.267 C 
ATOM      6  O   UNL     1      -4.680   9.536   0.095  0.00  0.00    -0.271 OA
ATOM      7  N   UNL     1      -2.462   9.498   0.075  0.00  0.00    -0.231 N 
ATOM      8  H   UNL     1      -1.628   9.995   0.070  0.00  0.00    +0.173 HD
BRANCH   5   9
ATOM      9  C   UNL     1      -3.658  11.663   0.097  0.00  0.00    +0.326 C 
BRANCH   9  10
ATOM     10  O   UNL     1      -5.012  12.121   0.112  0.00  0.00    -0.483 OA
BRANCH  10  14
ATOM     11  C   UNL     1      -8.094  15.906   0.160  0.00  0.00    +0.045 C 
ATOM     12  C   UNL     1      -6.694  15.347   0.145  0.00  0.00    -0.033 A 
ATOM     13  C   UNL     1      -6.497  13.980   0.136  0.00  0.00    +0.050 A 
ATOM     14  C   UNL     1      -5.208  13.466   0.121  0.00  0.00    +0.122 A 
ATOM     15  C   UNL     1      -4.120  14.327   0.122  0.00  0.00    +0.047 A 
ATOM     16  C   UNL     1      -4.322  15.693   0.125  0.00  0.00    +0.019 A 
ATOM     17  C   UNL     1      -5.608  16.204   0.140  0.00  0.00    +0.021 A 
ATOM     18 BR   UNL     1      -5.881  18.075   0.151  0.00  0.00    -0.050 Br
ENDBRANCH  10  14
ENDBRANCH   9  10
ENDBRANCH   5   9
ENDBRANCH   1   7
BRANCH   2  19
ATOM     19  C   UNL     1      -1.247   5.976   0.045  0.00  0.00    +0.069 C 
ATOM     20  C   UNL     1      -0.070   5.317   0.030  0.00  0.00    +0.013 C 
BRANCH  20  21
ATOM     21  C   UNL     1      -0.050   3.846   0.022  0.00  0.00    -0.023 A 
ATOM     22  C   UNL     1      -1.250   3.126   0.030  0.00  0.00    +0.008 A 
ATOM     23  C   UNL     1      -1.223   1.748   0.017  0.00  0.00    +0.003 A 
ATOM     24  C   UNL     1      -0.013   1.076   0.008  0.00  0.00    +0.033 A 
ATOM     25  C   UNL     1       1.178   1.780   0.000  0.00  0.00    +0.127 A 
ATOM     26  C   UNL     1       1.168   3.159   0.007  0.00  0.00    +0.040 A 
BRANCH  25  27
ATOM     27  N   UNL     1       2.467   1.052  -0.015  0.00  0.00    +0.056 N 
ATOM     28  O   UNL     1       2.478  -0.166  -0.021  0.00  0.00    -0.126 OA
ATOM     29  O   UNL     1       3.516   1.671  -0.022  0.00  0.00    -0.126 OA
ENDBRANCH  25  27
ENDBRANCH  20  21
ENDBRANCH   2  19
TORSDOF 7
