REMARK  Name = ZINC03118436
REMARK  9 active torsions:
REMARK  status: ('A' for Active; 'I' for Inactive)
REMARK    1  A    between atoms: C_4  and  C_7
REMARK    2  A    between atoms: C_7  and  C_8
REMARK    3  A    between atoms: N_10  and  C_11
REMARK    4  A    between atoms: C_18  and  C_24
REMARK    5  A    between atoms: C_19  and  C_22
REMARK    6  A    between atoms: C_24  and  O_26
REMARK    7  A    between atoms: O_26  and  C_27
REMARK    8  A    between atoms: C_27  and  C_28
REMARK    9  A    between atoms: C_27  and  C_34
REMARK                            x       y       z     vdW  Elec       q    Type
REMARK                         _______ _______ _______ _____ _____    ______ ____
ROOT
ATOM      1  C   UNL     1      -1.453   6.574   6.569  0.00  0.00    +0.191 C 
ATOM      2  C   UNL     1      -2.169   7.444   5.540  0.00  0.00    +0.169 C 
ATOM      3  N   UNL     1      -1.470   6.596   4.518  0.00  0.00    -0.249 N 
ATOM      4  C   UNL     1      -0.642   6.025   5.407  0.00  0.00    +0.244 C 
ATOM      5  O   UNL     1       0.355   5.340   5.319  0.00  0.00    -0.273 OA
ATOM      6  C   UNL     1      -1.794   6.494   3.178  0.00  0.00    +0.129 C 
ATOM      7  C   UNL     1      -3.029   6.813   2.748  0.00  0.00    +0.030 C 
ATOM      8  C   UNL     1      -4.160   7.381   3.543  0.00  0.00    +0.111 C 
ATOM      9  S   UNL     1      -3.946   7.094   5.327  0.00  0.00    -0.131 S 
ENDROOT
BRANCH   1  12
ATOM     10  C   UNL     1      -2.016   5.103   8.427  0.00  0.00    +0.218 C 
ATOM     11  O   UNL     1      -1.024   5.498   9.003  0.00  0.00    -0.275 OA
ATOM     12  N   UNL     1      -2.320   5.579   7.204  0.00  0.00    -0.301 N 
ATOM     13  H   UNL     1      -3.113   5.263   6.744  0.00  0.00    +0.150 HD
BRANCH  10  14
ATOM     14  C   UNL     1      -2.908   4.079   9.081  0.00  0.00    +0.130 C 
BRANCH  14  18
ATOM     15  C   UNL     1      -1.326   3.048  12.912  0.00  0.00    +0.000 A 
ATOM     16  C   UNL     1      -2.223   4.093  12.793  0.00  0.00    +0.000 A 
ATOM     17  C   UNL     1      -2.735   4.427  11.553  0.00  0.00    +0.004 A 
ATOM     18  C   UNL     1      -2.350   3.715  10.432  0.00  0.00    -0.039 A 
ATOM     19  C   UNL     1      -1.457   2.667  10.552  0.00  0.00    +0.004 A 
ATOM     20  C   UNL     1      -0.941   2.336  11.791  0.00  0.00    +0.000 A 
ENDBRANCH  14  18
ENDBRANCH  10  14
ENDBRANCH   1  12
BRANCH   7  21
ATOM     21  C   UNL     1      -3.288   6.583   1.377  0.00  0.00    +0.257 C 
ATOM     22  O   UNL     1      -4.345   6.933   0.891  0.00  0.00    -0.296 OA
ENDBRANCH   7  21
BRANCH   6  23
ATOM     23  C   UNL     1      -0.775   6.025   2.208  0.00  0.00    +0.355 C 
ATOM     24  O   UNL     1      -0.608   4.835   2.031  0.00  0.00    -0.243 OA
BRANCH  23  25
ATOM     25  O   UNL     1      -0.035   6.918   1.523  0.00  0.00    -0.447 OA
BRANCH  25  26
ATOM     26  C   UNL     1       0.943   6.387   0.590  0.00  0.00    +0.237 C 
BRANCH  26  27
ATOM     27  C   UNL     1       0.305   6.219  -0.765  0.00  0.00    -0.003 A 
ATOM     28  C   UNL     1       0.595   5.107  -1.532  0.00  0.00    +0.007 A 
ATOM     29  C   UNL     1       0.010   4.953  -2.776  0.00  0.00    +0.000 A 
ATOM     30  C   UNL     1      -0.864   5.912  -3.251  0.00  0.00    +0.000 A 
ATOM     31  C   UNL     1      -1.150   7.028  -2.486  0.00  0.00    +0.000 A 
ATOM     32  C   UNL     1      -0.570   7.178  -1.240  0.00  0.00    +0.007 A 
ENDBRANCH  26  27
BRANCH  26  33
ATOM     33  C   UNL     1       2.105   7.340   0.484  0.00  0.00    -0.003 A 
ATOM     34  C   UNL     1       1.890   8.703   0.558  0.00  0.00    +0.007 A 
ATOM     35  C   UNL     1       2.957   9.577   0.466  0.00  0.00    +0.000 A 
ATOM     36  C   UNL     1       4.238   9.088   0.289  0.00  0.00    +0.000 A 
ATOM     37  C   UNL     1       4.452   7.725   0.210  0.00  0.00    +0.000 A 
ATOM     38  C   UNL     1       3.386   6.851   0.308  0.00  0.00    +0.007 A 
ENDBRANCH  26  33
ENDBRANCH  25  26
ENDBRANCH  23  25
ENDBRANCH   6  23
TORSDOF 9
