REMARK  Name = ZINC36073592
REMARK  13 active torsions:
REMARK  status: ('A' for Active; 'I' for Inactive)
REMARK    1  A    between atoms: C_1  and  C_2
REMARK    2  A    between atoms: C_5  and  C_9
REMARK    3  A    between atoms: C_6  and  C_8
REMARK    4  A    between atoms: C_9  and  N_10
REMARK    5  A    between atoms: N_10  and  C_11
REMARK    6  A    between atoms: N_10  and  C_28
REMARK    7  A    between atoms: C_11  and  C_12
REMARK    8  A    between atoms: C_14  and  C_17
REMARK    9  A    between atoms: N_19  and  C_20
REMARK   10  A    between atoms: N_19  and  C_21
REMARK   11  A    between atoms: C_21  and  C_22
REMARK   12  A    between atoms: C_28  and  C_30
REMARK   13  A    between atoms: C_28  and  C_31
REMARK                            x       y       z     vdW  Elec       q    Type
REMARK                         _______ _______ _______ _____ _____    ______ ____
ROOT
ATOM      1  N   UNL     1      -0.441  -6.027   0.832  0.00  0.00    +0.393 N 
ATOM      2  H   UNL     1      -0.445  -5.512   1.700  0.00  0.00    -0.080 HD
ENDROOT
BRANCH   1   3
ATOM      3  C   UNL     1      -1.278  -5.330  -0.154  0.00  0.00    -0.040 C 
ATOM      4  C   UNL     1      -2.752  -5.634   0.122  0.00  0.00    -0.008 C 
BRANCH   3   5
ATOM      5  C   UNL     1      -1.044  -3.845  -0.052  0.00  0.00    -0.061 A 
ATOM      6  C   UNL     1      -1.139  -3.213   1.174  0.00  0.00    +0.002 A 
ATOM      7  C   UNL     1      -0.924  -1.851   1.268  0.00  0.00    +0.000 A 
ATOM      8  C   UNL     1      -0.613  -1.121   0.136  0.00  0.00    +0.000 A 
ATOM      9  C   UNL     1      -0.517  -1.753  -1.090  0.00  0.00    +0.000 A 
ATOM     10  C   UNL     1      -0.728  -3.116  -1.183  0.00  0.00    +0.002 A 
ENDBRANCH   3   5
ENDBRANCH   1   3
BRANCH   1  11
ATOM     11  C   UNL     1       0.934  -6.124   0.326  0.00  0.00    -0.041 C 
BRANCH  11  16
ATOM     12  C   UNL     1       3.373  -0.885   0.369  0.00  0.00    +0.044 C 
ATOM     13  C   UNL     1       2.737  -2.252   0.358  0.00  0.00    -0.050 A 
ATOM     14  C   UNL     1       2.366  -2.831  -0.841  0.00  0.00    +0.003 A 
ATOM     15  C   UNL     1       1.783  -4.085  -0.851  0.00  0.00    +0.002 A 
ATOM     16  C   UNL     1       1.571  -4.758   0.338  0.00  0.00    -0.061 A 
ATOM     17  C   UNL     1       1.943  -4.179   1.536  0.00  0.00    -0.049 A 
ATOM     18  C   UNL     1       2.530  -2.927   1.546  0.00  0.00    +0.007 A 
ATOM     19  C   UNL     1       1.711  -4.913   2.832  0.00  0.00    +0.044 C 
ENDBRANCH  11  16
ENDBRANCH   1  11
BRANCH   1  20
ATOM     20  C   UNL     1      -0.975  -7.376   1.061  0.00  0.00    +0.020 C 
BRANCH  20  21
ATOM     21  C   UNL     1      -2.148  -7.299   2.004  0.00  0.00    +0.179 A 
ATOM     22  N   UNL     1      -3.368  -7.645   1.717  0.00  0.00    -0.210 NA
ATOM     23  C   UNL     1      -4.144  -7.436   2.814  0.00  0.00    +0.164 A 
ATOM     24  C   UNL     1      -3.334  -6.942   3.790  0.00  0.00    +0.230 A 
ATOM     25  O   UNL     1      -2.098  -6.868   3.272  0.00  0.00    -0.449 OA
BRANCH  23  26
ATOM     26  C   UNL     1      -5.592  -7.695   2.925  0.00  0.00    +0.268 C 
ATOM     27  O   UNL     1      -6.184  -7.411   3.949  0.00  0.00    -0.268 OA
ATOM     28  N   UNL     1      -6.259  -8.246   1.892  0.00  0.00    -0.295 N 
ATOM     29  C   UNL     1      -5.534  -8.650   0.684  0.00  0.00    +0.132 C 
BRANCH  28  30
ATOM     30  C   UNL     1      -7.708  -8.443   1.977  0.00  0.00    +0.142 C 
BRANCH  30  31
ATOM     31  C   UNL     1      -8.412  -7.219   1.450  0.00  0.00    -0.030 A 
ATOM     32  C   UNL     1      -8.730  -6.182   2.308  0.00  0.00    +0.005 A 
ATOM     33  C   UNL     1      -9.376  -5.059   1.825  0.00  0.00    +0.000 A 
ATOM     34  C   UNL     1      -9.704  -4.973   0.484  0.00  0.00    +0.000 A 
ATOM     35  C   UNL     1      -9.385  -6.010  -0.373  0.00  0.00    +0.000 A 
ATOM     36  C   UNL     1      -8.736  -7.131   0.109  0.00  0.00    +0.005 A 
ENDBRANCH  30  31
ENDBRANCH  28  30
ENDBRANCH  23  26
ENDBRANCH  20  21
ENDBRANCH   1  20
TORSDOF 9
