REMARK  Name = ZINC59941723
REMARK  5 active torsions:
REMARK  status: ('A' for Active; 'I' for Inactive)
REMARK    1  A    between atoms: C_4  and  C_7
REMARK    2  A    between atoms: C_13  and  S_15
REMARK    3  A    between atoms: S_15  and  C_16
REMARK    4  A    between atoms: C_16  and  C_17
REMARK    5  A    between atoms: C_24  and  N_29
REMARK                            x       y       z     vdW  Elec       q    Type
REMARK                         _______ _______ _______ _____ _____    ______ ____
ROOT
ATOM      1  C   UNL     1       1.205  -5.131  -0.629  0.00  0.00    +0.173 C 
ENDROOT
BRANCH   1   2
ATOM      2  C   UNL     1       0.534  -6.130  -1.536  0.00  0.00    +0.229 C 
ATOM      3  O   UNL     1       0.677  -6.048  -2.738  0.00  0.00    -0.275 OA
ATOM      4  N   UNL     1      -0.226  -7.112  -1.013  0.00  0.00    -0.264 N 
ATOM      5  C   UNL     1      -0.843  -8.030  -1.848  0.00  0.00    +0.165 A 
ATOM      6  N   UNL     1      -1.616  -9.042  -1.530  0.00  0.00    -0.224 NA
ATOM      7  C   UNL     1      -2.155  -9.863  -2.458  0.00  0.00    +0.082 A 
ATOM      8  C   UNL     1      -2.997 -10.980  -2.251  0.00  0.00    +0.061 A 
ATOM      9  C   UNL     1      -3.460 -11.713  -3.312  0.00  0.00    +0.128 A 
ATOM     10  C   UNL     1      -3.123 -11.391  -4.619  0.00  0.00    +0.034 A 
ATOM     11  C   UNL     1      -2.302 -10.305  -4.857  0.00  0.00    +0.019 A 
ATOM     12  C   UNL     1      -1.833  -9.564  -3.801  0.00  0.00    +0.041 A 
ATOM     13  S   UNL     1      -0.795  -8.132  -3.632  0.00  0.00    -0.052 S 
ATOM     14  H   UNL     1      -0.340  -7.177  -0.052  0.00  0.00    +0.157 HD
BRANCH   9  15
ATOM     15  N   UNL     1      -4.340 -12.876  -3.058  0.00  0.00    +0.056 N 
ATOM     16  O   UNL     1      -4.642 -13.170  -1.925  0.00  0.00    -0.126 OA
ATOM     17  O   UNL     1      -4.757 -13.533  -3.984  0.00  0.00    -0.126 OA
ENDBRANCH   9  15
ENDBRANCH   1   2
BRANCH   1  18
ATOM     18  S   UNL     1       2.147  -3.945  -1.626  0.00  0.00    -0.084 S 
BRANCH  18  24
ATOM     19  C   UNL     1       3.711  -0.707  -0.038  0.00  0.00    +0.111 C 
ATOM     20  C   UNL     1       4.047  -1.207   1.374  0.00  0.00    +0.125 C 
ATOM     21  C   UNL     1       3.119  -2.342   1.724  0.00  0.00    +0.240 C 
ATOM     22  O   UNL     1       2.850  -2.553   2.890  0.00  0.00    -0.274 OA
ATOM     23  N   UNL     1       2.591  -3.115   0.786  0.00  0.00    -0.159 NA
ATOM     24  C   UNL     1       2.821  -2.923  -0.504  0.00  0.00    +0.147 C 
ATOM     25  N   UNL     1       3.613  -1.885  -0.916  0.00  0.00    -0.318 N 
ATOM     26  H   UNL     1       4.094  -1.923  -1.758  0.00  0.00    +0.148 HD
BRANCH  19  30
ATOM     27  C   UNL     1      -0.017   1.378   0.010  0.00  0.00    +0.000 A 
ATOM     28  C   UNL     1       1.171   2.086   0.002  0.00  0.00    +0.000 A 
ATOM     29  C   UNL     1       2.377   1.411  -0.013  0.00  0.00    +0.005 A 
ATOM     30  C   UNL     1       2.396   0.029  -0.020  0.00  0.00    -0.027 A 
ATOM     31  C   UNL     1       1.208  -0.679  -0.012  0.00  0.00    +0.005 A 
ATOM     32  C   UNL     1       0.002  -0.004   0.002  0.00  0.00    +0.000 A 
ENDBRANCH  19  30
ENDBRANCH  18  24
ENDBRANCH   1  18
TORSDOF 5
