REMARK  Name = ZINC49285083
REMARK  4 active torsions:
REMARK  status: ('A' for Active; 'I' for Inactive)
REMARK    1  A    between atoms: C_2  and  C_12
REMARK    2  A    between atoms: C_12  and  N_13
REMARK    3  A    between atoms: N_16  and  C_17
REMARK    4  A    between atoms: C_17  and  C_18
REMARK                            x       y       z     vdW  Elec       q    Type
REMARK                         _______ _______ _______ _____ _____    ______ ____
ROOT
ATOM      1  C   UNL     1      -0.017   1.383   0.010  0.00  0.00    +0.054 A 
ATOM      2  C   UNL     1       1.170   2.092   0.002  0.00  0.00    -0.026 A 
ATOM      3  C   UNL     1       2.378   1.421  -0.013  0.00  0.00    +0.024 A 
ATOM      4  C   UNL     1       2.405   0.038  -0.023  0.00  0.00    +0.063 A 
ATOM      5  C   UNL     1       1.217  -0.679  -0.016  0.00  0.00    +0.176 A 
ATOM      6  C   UNL     1       0.002  -0.004   0.002  0.00  0.00    +0.163 A 
ATOM      7  O   UNL     1      -1.174  -0.688   0.017  0.00  0.00    -0.485 OA
ATOM      8  C   UNL     1      -1.122  -2.066  -0.368  0.00  0.00    +0.270 C 
ATOM      9  C   UNL     1       0.061  -2.723   0.356  0.00  0.00    +0.270 C 
ATOM     10  O   UNL     1       1.258  -2.039  -0.029  0.00  0.00    -0.484 OA
ATOM     11 BR   UNL     1       4.060  -0.875  -0.046  0.00  0.00    -0.046 Br
ENDROOT
BRANCH   2  12
ATOM     12  C   UNL     1       1.146   3.599   0.010  0.00  0.00    +0.141 C 
BRANCH  12  13
ATOM     13  N   UNL     1       1.151   4.080   1.394  0.00  0.00    -0.295 N 
ATOM     14  C   UNL     1       1.132   5.403   1.648  0.00  0.00    +0.300 C 
ATOM     15  O   UNL     1       1.111   6.198   0.728  0.00  0.00    -0.253 OA
ATOM     16  N   UNL     1       1.137   5.846   2.921  0.00  0.00    -0.299 N 
ATOM     17  H   UNL     1       1.168   3.445   2.128  0.00  0.00    +0.151 HD
ATOM     18  H   UNL     1       1.154   5.211   3.655  0.00  0.00    +0.150 HD
BRANCH  16  19
ATOM     19  C   UNL     1       1.116   7.284   3.196  0.00  0.00    +0.109 C 
BRANCH  19  20
ATOM     20  C   UNL     1       1.127   7.514   4.709  0.00  0.00    +0.006 C 
ATOM     21  C   UNL     1      -0.095   8.197   5.328  0.00  0.00    +0.005 C 
ATOM     22  C   UNL     1       1.226   8.959   5.203  0.00  0.00    +0.005 C 
ENDBRANCH  19  20
ENDBRANCH  16  19
ENDBRANCH  12  13
ENDBRANCH   2  12
TORSDOF 4
