REMARK  Name = ZINC39710622
REMARK  11 active torsions:
REMARK  status: ('A' for Active; 'I' for Inactive)
REMARK    1  A    between atoms: C_1  and  C_2
REMARK    2  A    between atoms: C_7  and  C_14
REMARK    3  A    between atoms: C_14  and  C_16
REMARK    4  A    between atoms: C_14  and  N_27
REMARK    5  A    between atoms: N_21  and  C_22
REMARK    6  A    between atoms: N_27  and  C_28
REMARK    7  A    between atoms: N_27  and  C_37
REMARK    8  A    between atoms: C_28  and  C_29
REMARK    9  A    between atoms: C_32  and  O_35
REMARK   10  A    between atoms: O_35  and  C_36
REMARK   11  A    between atoms: C_37  and  C_38
REMARK                            x       y       z     vdW  Elec       q    Type
REMARK                         _______ _______ _______ _____ _____    ______ ____
ROOT
ATOM      1  C   UNL     1      -0.859  -6.234   1.233  0.00  0.00    -0.009 C 
ENDROOT
BRANCH   1   8
ATOM      2  C   UNL     1       5.374  -7.671  -2.678  0.00  0.00    +0.044 C 
ATOM      3  C   UNL     1       4.361  -7.326  -1.617  0.00  0.00    -0.049 A 
ATOM      4  C   UNL     1       4.521  -7.861  -0.339  0.00  0.00    +0.004 A 
ATOM      5  C   UNL     1       3.640  -7.587   0.658  0.00  0.00    +0.010 A 
ATOM      6  C   UNL     1       2.504  -6.710   0.374  0.00  0.00    -0.007 A 
ATOM      7  C   UNL     1       1.595  -6.406   1.344  0.00  0.00    -0.006 C 
ATOM      8  C   UNL     1       0.450  -5.489   0.961  0.00  0.00    +0.088 C 
ATOM      9  C   UNL     1       0.409  -4.987  -0.465  0.00  0.00    +0.223 C 
ATOM     10  O   UNL     1      -0.488  -4.248  -0.826  0.00  0.00    -0.275 OA
ATOM     11  N   UNL     1       1.352  -5.353  -1.317  0.00  0.00    -0.285 N 
ATOM     12  C   UNL     1       2.360  -6.158  -0.984  0.00  0.00    +0.041 A 
ATOM     13  C   UNL     1       3.331  -6.502  -1.943  0.00  0.00    +0.027 A 
ATOM     14  H   UNL     1       1.307  -5.019  -2.227  0.00  0.00    +0.155 HD
ENDBRANCH   1   8
BRANCH   1  15
ATOM     15  C   UNL     1      -2.040  -5.287   1.012  0.00  0.00    +0.205 C 
ATOM     16  N   UNL     1      -1.972  -4.156   1.948  0.00  0.00    -0.152 NA
ATOM     17  N   UNL     1      -2.978  -4.168   2.661  0.00  0.00    -0.070 NA
ATOM     18  N   UNL     1      -3.840  -5.223   2.365  0.00  0.00    -0.179 N 
ATOM     19  N   UNL     1      -3.312  -5.965   1.337  0.00  0.00    -0.185 NA
ATOM     20  H   UNL     1      -4.681  -5.404   2.814  0.00  0.00    +0.191 HD
BRANCH  19  21
ATOM     21  C   UNL     1      -4.213  -5.977   0.177  0.00  0.00    +0.080 C 
ATOM     22  C   UNL     1      -4.684  -4.543  -0.141  0.00  0.00    +0.021 C 
ATOM     23  C   UNL     1      -6.159  -4.716  -0.584  0.00  0.00    +0.002 C 
ATOM     24  C   UNL     1      -6.672  -5.826   0.366  0.00  0.00    +0.002 C 
ATOM     25  C   UNL     1      -5.477  -6.793   0.500  0.00  0.00    +0.021 C 
ENDBRANCH  19  21
ENDBRANCH   1  15
BRANCH   1  26
ATOM     26  N   UNL     1      -0.869  -6.714   2.622  0.00  0.00    +0.392 N 
ATOM     27  H   UNL     1      -0.032  -7.248   2.799  0.00  0.00    -0.080 HD
BRANCH  26  28
ATOM     28  C   UNL     1      -0.921  -5.566   3.536  0.00  0.00    -0.042 C 
BRANCH  28  29
ATOM     29  C   UNL     1      -0.470  -5.995   4.908  0.00  0.00    -0.064 A 
ATOM     30  C   UNL     1      -1.392  -6.476   5.819  0.00  0.00    +0.005 A 
ATOM     31  C   UNL     1      -0.980  -6.870   7.078  0.00  0.00    +0.046 A 
ATOM     32  C   UNL     1       0.360  -6.784   7.427  0.00  0.00    +0.120 A 
ATOM     33  C   UNL     1       1.283  -6.302   6.511  0.00  0.00    +0.046 A 
ATOM     34  C   UNL     1       0.867  -5.914   5.252  0.00  0.00    +0.005 A 
BRANCH  32  35
ATOM     35  O   UNL     1       0.767  -7.171   8.664  0.00  0.00    -0.495 OA
ATOM     36  C   UNL     1       2.161  -7.055   8.954  0.00  0.00    +0.277 C 
ENDBRANCH  32  35
ENDBRANCH  28  29
ENDBRANCH  26  28
BRANCH  26  37
ATOM     37  C   UNL     1      -2.047  -7.565   2.836  0.00  0.00    -0.002 C 
BRANCH  37  38
ATOM     38  C   UNL     1      -2.023  -8.712   1.859  0.00  0.00    +0.089 A 
ATOM     39  C   UNL     1      -1.517  -9.935   2.094  0.00  0.00    +0.042 A 
ATOM     40  C   UNL     1      -1.704 -10.690   0.913  0.00  0.00    +0.041 A 
ATOM     41  C   UNL     1      -2.313  -9.882   0.027  0.00  0.00    +0.195 A 
ATOM     42  O   UNL     1      -2.509  -8.687   0.607  0.00  0.00    -0.470 OA
ENDBRANCH  37  38
ENDBRANCH  26  37
ENDBRANCH   1  26
TORSDOF 9
