REMARK  Name = ZINC38660870
REMARK  12 active torsions:
REMARK  status: ('A' for Active; 'I' for Inactive)
REMARK    1  A    between atoms: C_1  and  C_2
REMARK    2  A    between atoms: C_2  and  C_3
REMARK    3  A    between atoms: C_2  and  O_4
REMARK    4  A    between atoms: O_4  and  C_5
REMARK    5  A    between atoms: C_8  and  C_11
REMARK    6  A    between atoms: C_11  and  O_13
REMARK    7  A    between atoms: O_13  and  C_14
REMARK    8  A    between atoms: C_21  and  N_40
REMARK    9  A    between atoms: C_22  and  C_38
REMARK   10  A    between atoms: C_23  and  C_25
REMARK   11  A    between atoms: C_29  and  O_31
REMARK   12  A    between atoms: O_31  and  C_32
REMARK                            x       y       z     vdW  Elec       q    Type
REMARK                         _______ _______ _______ _____ _____    ______ ____
ROOT
ATOM      1  C   UNL     1      -4.259  -6.957  -3.215  0.00  0.00    +0.135 A 
ATOM      2  C   UNL     1      -3.320  -7.732  -3.880  0.00  0.00    +0.047 A 
ATOM      3  C   UNL     1      -3.710  -8.894  -4.516  0.00  0.00    +0.012 A 
ATOM      4  C   UNL     1      -5.036  -9.290  -4.494  0.00  0.00    +0.008 A 
ATOM      5  C   UNL     1      -5.978  -8.519  -3.832  0.00  0.00    +0.138 A 
ATOM      6  C   UNL     1      -5.587  -7.353  -3.187  0.00  0.00    +0.093 A 
ATOM      7  O   UNL     1      -7.282  -8.890  -3.799  0.00  0.00    -0.441 OA
ATOM      8  C   UNL     1      -7.623 -10.163  -4.059  0.00  0.00    +0.199 C 
ATOM      9  C   UNL     1      -6.794 -11.008  -4.717  0.00  0.00    +0.098 C 
ATOM     10  C   UNL     1      -5.441 -10.560  -5.195  0.00  0.00    +0.098 C 
ENDROOT
BRANCH  10  11
ATOM     11  C   UNL     1      -5.492 -10.316  -6.681  0.00  0.00    -0.031 A 
ATOM     12  C   UNL     1      -6.345  -9.356  -7.194  0.00  0.00    +0.005 A 
ATOM     13  C   UNL     1      -6.394  -9.130  -8.557  0.00  0.00    +0.004 A 
ATOM     14  C   UNL     1      -5.591  -9.862  -9.410  0.00  0.00    +0.046 A 
ATOM     15  C   UNL     1      -4.734 -10.826  -8.897  0.00  0.00    +0.129 A 
ATOM     16  C   UNL     1      -4.683 -11.047  -7.528  0.00  0.00    +0.050 A 
BRANCH  15  17
ATOM     17  O   UNL     1      -3.943 -11.548  -9.734  0.00  0.00    -0.456 OA
BRANCH  17  18
ATOM     18  C   UNL     1      -3.202 -12.554  -9.200  0.00  0.00    +0.128 A 
ATOM     19  C   UNL     1      -3.808 -13.749  -8.842  0.00  0.00    +0.046 A 
ATOM     20  C   UNL     1      -3.052 -14.771  -8.300  0.00  0.00    +0.004 A 
ATOM     21  C   UNL     1      -1.692 -14.602  -8.114  0.00  0.00    +0.000 A 
ATOM     22  C   UNL     1      -1.086 -13.411  -8.470  0.00  0.00    +0.004 A 
ATOM     23  C   UNL     1      -1.836 -12.389  -9.018  0.00  0.00    +0.046 A 
ENDBRANCH  17  18
ENDBRANCH  15  17
ENDBRANCH  10  11
BRANCH   8  24
ATOM     24  N   UNL     1      -8.848 -10.622  -3.644  0.00  0.00    -0.328 N 
ATOM     25  H   UNL     1      -9.454 -10.029  -3.172  0.00  0.00    +0.145 HD
ATOM     26  H   UNL     1      -9.109 -11.539  -3.824  0.00  0.00    +0.145 HD
ENDBRANCH   8  24
BRANCH   9  27
ATOM     27  C   UNL     1      -7.215 -12.354  -4.963  0.00  0.00    +0.101 C 
ATOM     28  N   UNL     1      -7.548 -13.422  -5.159  0.00  0.00    -0.191 NA
ENDBRANCH   9  27
BRANCH   1  29
ATOM     29  O   UNL     1      -3.877  -5.813  -2.588  0.00  0.00    -0.422 OA
BRANCH  29  30
ATOM     30  C   UNL     1      -3.971  -5.767  -1.244  0.00  0.00    +0.344 C 
ATOM     31  O   UNL     1      -4.299  -6.759  -0.624  0.00  0.00    -0.245 OA
BRANCH  30  35
ATOM     32  C   UNL     1      -3.123  -2.155   0.820  0.00  0.00    +0.121 A 
ATOM     33  C   UNL     1      -3.498  -3.288   1.532  0.00  0.00    +0.046 A 
ATOM     34  C   UNL     1      -3.774  -4.462   0.866  0.00  0.00    +0.018 A 
ATOM     35  C   UNL     1      -3.677  -4.512  -0.527  0.00  0.00    +0.060 A 
ATOM     36  C   UNL     1      -3.299  -3.370  -1.240  0.00  0.00    +0.018 A 
ATOM     37  C   UNL     1      -3.030  -2.200  -0.567  0.00  0.00    +0.046 A 
BRANCH  32  38
ATOM     38  O   UNL     1      -2.851  -1.001   1.479  0.00  0.00    -0.489 OA
BRANCH  38  40
ATOM     39  C   UNL     1      -3.141   1.398   1.412  0.00  0.00    +0.051 C 
ATOM     40  C   UNL     1      -2.612   0.161   0.682  0.00  0.00    +0.167 C 
ATOM     41  C   UNL     1      -1.109   0.314   0.442  0.00  0.00    +0.051 C 
ENDBRANCH  38  40
ENDBRANCH  32  38
ENDBRANCH  30  35
ENDBRANCH  29  30
ENDBRANCH   1  29
TORSDOF 10
