REMARK  Name = ZINC12863875
REMARK  9 active torsions:
REMARK  status: ('A' for Active; 'I' for Inactive)
REMARK    1  A    between atoms: C_1  and  C_2
REMARK    2  A    between atoms: C_5  and  C_8
REMARK    3  A    between atoms: C_8  and  C_10
REMARK    4  A    between atoms: C_8  and  C_34
REMARK    5  A    between atoms: C_10  and  C_11
REMARK    6  A    between atoms: C_11  and  N_70
REMARK    7  A    between atoms: C_12  and  C_13
REMARK    8  A    between atoms: C_12  and  N_70
REMARK    9  A    between atoms: C_20  and  C_33
REMARK                            x       y       z     vdW  Elec       q    Type
REMARK                         _______ _______ _______ _____ _____    ______ ____
ROOT
ATOM      1  C   UNL     1       0.383  -3.005   2.028  0.00  0.00    -0.068 C 
ENDROOT
BRANCH   1   2
ATOM      2  C   UNL     1      -1.057  -2.532   1.820  0.00  0.00    +0.087 C 
ATOM      3  C   UNL     1      -1.251  -1.101   2.406  0.00  0.00    +0.042 C 
ATOM      4  C   UNL     1       0.131  -0.445   2.412  0.00  0.00    +0.014 C 
ATOM      5  C   UNL     1       0.010   1.073   2.514  0.00  0.00    +0.030 C 
ATOM      6  C   UNL     1      -0.729   1.579   1.267  0.00  0.00    -0.023 C 
ATOM      7  C   UNL     1      -0.757   3.107   1.278  0.00  0.00    +0.007 C 
ATOM      8  C   UNL     1       0.619   3.687   1.242  0.00  0.00    +0.003 C 
ATOM      9  C   UNL     1       1.401   3.251   2.486  0.00  0.00    +0.037 C 
ATOM     10  C   UNL     1       1.394   1.722   2.566  0.00  0.00    +0.096 C 
ATOM     11  C   UNL     1       2.470   1.046   3.413  0.00  0.00    +0.196 C 
ATOM     12  O   UNL     1       2.488   1.017   1.984  0.00  0.00    -0.368 OA
ATOM     13  C   UNL     1      -2.151   1.019   1.304  0.00  0.00    +0.052 C 
ATOM     14  C   UNL     1      -2.155  -0.476   1.326  0.00  0.00    +0.181 C 
ATOM     15  O   UNL     1      -1.644  -1.042   0.085  0.00  0.00    -0.461 OA
ATOM     16  C   UNL     1      -1.368  -2.343   0.326  0.00  0.00    +0.309 C 
ATOM     17  O   UNL     1      -1.365  -3.223  -0.503  0.00  0.00    -0.251 OA
ATOM     18  C   UNL     1      -0.013   1.086   0.008  0.00  0.00    +0.011 C 
ENDBRANCH   1   2
BRANCH   1  19
ATOM     19  N   UNL     1       0.502  -4.403   1.573  0.00  0.00    +0.380 N 
ATOM     20  H   UNL     1      -0.141  -4.992   2.115  0.00  0.00    -0.086 HD
ATOM     21  H   UNL     1       0.258  -4.457   0.577  0.00  0.00    -0.086 HD
BRANCH  19  22
ATOM     22  C   UNL     1       1.883  -4.887   1.762  0.00  0.00    -0.082 C 
BRANCH  22  23
ATOM     23  C   UNL     1       1.976  -6.337   1.282  0.00  0.00    -0.003 C 
BRANCH  23  24
ATOM     24  C   UNL     1       3.405  -6.847   1.474  0.00  0.00    +0.083 C 
BRANCH  24  29
ATOM     25  C   UNL     1       3.650 -12.456   0.105  0.00  0.00    +0.044 C 
ATOM     26  C   UNL     1       3.586 -10.993   0.462  0.00  0.00    -0.050 A 
ATOM     27  C   UNL     1       3.920 -10.578   1.738  0.00  0.00    +0.003 A 
ATOM     28  C   UNL     1       3.862  -9.236   2.065  0.00  0.00    +0.004 A 
ATOM     29  C   UNL     1       3.469  -8.309   1.117  0.00  0.00    -0.037 A 
ATOM     30  C   UNL     1       3.130  -8.725  -0.157  0.00  0.00    +0.004 A 
ATOM     31  C   UNL     1       3.193 -10.067  -0.485  0.00  0.00    +0.003 A 
ENDBRANCH  24  29
BRANCH  24  32
ATOM     32  C   UNL     1       4.340  -6.071   0.583  0.00  0.00    +0.112 A 
ATOM     33  C   UNL     1       5.382  -5.325   0.994  0.00  0.00    +0.045 A 
ATOM     34  C   UNL     1       5.978  -4.780  -0.166  0.00  0.00    +0.041 A 
ATOM     35  C   UNL     1       5.265  -5.224  -1.217  0.00  0.00    +0.195 A 
ATOM     36  O   UNL     1       4.278  -6.011  -0.758  0.00  0.00    -0.467 OA
ENDBRANCH  24  32
ENDBRANCH  23  24
ENDBRANCH  22  23
ENDBRANCH  19  22
ENDBRANCH   1  19
TORSDOF 7
