REMARK  Name = ZINC39362422
REMARK  5 active torsions:
REMARK  status: ('A' for Active; 'I' for Inactive)
REMARK    1  A    between atoms: C_8  and  C_13
REMARK    2  A    between atoms: C_13  and  N_14
REMARK    3  A    between atoms: C_20  and  C_23
REMARK    4  A    between atoms: C_23  and  N_24
REMARK    5  A    between atoms: C_25  and  C_27
REMARK                            x       y       z     vdW  Elec       q    Type
REMARK                         _______ _______ _______ _____ _____    ______ ____
ROOT
ATOM      1  N   UNL     1       3.977  -4.520   1.004  0.00  0.00    +0.381 N 
ATOM      2  C   UNL     1       5.244  -3.783   1.058  0.00  0.00    -0.076 C 
ATOM      3  C   UNL     1       6.407  -4.739   0.778  0.00  0.00    +0.016 C 
ATOM      4  C   UNL     1       6.406  -5.853   1.825  0.00  0.00    +0.067 C 
ATOM      5  C   UNL     1       7.520  -6.867   1.499  0.00  0.00    +0.037 C 
ATOM      6  C   UNL     1       8.663  -6.417   2.450  0.00  0.00    +0.036 C 
ATOM      7  C   UNL     1       7.850  -5.923   3.674  0.00  0.00    +0.136 C 
ATOM      8  O   UNL     1       6.675  -5.309   3.121  0.00  0.00    -0.369 OA
ATOM      9  C   UNL     1       5.053  -6.563   1.825  0.00  0.00    +0.016 C 
ATOM     10  C   UNL     1       3.943  -5.536   2.064  0.00  0.00    -0.076 C 
ATOM     11  H   UNL     1       3.890  -4.971   0.106  0.00  0.00    -0.082 HD
ENDROOT
BRANCH   1  12
ATOM     12  C   UNL     1       2.859  -3.584   1.190  0.00  0.00    -0.062 C 
BRANCH  12  20
ATOM     13  C   UNL     1       0.239  -3.660  -4.023  0.00  0.00    +0.001 A 
ATOM     14  C   UNL     1      -0.673  -2.679  -3.633  0.00  0.00    +0.002 A 
ATOM     15  C   UNL     1      -0.523  -1.950  -2.496  0.00  0.00    +0.024 A 
ATOM     16  C   UNL     1       0.582  -2.163  -1.652  0.00  0.00    +0.040 A 
ATOM     17  N   UNL     1       0.718  -1.442  -0.539  0.00  0.00    -0.285 N 
ATOM     18  C   UNL     1       1.732  -1.590   0.298  0.00  0.00    +0.222 C 
ATOM     19  O   UNL     1       1.802  -0.902   1.299  0.00  0.00    -0.275 OA
ATOM     20  C   UNL     1       2.801  -2.618   0.006  0.00  0.00    +0.082 C 
ATOM     21  C   UNL     1       2.651  -3.441  -1.258  0.00  0.00    -0.007 C 
ATOM     22  C   UNL     1       1.561  -3.193  -2.039  0.00  0.00    -0.007 A 
ATOM     23  C   UNL     1       1.338  -3.941  -3.277  0.00  0.00    +0.009 A 
ATOM     24  H   UNL     1       0.043  -0.777  -0.333  0.00  0.00    +0.155 HD
ENDBRANCH  12  20
ENDBRANCH   1  12
BRANCH   7  25
ATOM     25  C   UNL     1       8.661  -4.899   4.472  0.00  0.00    +0.136 C 
BRANCH  25  26
ATOM     26  N   UNL     1       7.927  -4.534   5.686  0.00  0.00    -0.306 N 
ATOM     27  C   UNL     1       8.452  -3.641   6.548  0.00  0.00    +0.279 C 
ATOM     28  O   UNL     1       9.536  -3.138   6.318  0.00  0.00    -0.267 OA
ATOM     29  H   UNL     1       7.063  -4.936   5.870  0.00  0.00    +0.149 HD
BRANCH  27  30
ATOM     30  C   UNL     1       7.717  -3.276   7.763  0.00  0.00    +0.189 A 
ATOM     31  C   UNL     1       8.129  -2.385   8.713  0.00  0.00    +0.054 A 
ATOM     32  C   UNL     1       7.123  -2.344   9.691  0.00  0.00    +0.042 A 
ATOM     33  C   UNL     1       6.154  -3.201   9.301  0.00  0.00    +0.196 A 
ATOM     34  O   UNL     1       6.513  -3.756   8.137  0.00  0.00    -0.458 OA
ENDBRANCH  27  30
ENDBRANCH  25  26
ENDBRANCH   7  25
TORSDOF 5
