REMARK  Name = ZINC17197247
REMARK  8 active torsions:
REMARK  status: ('A' for Active; 'I' for Inactive)
REMARK    1  A    between atoms: C_1  and  C_2
REMARK    2  A    between atoms: C_5  and  N_8
REMARK    3  A    between atoms: C_9  and  C_32
REMARK    4  A    between atoms: C_11  and  C_14
REMARK    5  A    between atoms: C_12  and  C_13
REMARK    6  A    between atoms: C_16  and  O_31
REMARK    7  A    between atoms: N_20  and  C_23
REMARK    8  A    between atoms: C_26  and  C_30
REMARK                            x       y       z     vdW  Elec       q    Type
REMARK                         _______ _______ _______ _____ _____    ______ ____
ROOT
ATOM      1  C   UNL     1      -4.504   2.713   7.960  0.00  0.00    +0.028 C 
ATOM      2  C   UNL     1      -5.432   3.665   8.365  0.00  0.00    +0.097 C 
ATOM      3  C   UNL     1      -6.620   3.294   9.146  0.00  0.00    +0.218 C 
ATOM      4  N   UNL     1      -7.463   4.249   9.504  0.00  0.00    -0.127 NA
ATOM      5  C   UNL     1      -7.270   5.523   9.171  0.00  0.00    +0.340 C 
ATOM      6  O   UNL     1      -8.093   6.344   9.533  0.00  0.00    -0.250 OA
ATOM      7  N   UNL     1      -6.219   5.951   8.456  0.00  0.00    -0.188 N 
ATOM      8  C   UNL     1      -5.272   5.091   8.025  0.00  0.00    +0.263 C 
ATOM      9  O   UNL     1      -4.318   5.479   7.376  0.00  0.00    -0.269 OA
ENDROOT
BRANCH   7  10
ATOM     10  C   UNL     1      -6.101   7.314   8.152  0.00  0.00    +0.047 A 
ATOM     11  C   UNL     1      -6.532   7.792   6.921  0.00  0.00    +0.024 A 
ATOM     12  C   UNL     1      -6.415   9.135   6.624  0.00  0.00    +0.006 A 
ATOM     13  C   UNL     1      -5.871  10.006   7.551  0.00  0.00    -0.032 A 
ATOM     14  C   UNL     1      -5.442   9.533   8.779  0.00  0.00    +0.046 A 
ATOM     15  C   UNL     1      -5.561   8.190   9.084  0.00  0.00    +0.044 A 
ATOM     16 CL   UNL     1      -4.759  10.629   9.940  0.00  0.00    -0.083 Cl
ATOM     17  C   UNL     1      -5.747  11.471   7.224  0.00  0.00    +0.045 C 
ENDBRANCH   7  10
BRANCH   1  21
ATOM     18  N   UNL     1      -1.486   3.245   6.099  0.00  0.00    -0.317 N 
ATOM     19  C   UNL     1      -1.357   4.248   7.022  0.00  0.00    +0.022 A 
ATOM     20  C   UNL     1      -2.416   4.229   7.847  0.00  0.00    +0.031 A 
ATOM     21  C   UNL     1      -3.273   3.121   7.397  0.00  0.00    -0.003 A 
ATOM     22  C   UNL     1      -2.628   2.563   6.302  0.00  0.00    +0.028 A 
ATOM     23  C   UNL     1      -3.119   1.395   5.485  0.00  0.00    +0.064 C 
ATOM     24  C   UNL     1      -0.208   5.220   7.099  0.00  0.00    +0.064 C 
BRANCH  18  29
ATOM     25  C   UNL     1       2.257   2.137   1.980  0.00  0.00    +0.044 C 
ATOM     26  C   UNL     1       1.263   2.432   3.074  0.00  0.00    -0.050 A 
ATOM     27  C   UNL     1      -0.009   2.867   2.751  0.00  0.00    +0.005 A 
ATOM     28  C   UNL     1      -0.924   3.133   3.751  0.00  0.00    +0.026 A 
ATOM     29  C   UNL     1      -0.561   2.972   5.082  0.00  0.00    +0.047 A 
ATOM     30  C   UNL     1       0.718   2.540   5.403  0.00  0.00    +0.026 A 
ATOM     31  C   UNL     1       1.627   2.271   4.398  0.00  0.00    +0.005 A 
ENDBRANCH  18  29
ENDBRANCH   1  21
BRANCH   3  32
ATOM     32  O   UNL     1      -6.845   2.010   9.494  0.00  0.00    -0.493 OA
ATOM     33  H   UNL     1      -7.654   1.877  10.006  0.00  0.00    +0.294 HD
ENDBRANCH   3  32
TORSDOF 4
