REMARK  Name = ZINC02055613
REMARK  5 active torsions:
REMARK  status: ('A' for Active; 'I' for Inactive)
REMARK    1  A    between atoms: C_1  and  C_2
REMARK    2  A    between atoms: C_5  and  C_21
REMARK    3  A    between atoms: C_7  and  N_8
REMARK    4  A    between atoms: C_9  and  C_10
REMARK    5  A    between atoms: C_19  and  O_20
REMARK                            x       y       z     vdW  Elec       q    Type
REMARK                         _______ _______ _______ _____ _____    ______ ____
ROOT
ATOM      1  C   UNL     1       0.544   1.443   0.029  0.00  0.00    +0.046 C 
ATOM      2  C   UNL     1       0.265  -0.038   0.014  0.00  0.00    -0.025 A 
ATOM      3  C   UNL     1       0.261  -0.726  -1.183  0.00  0.00    +0.006 A 
ATOM      4  C   UNL     1       0.005  -2.083  -1.206  0.00  0.00    +0.013 A 
ATOM      5  C   UNL     1      -0.252  -2.769  -0.017  0.00  0.00    +0.039 A 
ATOM      6  C   UNL     1      -0.249  -2.082   1.195  0.00  0.00    +0.041 A 
ATOM      7  C   UNL     1       0.015  -0.713   1.212  0.00  0.00    +0.067 A 
ENDROOT
BRANCH   5   8
ATOM      8  C   UNL     1      -0.526  -4.222  -0.044  0.00  0.00    +0.228 A 
ATOM      9  N   UNL     1      -0.784  -4.956   1.008  0.00  0.00    -0.209 NA
ATOM     10  C   UNL     1      -0.985  -6.238   0.607  0.00  0.00    +0.111 A 
ATOM     11  C   UNL     1      -1.286  -7.424   1.282  0.00  0.00    +0.051 A 
ATOM     12  C   UNL     1      -1.431  -8.595   0.572  0.00  0.00    +0.043 A 
ATOM     13  C   UNL     1      -1.279  -8.604  -0.808  0.00  0.00    +0.024 A 
ATOM     14  C   UNL     1      -0.982  -7.441  -1.487  0.00  0.00    +0.050 A 
ATOM     15  C   UNL     1      -0.833  -6.252  -0.789  0.00  0.00    +0.156 A 
ATOM     16  O   UNL     1      -0.554  -4.981  -1.155  0.00  0.00    -0.435 OA
ATOM     17 CL   UNL     1      -1.804 -10.070   1.408  0.00  0.00    -0.083 Cl
ENDBRANCH   5   8
BRANCH   7  18
ATOM     18  N   UNL     1       0.025  -0.031   2.398  0.00  0.00    -0.255 NA
ATOM     19  C   UNL     1       0.685  -0.507   3.420  0.00  0.00    +0.123 C 
BRANCH  19  20
ATOM     20  C   UNL     1       0.599   0.159   4.722  0.00  0.00    +0.042 A 
ATOM     21  C   UNL     1       1.337  -0.357   5.876  0.00  0.00    -0.006 A 
ATOM     22  C   UNL     1       2.145  -1.495   5.776  0.00  0.00    +0.009 A 
ATOM     23  C   UNL     1       2.816  -1.943   6.875  0.00  0.00    +0.001 A 
ATOM     24  C   UNL     1       2.709  -1.284   8.097  0.00  0.00    +0.001 A 
ATOM     25  C   UNL     1       1.931  -0.173   8.228  0.00  0.00    +0.008 A 
ATOM     26  C   UNL     1       1.225   0.317   7.116  0.00  0.00    -0.017 A 
ATOM     27  C   UNL     1       0.413   1.461   7.214  0.00  0.00    +0.012 A 
ATOM     28  C   UNL     1      -0.266   1.928   6.133  0.00  0.00    +0.046 A 
ATOM     29  C   UNL     1      -0.185   1.304   4.889  0.00  0.00    +0.126 A 
BRANCH  29  30
ATOM     30  O   UNL     1      -0.875   1.808   3.835  0.00  0.00    -0.506 OA
ATOM     31  H   UNL     1      -1.768   1.448   3.742  0.00  0.00    +0.292 HD
ENDBRANCH  29  30
ENDBRANCH  19  20
ENDBRANCH   7  18
TORSDOF 4
