REMARK  Name = ZINC64622460
REMARK  12 active torsions:
REMARK  status: ('A' for Active; 'I' for Inactive)
REMARK    1  A    between atoms: C_1  and  C_2
REMARK    2  A    between atoms: C_2  and  C_3
REMARK    3  A    between atoms: C_2  and  C_4
REMARK    4  A    between atoms: C_4  and  N_5
REMARK    5  A    between atoms: N_5  and  C_6
REMARK    6  A    between atoms: N_5  and  C_7
REMARK    7  A    between atoms: N_11  and  C_32
REMARK    8  A    between atoms: C_13  and  C_16
REMARK    9  A    between atoms: N_18  and  C_19
REMARK   10  A    between atoms: C_19  and  C_20
REMARK   11  A    between atoms: C_26  and  O_30
REMARK   12  A    between atoms: O_30  and  C_31
REMARK                            x       y       z     vdW  Elec       q    Type
REMARK                         _______ _______ _______ _____ _____    ______ ____
ROOT
ATOM      1  C   UNL     1      -1.329  -2.589  -1.337  0.00  0.00    +0.248 C 
ATOM      2  O   UNL     1      -1.211  -1.869  -2.473  0.00  0.00    -0.270 OA
ATOM      3  C   UNL     1      -1.246  -3.949  -1.381  0.00  0.00    +0.079 C 
ATOM      4  C   UNL     1      -0.980  -4.675  -2.682  0.00  0.00    +0.149 C 
ATOM      5  N   UNL     1      -0.903  -6.139  -2.661  0.00  0.00    -0.327 N 
ATOM      6  C   UNL     1      -1.065  -6.818  -1.509  0.00  0.00    +0.087 C 
ATOM      7  C   UNL     1      -1.307  -6.194  -0.312  0.00  0.00    +0.097 C 
ATOM      8  C   UNL     1      -1.401  -4.728  -0.213  0.00  0.00    +0.202 C 
ATOM      9  O   UNL     1      -1.612  -4.193   0.863  0.00  0.00    -0.287 OA
ENDROOT
BRANCH   5  10
ATOM     10  C   UNL     1      -0.646  -6.871  -3.904  0.00  0.00    +0.073 C 
ATOM     11  C   UNL     1      -1.783  -7.881  -4.167  0.00  0.00    +0.022 C 
ATOM     12  C   UNL     1      -1.064  -9.111  -4.774  0.00  0.00    +0.002 C 
ATOM     13  C   UNL     1       0.255  -9.170  -3.965  0.00  0.00    +0.002 C 
ATOM     14  C   UNL     1       0.649  -7.691  -3.776  0.00  0.00    +0.022 C 
ENDBRANCH   5  10
BRANCH   7  15
ATOM     15  C   UNL     1      -1.473  -7.006   0.898  0.00  0.00    +0.249 C 
ATOM     16  O   UNL     1      -1.509  -8.219   0.817  0.00  0.00    -0.270 OA
ATOM     17  N   UNL     1      -1.585  -6.407   2.101  0.00  0.00    -0.307 N 
ATOM     18  H   UNL     1      -1.635  -5.440   2.159  0.00  0.00    +0.149 HD
BRANCH  17  19
ATOM     19  C   UNL     1      -1.630  -7.217   3.321  0.00  0.00    +0.151 C 
BRANCH  19  20
ATOM     20  C   UNL     1      -1.758  -6.299   4.538  0.00  0.00    +0.191 C 
ATOM     21  N   UNL     1      -2.961  -5.467   4.416  0.00  0.00    -0.362 N 
ATOM     22  C   UNL     1      -2.577  -4.223   4.404  0.00  0.00    +0.060 A 
ATOM     23  C   UNL     1      -3.322  -2.959   4.303  0.00  0.00    +0.031 A 
ATOM     24  C   UNL     1      -2.658  -1.788   4.315  0.00  0.00    +0.048 A 
ATOM     25  C   UNL     1      -1.206  -1.728   4.425  0.00  0.00    +0.122 A 
ATOM     26  C   UNL     1      -0.450  -2.848   4.522  0.00  0.00    +0.073 A 
ATOM     27  C   UNL     1      -1.095  -4.163   4.516  0.00  0.00    +0.064 A 
ATOM     28  N   UNL     1      -0.618  -5.377   4.596  0.00  0.00    -0.362 N 
ATOM     29  H   UNL     1      -3.875  -5.785   4.356  0.00  0.00    +0.162 HD
ATOM     30  H   UNL     1       0.316  -5.623   4.678  0.00  0.00    +0.162 HD
BRANCH  25  31
ATOM     31  O   UNL     1      -0.595  -0.517   4.431  0.00  0.00    -0.495 OA
ATOM     32  C   UNL     1      -1.435   0.634   4.326  0.00  0.00    +0.277 C 
ENDBRANCH  25  31
ENDBRANCH  19  20
ENDBRANCH  17  19
ENDBRANCH   7  15
BRANCH   1  33
ATOM     33  N   UNL     1      -1.532  -1.954  -0.141  0.00  0.00    -0.300 N 
ATOM     34  C   UNL     1      -0.386  -1.497   0.649  0.00  0.00    +0.132 C 
BRANCH  33  35
ATOM     35  C   UNL     1      -2.895  -1.731   0.348  0.00  0.00    +0.110 C 
BRANCH  35  37
ATOM     36  C   UNL     1      -4.871  -0.206   0.243  0.00  0.00    +0.009 C 
ATOM     37  C   UNL     1      -3.406  -0.383  -0.163  0.00  0.00    +0.000 C 
ATOM     38  C   UNL     1      -2.569   0.744   0.445  0.00  0.00    +0.009 C 
ENDBRANCH  35  37
ENDBRANCH  33  35
ENDBRANCH   1  33
TORSDOF 8
