REMARK  Name = ZINC06246603
REMARK  11 active torsions:
REMARK  status: ('A' for Active; 'I' for Inactive)
REMARK    1  A    between atoms: C_1  and  C_2
REMARK    2  A    between atoms: C_5  and  C_8
REMARK    3  A    between atoms: C_11  and  S_19
REMARK    4  A    between atoms: N_12  and  C_13
REMARK    5  A    between atoms: S_19  and  C_20
REMARK    6  A    between atoms: C_20  and  C_22
REMARK    7  A    between atoms: C_20  and  C_23
REMARK    8  A    between atoms: N_25  and  N_26
REMARK    9  A    between atoms: C_27  and  C_29
REMARK   10  A    between atoms: C_29  and  O_30
REMARK   11  A    between atoms: O_30  and  C_31
REMARK                            x       y       z     vdW  Elec       q    Type
REMARK                         _______ _______ _______ _____ _____    ______ ____
ROOT
ATOM      1  S   UNL     1       5.323  10.948   0.918  0.00  0.00    -0.073 S 
ENDROOT
BRANCH   1   5
ATOM      2  C   UNL     1       4.772  14.816   0.759  0.00  0.00    +0.169 A 
ATOM      3  N   UNL     1       3.590  14.341   0.441  0.00  0.00    -0.128 NA
ATOM      4  N   UNL     1       3.616  13.056   0.446  0.00  0.00    -0.122 NA
ATOM      5  C   UNL     1       4.814  12.629   0.776  0.00  0.00    +0.197 A 
ATOM      6  N   UNL     1       5.594  13.734   0.984  0.00  0.00    -0.270 N 
BRANCH   2  11
ATOM      7  C   UNL     1       6.238  20.367   1.146  0.00  0.00    +0.044 C 
ATOM      8  C   UNL     1       5.854  18.913   1.045  0.00  0.00    -0.050 A 
ATOM      9  C   UNL     1       6.838  17.947   0.933  0.00  0.00    +0.004 A 
ATOM     10  C   UNL     1       6.493  16.614   0.840  0.00  0.00    +0.012 A 
ATOM     11  C   UNL     1       5.148  16.242   0.859  0.00  0.00    +0.020 A 
ATOM     12  C   UNL     1       4.160  17.222   0.965  0.00  0.00    +0.012 A 
ATOM     13  C   UNL     1       4.519  18.550   1.064  0.00  0.00    +0.004 A 
ENDBRANCH   2  11
BRANCH   6  14
ATOM     14  C   UNL     1       6.947  13.759   1.349  0.00  0.00    +0.051 A 
ATOM     15  C   UNL     1       7.321  14.226   2.602  0.00  0.00    +0.026 A 
ATOM     16  C   UNL     1       8.655  14.245   2.961  0.00  0.00    +0.002 A 
ATOM     17  C   UNL     1       9.618  13.809   2.070  0.00  0.00    +0.000 A 
ATOM     18  C   UNL     1       9.249  13.348   0.819  0.00  0.00    +0.002 A 
ATOM     19  C   UNL     1       7.917  13.322   0.457  0.00  0.00    +0.026 A 
ENDBRANCH   6  14
ENDBRANCH   1   5
BRANCH   1  20
ATOM     20  C   UNL     1       3.771  10.114   0.501  0.00  0.00    +0.138 C 
ATOM     21  C   UNL     1       3.404  10.417  -0.954  0.00  0.00    +0.029 C 
BRANCH  20  22
ATOM     22  C   UNL     1       3.937   8.627   0.677  0.00  0.00    +0.242 C 
ATOM     23  O   UNL     1       5.047   8.138   0.689  0.00  0.00    -0.273 OA
ATOM     24  N   UNL     1       2.853   7.840   0.822  0.00  0.00    -0.233 N 
ATOM     25  H   UNL     1       1.965   8.232   0.813  0.00  0.00    +0.173 HD
BRANCH  24  26
ATOM     26  N   UNL     1       3.007   6.458   0.987  0.00  0.00    -0.232 N 
ATOM     27  C   UNL     1       1.922   5.671   1.132  0.00  0.00    +0.267 C 
ATOM     28  O   UNL     1       0.812   6.160   1.120  0.00  0.00    -0.271 OA
ATOM     29  H   UNL     1       3.894   6.066   0.996  0.00  0.00    +0.173 HD
BRANCH  27  30
ATOM     30  C   UNL     1       2.088   4.184   1.308  0.00  0.00    +0.326 C 
BRANCH  30  31
ATOM     31  O   UNL     1       0.803   3.573   1.441  0.00  0.00    -0.483 OA
BRANCH  31  32
ATOM     32  C   UNL     1       0.774   2.225   1.609  0.00  0.00    +0.121 A 
ATOM     33  C   UNL     1      -0.440   1.567   1.744  0.00  0.00    +0.047 A 
ATOM     34  C   UNL     1      -0.466   0.197   1.914  0.00  0.00    +0.023 A 
ATOM     35  C   UNL     1       0.717  -0.520   1.950  0.00  0.00    +0.041 A 
ATOM     36  C   UNL     1       1.928   0.134   1.816  0.00  0.00    +0.023 A 
ATOM     37  C   UNL     1       1.959   1.504   1.646  0.00  0.00    +0.047 A 
ATOM     38 CL   UNL     1       0.680  -2.243   2.164  0.00  0.00    -0.084 Cl
ENDBRANCH  31  32
ENDBRANCH  30  31
ENDBRANCH  27  30
ENDBRANCH  24  26
ENDBRANCH  20  22
ENDBRANCH   1  20
TORSDOF 9
