REMARK  Name = ZINC39499037
REMARK  7 active torsions:
REMARK  status: ('A' for Active; 'I' for Inactive)
REMARK    1  A    between atoms: C_1  and  C_2
REMARK    2  A    between atoms: C_2  and  C_3
REMARK    3  A    between atoms: C_2  and  S_4
REMARK    4  A    between atoms: S_4  and  C_7
REMARK    5  A    between atoms: N_15  and  C_24
REMARK    6  A    between atoms: C_17  and  C_18
REMARK    7  A    between atoms: C_29  and  O_30
REMARK                            x       y       z     vdW  Elec       q    Type
REMARK                         _______ _______ _______ _____ _____    ______ ____
ROOT
ATOM      1  C   UNL     1      -1.958   0.061  -1.746  0.00  0.00    +0.103 A 
ATOM      2  C   UNL     1      -2.678  -0.770  -2.579  0.00  0.00    +0.038 A 
ATOM      3  C   UNL     1      -3.457  -0.223  -3.602  0.00  0.00    +0.003 A 
ATOM      4  C   UNL     1      -3.498   1.163  -3.769  0.00  0.00    -0.020 A 
ATOM      5  C   UNL     1      -2.776   1.983  -2.931  0.00  0.00    +0.023 A 
ATOM      6  C   UNL     1      -2.010   1.434  -1.915  0.00  0.00    +0.043 A 
ATOM      7 BR   UNL     1      -1.026   2.564  -0.761  0.00  0.00    -0.048 Br
ATOM      8  C   UNL     1      -4.410   1.444  -4.936  0.00  0.00    +0.147 C 
ATOM      9  N   UNL     1      -4.883   0.142  -5.421  0.00  0.00    -0.292 N 
ATOM     10  C   UNL     1      -4.316  -0.846  -4.628  0.00  0.00    +0.042 C 
ATOM     11  C   UNL     1      -4.518  -2.174  -4.773  0.00  0.00    +0.032 C 
ENDROOT
BRANCH  11  12
ATOM     12  C   UNL     1      -5.095  -2.698  -6.021  0.00  0.00    -0.023 A 
ATOM     13  C   UNL     1      -4.573  -2.303  -7.257  0.00  0.00    +0.008 A 
ATOM     14  C   UNL     1      -5.118  -2.799  -8.422  0.00  0.00    +0.001 A 
ATOM     15  C   UNL     1      -6.179  -3.685  -8.371  0.00  0.00    +0.000 A 
ATOM     16  C   UNL     1      -6.702  -4.082  -7.152  0.00  0.00    +0.001 A 
ATOM     17  C   UNL     1      -6.164  -3.599  -5.978  0.00  0.00    +0.008 A 
ENDBRANCH  11  12
BRANCH   9  18
ATOM     18  C   UNL     1      -5.753  -0.067  -6.496  0.00  0.00    +0.076 A 
ATOM     19  C   UNL     1      -5.306   0.107  -7.798  0.00  0.00    +0.027 A 
ATOM     20  C   UNL     1      -6.168  -0.100  -8.858  0.00  0.00    +0.002 A 
ATOM     21  C   UNL     1      -7.477  -0.480  -8.625  0.00  0.00    +0.004 A 
ATOM     22  C   UNL     1      -7.930  -0.656  -7.331  0.00  0.00    +0.047 A 
ATOM     23  C   UNL     1      -7.071  -0.456  -6.263  0.00  0.00    +0.138 A 
BRANCH  23  24
ATOM     24  O   UNL     1      -7.514  -0.634  -4.989  0.00  0.00    -0.505 OA
ATOM     25  H   UNL     1      -7.886   0.162  -4.587  0.00  0.00    +0.292 HD
ENDBRANCH  23  24
ENDBRANCH   9  18
BRANCH   1  26
ATOM     26  S   UNL     1      -0.975  -0.628  -0.456  0.00  0.00    +0.000 S 
ATOM     27  O   UNL     1       0.296  -0.010  -0.599  0.00  0.00    -0.169 OA
ATOM     28  O   UNL     1      -1.118  -2.034  -0.602  0.00  0.00    -0.169 OA
BRANCH  26  30
ATOM     29  C   UNL     1      -3.185  -0.647   1.156  0.00  0.00    +0.032 C 
ATOM     30  C   UNL     1      -1.768  -0.076   1.080  0.00  0.00    +0.130 C 
ATOM     31  C   UNL     1      -0.955  -0.568   2.279  0.00  0.00    +0.032 C 
ENDBRANCH  26  30
ENDBRANCH   1  26
TORSDOF 5
