REMARK  Name = ZINC14883053
REMARK  10 active torsions:
REMARK  status: ('A' for Active; 'I' for Inactive)
REMARK    1  A    between atoms: C_1  and  O_2
REMARK    2  A    between atoms: O_2  and  C_3
REMARK    3  A    between atoms: C_3  and  C_5
REMARK    4  A    between atoms: N_7  and  C_10
REMARK    5  A    between atoms: C_13  and  C_23
REMARK    6  A    between atoms: C_16  and  C_17
REMARK    7  A    between atoms: C_16  and  N_65
REMARK    8  A    between atoms: N_25  and  C_26
REMARK    9  A    between atoms: C_26  and  C_27
REMARK   10  A    between atoms: C_27  and  C_28
REMARK                            x       y       z     vdW  Elec       q    Type
REMARK                         _______ _______ _______ _____ _____    ______ ____
ROOT
ATOM      1  C   UNL     1       1.930   3.164   0.131  0.00  0.00    +0.091 C 
ATOM      2  C   UNL     1       1.801   3.704  -1.318  0.00  0.00    +0.019 C 
ATOM      3  C   UNL     1       1.580   5.217  -1.069  0.00  0.00    +0.021 C 
ATOM      4  C   UNL     1       0.936   4.043   0.919  0.00  0.00    -0.051 C 
ATOM      5  N   UNL     1       0.727   5.272   0.132  0.00  0.00    +0.389 N 
ATOM      6  H   UNL     1      -0.258   5.330  -0.153  0.00  0.00    -0.081 HD
ENDROOT
BRANCH   1   9
ATOM      7  C   UNL     1       0.382  -0.091   0.294  0.00  0.00    +0.189 A 
ATOM      8  C   UNL     1       0.281   1.271   0.244  0.00  0.00    +0.145 A 
ATOM      9  N   UNL     1       1.538   1.754   0.195  0.00  0.00    -0.250 N 
ATOM     10  N   UNL     1       2.399   0.648   0.217  0.00  0.00    -0.065 NA
ATOM     11  N   UNL     1       1.685  -0.422   0.275  0.00  0.00    -0.123 NA
BRANCH   7  12
ATOM     12  C   UNL     1      -0.747  -1.037   0.357  0.00  0.00    +0.361 C 
ATOM     13  O   UNL     1      -1.888  -0.621   0.369  0.00  0.00    -0.243 OA
BRANCH  12  15
ATOM     14  C   UNL     1      -1.671  -3.236   0.464  0.00  0.00    +0.280 C 
ATOM     15  O   UNL     1      -0.512  -2.363   0.402  0.00  0.00    -0.463 OA
ENDBRANCH  12  15
ENDBRANCH   7  12
ENDBRANCH   1   9
BRANCH   3  16
ATOM     16  C   UNL     1       0.863   5.842  -2.238  0.00  0.00    +0.200 C 
ATOM     17  O   UNL     1      -0.248   6.304  -2.092  0.00  0.00    -0.278 OA
ATOM     18  N   UNL     1       1.458   5.888  -3.447  0.00  0.00    -0.316 N 
ATOM     19  H   UNL     1       2.348   5.518  -3.564  0.00  0.00    +0.149 HD
BRANCH  18  20
ATOM     20  C   UNL     1       0.762   6.495  -4.584  0.00  0.00    +0.109 C 
BRANCH  20  21
ATOM     21  C   UNL     1       1.650   6.417  -5.827  0.00  0.00    +0.054 C 
BRANCH  21  22
ATOM     22  C   UNL     1       0.934   7.042  -6.996  0.00  0.00    -0.045 A 
ATOM     23  C   UNL     1       0.132   6.264  -7.811  0.00  0.00    +0.004 A 
ATOM     24  C   UNL     1      -0.529   6.838  -8.881  0.00  0.00    +0.002 A 
ATOM     25  C   UNL     1      -0.381   8.187  -9.143  0.00  0.00    +0.020 A 
ATOM     26  C   UNL     1       0.425   8.964  -8.331  0.00  0.00    +0.041 A 
ATOM     27  C   UNL     1       1.083   8.391  -7.257  0.00  0.00    +0.023 A 
ATOM     28 CL   UNL     1       0.613  10.658  -8.660  0.00  0.00    -0.084 Cl
ENDBRANCH  21  22
ENDBRANCH  20  21
ENDBRANCH  18  20
ENDBRANCH   3  16
BRANCH   5  29
ATOM     29  C   UNL     1       1.066   6.465   0.951  0.00  0.00    -0.074 C 
BRANCH  29  30
ATOM     30  C   UNL     1       0.070   6.587   2.106  0.00  0.00    -0.028 C 
ATOM     31  C   UNL     1      -1.333   6.829   1.546  0.00  0.00    +0.002 C 
ATOM     32  C   UNL     1      -2.329   6.951   2.702  0.00  0.00    +0.000 C 
ATOM     33  C   UNL     1      -1.928   8.124   3.598  0.00  0.00    +0.000 C 
ATOM     34  C   UNL     1      -0.525   7.882   4.158  0.00  0.00    +0.000 C 
ATOM     35  C   UNL     1       0.471   7.760   3.003  0.00  0.00    +0.002 C 
ENDBRANCH  29  30
ENDBRANCH   5  29
TORSDOF 9
