REMARK  Name = ZINC00689308
REMARK  10 active torsions:
REMARK  status: ('A' for Active; 'I' for Inactive)
REMARK    1  A    between atoms: C_1  and  C_2
REMARK    2  A    between atoms: C_2  and  C_3
REMARK    3  A    between atoms: C_2  and  C_4
REMARK    4  A    between atoms: C_2  and  C_5
REMARK    5  A    between atoms: C_12  and  N_32
REMARK    6  A    between atoms: C_13  and  C_30
REMARK    7  A    between atoms: C_14  and  C_16
REMARK    8  A    between atoms: C_21  and  O_22
REMARK    9  A    between atoms: O_22  and  C_23
REMARK   10  A    between atoms: C_23  and  C_24
REMARK                            x       y       z     vdW  Elec       q    Type
REMARK                         _______ _______ _______ _____ _____    ______ ____
ROOT
ATOM      1  C   UNL     1       0.838  -0.259  -1.262  0.00  0.00    +0.049 A 
ATOM      2  C   UNL     1       0.942  -1.533  -1.668  0.00  0.00    +0.050 A 
ATOM      3  C   UNL     1       1.661  -1.549  -2.883  0.00  0.00    +0.245 A 
ATOM      4  N   UNL     1       1.972  -0.322  -3.183  0.00  0.00    -0.135 NA
ATOM      5  N   UNL     1       1.461   0.516  -2.180  0.00  0.00    -0.277 N 
ATOM      6  H   UNL     1       1.542   1.482  -2.149  0.00  0.00    +0.189 HD
ATOM      7  O   UNL     1       1.927  -2.705  -3.548  0.00  0.00    -0.421 OA
ATOM      8  C   UNL     1       1.259  -3.811  -3.163  0.00  0.00    +0.201 C 
ATOM      9  C   UNL     1       0.549  -3.917  -2.021  0.00  0.00    +0.098 C 
ATOM     10  C   UNL     1       0.425  -2.793  -1.023  0.00  0.00    +0.105 C 
ENDROOT
BRANCH  10  11
ATOM     11  C   UNL     1       1.242  -3.109   0.204  0.00  0.00    +0.007 A 
ATOM     12  C   UNL     1       2.620  -3.158   0.123  0.00  0.00    +0.008 A 
ATOM     13  C   UNL     1       3.370  -3.448   1.247  0.00  0.00    +0.001 A 
ATOM     14  C   UNL     1       2.743  -3.690   2.456  0.00  0.00    +0.004 A 
ATOM     15  C   UNL     1       1.365  -3.643   2.542  0.00  0.00    +0.046 A 
ATOM     16  C   UNL     1       0.610  -3.346   1.416  0.00  0.00    +0.125 A 
BRANCH  16  17
ATOM     17  O   UNL     1      -0.745  -3.293   1.500  0.00  0.00    -0.487 OA
BRANCH  17  18
ATOM     18  C   UNL     1      -1.327  -3.548   2.780  0.00  0.00    +0.264 C 
BRANCH  18  19
ATOM     19  C   UNL     1      -2.827  -3.447   2.679  0.00  0.00    -0.010 A 
ATOM     20  C   UNL     1      -3.453  -2.232   2.888  0.00  0.00    +0.007 A 
ATOM     21  C   UNL     1      -4.829  -2.139   2.796  0.00  0.00    +0.000 A 
ATOM     22  C   UNL     1      -5.579  -3.260   2.494  0.00  0.00    +0.000 A 
ATOM     23  C   UNL     1      -4.953  -4.475   2.285  0.00  0.00    +0.000 A 
ATOM     24  C   UNL     1      -3.576  -4.567   2.373  0.00  0.00    +0.007 A 
ENDBRANCH  18  19
ENDBRANCH  17  18
ENDBRANCH  16  17
ENDBRANCH  10  11
BRANCH   1  26
ATOM     25  C   UNL     1       0.108   1.753  -0.009  0.00  0.00    +0.017 C 
ATOM     26  C   UNL     1       0.146   0.224  -0.013  0.00  0.00    +0.004 C 
ATOM     27  C   UNL     1       0.911  -0.270   1.217  0.00  0.00    +0.017 C 
ATOM     28  C   UNL     1      -1.283  -0.323   0.022  0.00  0.00    +0.017 C 
ENDBRANCH   1  26
BRANCH   8  29
ATOM     29  N   UNL     1       1.302  -4.904  -3.992  0.00  0.00    -0.328 N 
ATOM     30  H   UNL     1       1.802  -4.864  -4.822  0.00  0.00    +0.145 HD
ATOM     31  H   UNL     1       0.832  -5.717  -3.748  0.00  0.00    +0.145 HD
ENDBRANCH   8  29
BRANCH   9  32
ATOM     32  C   UNL     1      -0.117  -5.154  -1.743  0.00  0.00    +0.101 C 
ATOM     33  N   UNL     1      -0.645  -6.135  -1.522  0.00  0.00    -0.191 NA
ENDBRANCH   9  32
TORSDOF 7
