REMARK  Name = ZINC39947232
REMARK  10 active torsions:
REMARK  status: ('A' for Active; 'I' for Inactive)
REMARK    1  A    between atoms: C_1  and  C_2
REMARK    2  A    between atoms: C_2  and  C_3
REMARK    3  A    between atoms: C_2  and  C_4
REMARK    4  A    between atoms: C_4  and  N_5
REMARK    5  A    between atoms: N_5  and  C_6
REMARK    6  A    between atoms: C_14  and  C_16
REMARK    7  A    between atoms: C_16  and  S_17
REMARK    8  A    between atoms: S_17  and  C_18
REMARK    9  A    between atoms: C_22  and  C_27
REMARK   10  A    between atoms: N_23  and  C_24
REMARK                            x       y       z     vdW  Elec       q    Type
REMARK                         _______ _______ _______ _____ _____    ______ ____
ROOT
ATOM      1  C   UNL     1      -1.469  -2.121  -4.756  0.00  0.00    +0.237 C 
ATOM      2  N   UNL     1      -2.607  -1.190  -4.838  0.00  0.00    -0.237 N 
ATOM      3  N   UNL     1      -2.084   0.095  -4.654  0.00  0.00    -0.169 NA
ATOM      4  C   UNL     1      -0.790   0.060  -4.473  0.00  0.00    +0.147 C 
ATOM      5  N   UNL     1      -0.304  -1.252  -4.517  0.00  0.00    -0.282 N 
ATOM      6  H   UNL     1      -3.536  -1.423  -4.991  0.00  0.00    +0.171 HD
ENDROOT
BRANCH   4   7
ATOM      7  C   UNL     1       0.010   1.193  -4.262  0.00  0.00    +0.022 C 
ATOM      8  C   UNL     1      -0.419   2.511  -4.106  0.00  0.00    +0.006 A 
ATOM      9  C   UNL     1      -1.700   3.103  -4.105  0.00  0.00    +0.010 A 
ATOM     10  C   UNL     1      -1.822   4.444  -3.925  0.00  0.00    +0.001 A 
ATOM     11  C   UNL     1      -0.706   5.262  -3.738  0.00  0.00    +0.002 A 
ATOM     12  C   UNL     1       0.554   4.761  -3.728  0.00  0.00    +0.026 A 
ATOM     13  C   UNL     1       0.761   3.369  -3.909  0.00  0.00    +0.043 A 
ATOM     14  N   UNL     1       1.865   2.648  -3.939  0.00  0.00    -0.380 N 
ATOM     15  C   UNL     1       1.518   1.240  -4.152  0.00  0.00    +0.152 C 
ATOM     16  H   UNL     1       2.765   2.994  -3.832  0.00  0.00    +0.160 HD
ENDBRANCH   4   7
BRANCH   5  17
ATOM     17  C   UNL     1       1.088  -1.679  -4.357  0.00  0.00    +0.078 C 
ATOM     18  C   UNL     1       1.391  -3.172  -4.504  0.00  0.00    +0.024 C 
ATOM     19  C   UNL     1       1.434  -2.515  -3.123  0.00  0.00    +0.024 C 
ENDBRANCH   5  17
BRANCH   1  20
ATOM     20  S   UNL     1      -1.692  -3.276  -3.375  0.00  0.00    -0.109 S 
BRANCH  20  21
ATOM     21  C   UNL     1      -1.887  -2.199  -1.929  0.00  0.00    +0.168 C 
BRANCH  21  23
ATOM     22  N   UNL     1      -2.251  -2.454   0.505  0.00  0.00    -0.296 N 
ATOM     23  C   UNL     1      -2.084  -3.043  -0.696  0.00  0.00    +0.226 C 
ATOM     24  O   UNL     1      -2.092  -4.253  -0.785  0.00  0.00    -0.275 OA
BRANCH  22  25
ATOM     25  C   UNL     1      -2.442  -3.276   1.703  0.00  0.00    +0.098 C 
ATOM     26  C   UNL     1      -3.742  -4.085   1.565  0.00  0.00    +0.046 C 
ATOM     27  C   UNL     1      -3.761  -5.165   2.684  0.00  0.00    +0.168 C 
ATOM     28  S   UNL     1      -2.001  -5.710   2.657  0.00  0.00    -0.029 S 
ATOM     29  O   UNL     1      -1.529  -5.814   3.993  0.00  0.00    -0.174 OA
ATOM     30  O   UNL     1      -1.875  -6.822   1.782  0.00  0.00    -0.174 OA
ATOM     31  C   UNL     1      -1.239  -4.236   1.865  0.00  0.00    +0.188 C 
ENDBRANCH  22  25
BRANCH  22  32
ATOM     32  C   UNL     1      -2.241  -0.993   0.612  0.00  0.00    +0.111 C 
BRANCH  32  34
ATOM     33  C   UNL     1      -0.777   1.031   0.655  0.00  0.00    +0.009 C 
ATOM     34  C   UNL     1      -0.796  -0.498   0.704  0.00  0.00    +0.000 C 
ATOM     35  C   UNL     1      -0.177  -0.974   2.020  0.00  0.00    +0.009 C 
ENDBRANCH  32  34
ENDBRANCH  22  32
ENDBRANCH  21  23
ENDBRANCH  20  21
ENDBRANCH   1  20
TORSDOF 8
