REMARK  Name = ZINC36659922
REMARK  9 active torsions:
REMARK  status: ('A' for Active; 'I' for Inactive)
REMARK    1  A    between atoms: C_4  and  C_7
REMARK    2  A    between atoms: C_7  and  C_9
REMARK    3  A    between atoms: C_7  and  N_31
REMARK    4  A    between atoms: C_9  and  N_10
REMARK    5  A    between atoms: C_11  and  C_13
REMARK    6  A    between atoms: C_13  and  C_14
REMARK    7  A    between atoms: C_14  and  C_15
REMARK    8  A    between atoms: C_18  and  S_21
REMARK    9  A    between atoms: S_21  and  N_24
REMARK                            x       y       z     vdW  Elec       q    Type
REMARK                         _______ _______ _______ _____ _____    ______ ____
ROOT
ATOM      1  N   UNL     1       5.320  -1.941   1.316  0.00  0.00    -0.317 N 
ATOM      2  C   UNL     1       5.837  -2.443   2.455  0.00  0.00    +0.213 C 
ATOM      3  O   UNL     1       5.353  -2.140   3.525  0.00  0.00    -0.276 OA
ATOM      4  H   UNL     1       5.707  -2.183   0.460  0.00  0.00    +0.149 HD
ENDROOT
BRANCH   1   5
ATOM      5  C   UNL     1       4.174  -1.030   1.370  0.00  0.00    +0.093 C 
BRANCH   5   6
ATOM      6  C   UNL     1       3.870  -0.508  -0.035  0.00  0.00    -0.020 C 
BRANCH   6  10
ATOM      7  C   UNL     1       7.127   1.896  -1.399  0.00  0.00    +0.000 A 
ATOM      8  C   UNL     1       7.011   0.585  -1.822  0.00  0.00    +0.000 A 
ATOM      9  C   UNL     1       5.957  -0.193  -1.381  0.00  0.00    +0.002 A 
ATOM     10  C   UNL     1       5.019   0.340  -0.516  0.00  0.00    -0.059 A 
ATOM     11  C   UNL     1       5.136   1.651  -0.092  0.00  0.00    +0.002 A 
ATOM     12  C   UNL     1       6.189   2.429  -0.535  0.00  0.00    +0.000 A 
ENDBRANCH   6  10
BRANCH   6  13
ATOM     13  N   UNL     1       2.645   0.302  -0.003  0.00  0.00    +0.385 N 
ATOM     14  C   UNL     1       2.327   0.805  -1.363  0.00  0.00    -0.078 C 
ATOM     15  C   UNL     1       0.811   1.116  -1.282  0.00  0.00    -0.020 C 
ATOM     16  C   UNL     1       0.271  -0.028  -0.394  0.00  0.00    -0.020 C 
ATOM     17  C   UNL     1       1.492  -0.534   0.397  0.00  0.00    -0.078 C 
ATOM     18  H   UNL     1       2.754   1.073   0.638  0.00  0.00    -0.081 HD
ENDBRANCH   6  13
ENDBRANCH   5   6
ENDBRANCH   1   5
BRANCH   2  19
ATOM     19  C   UNL     1       7.016  -3.380   2.398  0.00  0.00    +0.100 C 
BRANCH  19  20
ATOM     20  C   UNL     1       7.402  -3.800   3.818  0.00  0.00    +0.044 C 
BRANCH  20  21
ATOM     21  C   UNL     1       8.581  -4.737   3.762  0.00  0.00    -0.047 A 
ATOM     22  C   UNL     1       8.376  -6.100   3.658  0.00  0.00    +0.005 A 
ATOM     23  C   UNL     1       9.457  -6.960   3.606  0.00  0.00    +0.029 A 
ATOM     24  C   UNL     1      10.743  -6.456   3.658  0.00  0.00    +0.105 A 
ATOM     25  C   UNL     1      10.948  -5.093   3.762  0.00  0.00    +0.029 A 
ATOM     26  C   UNL     1       9.867  -4.233   3.809  0.00  0.00    +0.005 A 
BRANCH  24  27
ATOM     27  S   UNL     1      12.121  -7.552   3.594  0.00  0.00    +0.061 S 
ATOM     28  O   UNL     1      13.208  -6.874   4.209  0.00  0.00    -0.153 OA
ATOM     29  O   UNL     1      11.657  -8.816   4.047  0.00  0.00    -0.153 OA
BRANCH  27  30
ATOM     30  N   UNL     1      12.523  -7.740   1.998  0.00  0.00    -0.177 NA
ATOM     31  C   UNL     1      11.896  -8.804   1.246  0.00  0.00    +0.109 C 
ATOM     32  C   UNL     1      12.742 -10.096   1.370  0.00  0.00    +0.017 C 
ATOM     33  C   UNL     1      13.994  -9.961   0.609  0.00  0.00    +0.001 C 
ATOM     34  C   UNL     1      14.918  -8.855   1.109  0.00  0.00    +0.001 C 
ATOM     35  C   UNL     1      14.509  -7.542   0.488  0.00  0.00    +0.017 C 
ATOM     36  C   UNL     1      13.502  -6.811   1.401  0.00  0.00    +0.109 C 
ENDBRANCH  27  30
ENDBRANCH  24  27
ENDBRANCH  20  21
ENDBRANCH  19  20
ENDBRANCH   2  19
TORSDOF 9
