REMARK  Name = ZINC12560001
REMARK  10 active torsions:
REMARK  status: ('A' for Active; 'I' for Inactive)
REMARK    1  A    between atoms: C_1  and  C_2
REMARK    2  A    between atoms: C_2  and  N_69
REMARK    3  A    between atoms: N_5  and  P_8
REMARK    4  A    between atoms: C_11  and  C_34
REMARK    5  A    between atoms: N_13  and  C_30
REMARK    6  A    between atoms: C_19  and  C_28
REMARK    7  A    between atoms: C_19  and  C_29
REMARK    8  A    between atoms: N_26  and  C_27
REMARK    9  A    between atoms: C_30  and  C_31
REMARK   10  A    between atoms: C_31  and  C_32
REMARK                            x       y       z     vdW  Elec       q    Type
REMARK                         _______ _______ _______ _____ _____    ______ ____
ROOT
ATOM      1  P   UNL     1      -5.591   4.668   0.583  0.00  0.00    +0.061 P 
ATOM      2  S   UNL     1      -4.915   5.626   2.031  0.00  0.00    -0.040 S 
ATOM      3  C   UNL     1      -7.406   4.509   0.763  0.00  0.00    +0.067 A 
ATOM      4  C   UNL     1      -8.475   5.362   0.857  0.00  0.00    +0.072 A 
ATOM      5  N   UNL     1      -9.565   4.638   0.973  0.00  0.00    -0.174 NA
ATOM      6  N   UNL     1      -9.214   3.282   0.956  0.00  0.00    -0.245 N 
ATOM      7  C   UNL     1      -7.854   3.189   0.823  0.00  0.00    +0.161 A 
ATOM      8  N   UNL     1      -7.013   2.147   0.754  0.00  0.00    -0.235 NA
ATOM      9  C   UNL     1      -5.751   1.956   0.627  0.00  0.00    +0.125 C 
ATOM     10  C   UNL     1      -4.787   3.007   0.524  0.00  0.00    +0.036 C 
ATOM     11  C   UNL     1      -3.456   2.810   0.396  0.00  0.00    +0.032 C 
ATOM     12  C   UNL     1      -2.719   1.497   0.556  0.00  0.00    +0.031 C 
ATOM     13  C   UNL     1      -1.271   1.853   0.307  0.00  0.00    -0.015 A 
ATOM     14  C   UNL     1      -0.115   1.104   0.307  0.00  0.00    +0.006 A 
ATOM     15  C   UNL     1       1.100   1.707   0.034  0.00  0.00    +0.000 A 
ATOM     16  C   UNL     1       1.150   3.064  -0.233  0.00  0.00    +0.002 A 
ATOM     17  C   UNL     1      -0.005   3.818  -0.229  0.00  0.00    +0.024 A 
ATOM     18  C   UNL     1      -1.233   3.216   0.046  0.00  0.00    +0.038 A 
ATOM     19  N   UNL     1      -2.515   3.760   0.107  0.00  0.00    -0.305 N 
ATOM     20  C   UNL     1      -2.820   5.173  -0.126  0.00  0.00    +0.135 C 
ATOM     21  C   UNL     1      -3.206   0.480  -0.477  0.00  0.00    +0.022 C 
ATOM     22  C   UNL     1      -2.900   0.951   1.974  0.00  0.00    +0.022 C 
ATOM     23  C   UNL     1      -8.411   6.867   0.831  0.00  0.00    +0.068 C 
ENDROOT
BRANCH   1  26
ATOM     24  C   UNL     1      -5.525   5.616  -3.269  0.00  0.00    -0.063 C 
ATOM     25  C   UNL     1      -5.925   4.881  -1.988  0.00  0.00    +0.071 C 
ATOM     26  N   UNL     1      -5.247   5.499  -0.840  0.00  0.00    -0.273 NA
ATOM     27  C   UNL     1      -5.608   6.919  -0.720  0.00  0.00    +0.071 C 
ATOM     28  C   UNL     1      -5.208   7.654  -2.002  0.00  0.00    -0.063 C 
ATOM     29  N   UNL     1      -5.913   7.037  -3.145  0.00  0.00    +0.381 N 
ATOM     30  H   UNL     1      -6.925   7.094  -2.982  0.00  0.00    -0.082 HD
BRANCH  29  32
ATOM     31  C   UNL     1      -6.196   9.163  -4.324  0.00  0.00    -0.017 C 
ATOM     32  C   UNL     1      -5.585   7.762  -4.391  0.00  0.00    -0.082 C 
ENDBRANCH  29  32
ENDBRANCH   1  26
BRANCH   6  33
ATOM     33  C   UNL     1     -10.144   2.155   1.062  0.00  0.00    +0.160 C 
BRANCH  33  34
ATOM     34  C   UNL     1     -10.609   1.744  -0.337  0.00  0.00    +0.142 C 
BRANCH  34  35
ATOM     35  C   UNL     1     -11.543   0.611  -0.230  0.00  0.00    +0.064 C 
ATOM     36  N   UNL     1     -12.264  -0.263  -0.148  0.00  0.00    -0.197 NA
ENDBRANCH  34  35
ENDBRANCH  33  34
ENDBRANCH   6  33
TORSDOF 5
