REMARK  Name = ZINC13506847
REMARK  10 active torsions:
REMARK  status: ('A' for Active; 'I' for Inactive)
REMARK    1  A    between atoms: C_1  and  C_2
REMARK    2  A    between atoms: C_2  and  C_4
REMARK    3  A    between atoms: C_8  and  N_10
REMARK    4  A    between atoms: N_10  and  C_11
REMARK    5  A    between atoms: C_11  and  C_13
REMARK    6  A    between atoms: C_11  and  C_19
REMARK    7  A    between atoms: N_21  and  C_22
REMARK    8  A    between atoms: C_27  and  C_29
REMARK    9  A    between atoms: C_29  and  N_30
REMARK   10  A    between atoms: C_31  and  C_33
REMARK                            x       y       z     vdW  Elec       q    Type
REMARK                         _______ _______ _______ _____ _____    ______ ____
ROOT
ATOM      1  N   UNL     1       2.185   3.986   0.957  0.00  0.00    -0.254 N 
ATOM      2  C   UNL     1       1.918   4.559   2.148  0.00  0.00    +0.238 C 
ATOM      3  O   UNL     1       0.770   4.767   2.477  0.00  0.00    -0.274 OA
ENDROOT
BRANCH   1   8
ATOM      4  C   UNL     1       5.194   1.988   0.211  0.00  0.00    +0.019 A 
ATOM      5  C   UNL     1       6.120   3.004  -0.046  0.00  0.00    +0.011 A 
ATOM      6  C   UNL     1       5.733   4.325   0.033  0.00  0.00    +0.002 A 
ATOM      7  C   UNL     1       4.429   4.651   0.359  0.00  0.00    +0.023 A 
ATOM      8  C   UNL     1       3.502   3.650   0.622  0.00  0.00    +0.038 A 
ATOM      9  C   UNL     1       3.878   2.318   0.546  0.00  0.00    +0.035 A 
BRANCH   4  11
ATOM     10  C   UNL     1       7.023   0.224  -0.234  0.00  0.00    +0.091 C 
ATOM     11  C   UNL     1       5.603   0.577   0.128  0.00  0.00    +0.160 C 
ATOM     12  O   UNL     1       4.798  -0.302   0.351  0.00  0.00    -0.292 OA
ENDBRANCH   4  11
ENDBRANCH   1   8
BRANCH   1  13
ATOM     13  C   UNL     1       1.097   3.717   0.014  0.00  0.00    +0.197 C 
BRANCH  13  14
ATOM     14  C   UNL     1       1.637   2.960  -1.173  0.00  0.00    -0.018 A 
ATOM     15  C   UNL     1       1.111   1.725  -1.502  0.00  0.00    +0.006 A 
ATOM     16  C   UNL     1       1.606   1.031  -2.590  0.00  0.00    +0.000 A 
ATOM     17  C   UNL     1       2.626   1.573  -3.350  0.00  0.00    +0.000 A 
ATOM     18  C   UNL     1       3.152   2.808  -3.021  0.00  0.00    +0.000 A 
ATOM     19  C   UNL     1       2.657   3.502  -1.932  0.00  0.00    +0.006 A 
ENDBRANCH  13  14
BRANCH  13  20
ATOM     20  C   UNL     1       0.501   5.020  -0.451  0.00  0.00    +0.239 C 
ATOM     21  O   UNL     1       0.941   6.071  -0.035  0.00  0.00    -0.273 OA
ATOM     22  N   UNL     1      -0.522   5.018  -1.329  0.00  0.00    -0.311 N 
ATOM     23  H   UNL     1      -0.874   4.178  -1.661  0.00  0.00    +0.149 HD
BRANCH  22  24
ATOM     24  C   UNL     1      -1.102   6.285  -1.780  0.00  0.00    +0.073 C 
ATOM     25  C   UNL     1      -2.219   6.730  -0.813  0.00  0.00    +0.022 C 
ATOM     26  C   UNL     1      -3.291   7.362  -1.735  0.00  0.00    +0.002 C 
ATOM     27  C   UNL     1      -3.256   6.441  -2.980  0.00  0.00    +0.002 C 
ATOM     28  C   UNL     1      -1.762   6.102  -3.158  0.00  0.00    +0.022 C 
ENDBRANCH  22  24
ENDBRANCH  13  20
ENDBRANCH   1  13
BRANCH   2  29
ATOM     29  C   UNL     1       3.047   4.939   3.071  0.00  0.00    +0.201 C 
BRANCH  29  30
ATOM     30  N   UNL     1       2.498   5.420   4.341  0.00  0.00    -0.300 N 
ATOM     31  C   UNL     1       3.328   5.819   5.326  0.00  0.00    +0.280 C 
ATOM     32  O   UNL     1       4.533   5.779   5.160  0.00  0.00    -0.267 OA
ATOM     33  H   UNL     1       1.538   5.452   4.473  0.00  0.00    +0.150 HD
BRANCH  31  34
ATOM     34  C   UNL     1       2.778   6.301   6.597  0.00  0.00    +0.189 A 
ATOM     35  C   UNL     1       3.502   6.732   7.672  0.00  0.00    +0.054 A 
ATOM     36  C   UNL     1       2.576   7.097   8.662  0.00  0.00    +0.042 A 
ATOM     37  C   UNL     1       1.343   6.876   8.154  0.00  0.00    +0.196 A 
ATOM     38  O   UNL     1       1.469   6.401   6.908  0.00  0.00    -0.458 OA
ENDBRANCH  31  34
ENDBRANCH  29  30
ENDBRANCH   2  29
TORSDOF 9
