REMARK  Name = ZINC54761129
REMARK  12 active torsions:
REMARK  status: ('A' for Active; 'I' for Inactive)
REMARK    1  A    between atoms: C_1  and  C_2
REMARK    2  A    between atoms: C_2  and  C_3
REMARK    3  A    between atoms: C_2  and  C_4
REMARK    4  A    between atoms: C_2  and  O_5
REMARK    5  A    between atoms: O_5  and  C_6
REMARK    6  A    between atoms: N_8  and  C_9
REMARK    7  A    between atoms: N_17  and  C_18
REMARK    8  A    between atoms: C_18  and  C_19
REMARK    9  A    between atoms: C_19  and  N_20
REMARK   10  A    between atoms: N_20  and  C_21
REMARK   11  A    between atoms: N_20  and  C_22
REMARK   12  A    between atoms: C_22  and  C_23
REMARK                            x       y       z     vdW  Elec       q    Type
REMARK                         _______ _______ _______ _____ _____    ______ ____
ROOT
ATOM      1  C   UNL     1       4.036  -0.072  -2.598  0.00  0.00    +0.094 C 
ATOM      2  C   UNL     1       4.760  -1.084  -3.489  0.00  0.00    +0.025 C 
ATOM      3  C   UNL     1       6.224  -0.670  -3.648  0.00  0.00    +0.021 C 
ATOM      4  C   UNL     1       6.292   0.703  -4.324  0.00  0.00    +0.109 C 
ATOM      5  N   UNL     1       5.478   1.651  -3.551  0.00  0.00    -0.284 N 
ATOM      6  C   UNL     1       4.079   1.308  -3.262  0.00  0.00    +0.131 C 
ATOM      7  C   UNL     1       6.005   2.812  -3.115  0.00  0.00    +0.302 C 
ATOM      8  O   UNL     1       5.298   3.629  -2.556  0.00  0.00    -0.253 OA
ATOM      9  N   UNL     1       7.315   3.069  -3.299  0.00  0.00    -0.301 N 
ATOM     10  H   UNL     1       7.864   2.452  -3.808  0.00  0.00    +0.150 HD
ENDROOT
BRANCH   1  13
ATOM     11  C   UNL     1       1.954  -0.085  -1.333  0.00  0.00    +0.401 C 
ATOM     12  O   UNL     1       2.490   0.620  -0.500  0.00  0.00    -0.226 OA
ATOM     13  N   UNL     1       2.642  -0.485  -2.420  0.00  0.00    -0.277 N 
ATOM     14  H   UNL     1       2.215  -1.048  -3.084  0.00  0.00    +0.152 HD
BRANCH  11  15
ATOM     15  O   UNL     1       0.673  -0.465  -1.169  0.00  0.00    -0.445 OA
BRANCH  15  17
ATOM     16  C   UNL     1      -0.017   1.527   0.013  0.00  0.00    +0.055 C 
ATOM     17  C   UNL     1       0.004  -0.003   0.007  0.00  0.00    +0.107 C 
ATOM     18  C   UNL     1       0.745  -0.508   1.246  0.00  0.00    +0.055 C 
ATOM     19  C   UNL     1      -1.431  -0.533   0.018  0.00  0.00    +0.055 C 
ENDBRANCH  15  17
ENDBRANCH  11  15
ENDBRANCH   1  13
BRANCH   9  20
ATOM     20  C   UNL     1       7.912   4.279  -2.728  0.00  0.00    +0.087 C 
BRANCH  20  21
ATOM     21  C   UNL     1       9.400   4.329  -3.081  0.00  0.00    -0.060 C 
BRANCH  21  22
ATOM     22  N   UNL     1       9.998   5.543  -2.509  0.00  0.00    +0.382 N 
ATOM     23  C   UNL     1       9.948   5.469  -1.042  0.00  0.00    -0.096 C 
ATOM     24  H   UNL     1       9.483   6.352  -2.822  0.00  0.00    -0.082 HD
BRANCH  22  25
ATOM     25  C   UNL     1      11.396   5.653  -2.946  0.00  0.00    -0.043 C 
BRANCH  25  26
ATOM     26  C   UNL     1      11.973   6.958  -2.462  0.00  0.00    -0.064 A 
ATOM     27  C   UNL     1      11.874   8.091  -3.247  0.00  0.00    +0.002 A 
ATOM     28  C   UNL     1      12.404   9.288  -2.803  0.00  0.00    +0.000 A 
ATOM     29  C   UNL     1      13.031   9.352  -1.572  0.00  0.00    +0.000 A 
ATOM     30  C   UNL     1      13.129   8.219  -0.787  0.00  0.00    +0.000 A 
ATOM     31  C   UNL     1      12.596   7.023  -1.229  0.00  0.00    +0.002 A 
ENDBRANCH  25  26
ENDBRANCH  22  25
ENDBRANCH  21  22
ENDBRANCH  20  21
ENDBRANCH   9  20
TORSDOF 8
