REMARK  Name = ZINC00042634
REMARK  5 active torsions:
REMARK  status: ('A' for Active; 'I' for Inactive)
REMARK    1  A    between atoms: C_3  and  O_23
REMARK    2  A    between atoms: C_4  and  O_22
REMARK    3  A    between atoms: C_6  and  C_7
REMARK    4  A    between atoms: C_9  and  C_20
REMARK    5  A    between atoms: C_10  and  N_19
REMARK                            x       y       z     vdW  Elec       q    Type
REMARK                         _______ _______ _______ _____ _____    ______ ____
ROOT
ATOM      1  C   UNL     1       1.149   3.595   0.010  0.00  0.00    +0.101 C 
ATOM      2  C   UNL     1       1.848   4.098   1.242  0.00  0.00    +0.098 C 
ATOM      3  C   UNL     1       3.116   4.571   1.166  0.00  0.00    +0.198 C 
ATOM      4  O   UNL     1       3.781   4.603   0.001  0.00  0.00    -0.445 OA
ATOM      5  C   UNL     1       3.099   4.588  -1.160  0.00  0.00    +0.115 C 
ATOM      6  C   UNL     1       1.842   4.113  -1.227  0.00  0.00    +0.046 C 
ATOM      7  C   UNL     1       1.136   4.081  -2.446  0.00  0.00    +0.163 C 
ATOM      8  O   UNL     1      -0.003   3.659  -2.464  0.00  0.00    -0.292 OA
ATOM      9  C   UNL     1       1.767   4.559  -3.725  0.00  0.00    +0.080 C 
ATOM     10  C   UNL     1       3.285   4.370  -3.629  0.00  0.00    +0.016 C 
ATOM     11  C   UNL     1       3.790   5.119  -2.394  0.00  0.00    +0.075 C 
ENDROOT
BRANCH   1  17
ATOM     12  C   UNL     1       2.379   1.417  -0.013  0.00  0.00    +0.008 A 
ATOM     13  C   UNL     1       2.405   0.035  -0.021  0.00  0.00    +0.049 A 
ATOM     14  C   UNL     1       1.218  -0.680  -0.013  0.00  0.00    +0.158 A 
ATOM     15  C   UNL     1       0.002  -0.004   0.002  0.00  0.00    +0.159 A 
ATOM     16  C   UNL     1      -0.017   1.381   0.010  0.00  0.00    +0.053 A 
ATOM     17  C   UNL     1       1.171   2.089   0.002  0.00  0.00    -0.031 A 
BRANCH  15  18
ATOM     18  O   UNL     1      -1.165  -0.702   0.010  0.00  0.00    -0.503 OA
ATOM     19  H   UNL     1      -1.512  -0.898  -0.871  0.00  0.00    +0.292 HD
ENDBRANCH  15  18
BRANCH  14  20
ATOM     20  O   UNL     1       1.242  -2.040  -0.021  0.00  0.00    -0.503 OA
ATOM     21  H   UNL     1       1.241  -2.428  -0.907  0.00  0.00    +0.292 HD
ENDBRANCH  14  20
ENDBRANCH   1  17
BRANCH   3  22
ATOM     22  N   UNL     1       3.732   5.028   2.304  0.00  0.00    -0.328 N 
ATOM     23  H   UNL     1       4.640   5.369   2.261  0.00  0.00    +0.145 HD
ATOM     24  H   UNL     1       3.261   5.010   3.152  0.00  0.00    +0.145 HD
ENDBRANCH   3  22
BRANCH   2  25
ATOM     25  C   UNL     1       1.171   4.076   2.503  0.00  0.00    +0.101 C 
ATOM     26  N   UNL     1       0.634   4.059   3.504  0.00  0.00    -0.191 NA
ENDBRANCH   2  25
TORSDOF 5
