REMARK  Name = ZINC39021738
REMARK  9 active torsions:
REMARK  status: ('A' for Active; 'I' for Inactive)
REMARK    1  A    between atoms: C_1  and  C_2
REMARK    2  A    between atoms: C_2  and  C_3
REMARK    3  A    between atoms: C_3  and  C_5
REMARK    4  A    between atoms: C_3  and  N_6
REMARK    5  A    between atoms: C_7  and  O_32
REMARK    6  A    between atoms: C_9  and  C_15
REMARK    7  A    between atoms: C_10  and  O_14
REMARK    8  A    between atoms: N_29  and  C_30
REMARK    9  A    between atoms: C_30  and  C_31
REMARK                            x       y       z     vdW  Elec       q    Type
REMARK                         _______ _______ _______ _____ _____    ______ ____
ROOT
ATOM      1  N   UNL     1      -0.008  -0.140   2.444  0.00  0.00    -0.253 N 
ATOM      2  C   UNL     1       0.597   0.720   3.474  0.00  0.00    +0.240 C 
ATOM      3  C   UNL     1      -0.252   1.053   4.683  0.00  0.00    +0.057 C 
ATOM      4  C   UNL     1      -1.482   0.551   4.739  0.00  0.00    +0.190 C 
ATOM      5  N   UNL     1      -1.976  -0.252   3.724  0.00  0.00    -0.240 N 
ATOM      6  C   UNL     1      -1.271  -0.574   2.630  0.00  0.00    +0.311 C 
ATOM      7  O   UNL     1      -1.783  -1.281   1.784  0.00  0.00    -0.252 OA
ATOM      8  H   UNL     1      -2.879  -0.596   3.807  0.00  0.00    +0.159 HD
ENDROOT
BRANCH   3   9
ATOM      9  C   UNL     1       0.281   1.925   5.790  0.00  0.00    +0.139 C 
ATOM     10  C   UNL     1       0.538   3.316   5.260  0.00  0.00    +0.042 A 
ATOM     11  H   UNL     1      -1.128   3.758   4.090  0.00  0.00    +0.166 HD
ATOM     12  C   UNL     1       1.653   4.023   5.556  0.00  0.00    -0.016 A 
ATOM     13  C   UNL     1       1.547   5.293   4.874  0.00  0.00    +0.003 A 
ATOM     14  C   UNL     1       2.385   6.410   4.809  0.00  0.00    +0.010 A 
ATOM     15  C   UNL     1       1.954   7.467   4.045  0.00  0.00    +0.001 A 
ATOM     16  C   UNL     1       0.748   7.441   3.366  0.00  0.00    +0.002 A 
ATOM     17  C   UNL     1      -0.102   6.349   3.412  0.00  0.00    +0.026 A 
ATOM     18  C   UNL     1       0.309   5.261   4.179  0.00  0.00    +0.047 A 
ATOM     19  N   UNL     1      -0.271   4.052   4.437  0.00  0.00    -0.356 N 
ATOM     20  C   UNL     1       2.755   3.505   6.445  0.00  0.00    +0.053 C 
ATOM     21  C   UNL     1       2.210   2.298   7.221  0.00  0.00    +0.090 C 
ATOM     22  N   UNL     1       1.549   1.370   6.290  0.00  0.00    -0.290 NA
BRANCH  22  23
ATOM     23  C   UNL     1       1.340   0.055   6.910  0.00  0.00    +0.082 C 
ATOM     24  C   UNL     1       2.695  -0.598   7.191  0.00  0.00    +0.020 C 
ENDBRANCH  22  23
ENDBRANCH   3   9
BRANCH   1  25
ATOM     25  C   UNL     1       0.742  -0.511   1.242  0.00  0.00    +0.077 C 
ATOM     26  C   UNL     1       0.872  -2.034   1.171  0.00  0.00    +0.028 C 
BRANCH  25  28
ATOM     27  C   UNL     1      -0.019   1.526   0.010  0.00  0.00    +0.006 C 
ATOM     28  C   UNL     1       0.002  -0.004   0.002  0.00  0.00    +0.019 C 
ENDBRANCH  25  28
ENDBRANCH   1  25
BRANCH   4  29
ATOM     29  O   UNL     1      -2.267   0.830   5.810  0.00  0.00    -0.495 OA
ATOM     30  H   UNL     1      -3.145   0.426   5.770  0.00  0.00    +0.293 HD
ENDBRANCH   4  29
BRANCH   2  31
ATOM     31  O   UNL     1       1.788   0.080   3.937  0.00  0.00    -0.370 OA
ATOM     32  H   UNL     1       2.448  -0.069   3.246  0.00  0.00    +0.212 HD
ENDBRANCH   2  31
TORSDOF 6
