REMARK  Name = ZINC23139218
REMARK  6 active torsions:
REMARK  status: ('A' for Active; 'I' for Inactive)
REMARK    1  A    between atoms: C_5  and  C_7
REMARK    2  A    between atoms: N_9  and  C_10
REMARK    3  A    between atoms: N_14  and  C_15
REMARK    4  A    between atoms: C_15  and  C_16
REMARK    5  A    between atoms: N_18  and  C_19
REMARK    6  A    between atoms: C_19  and  C_20
REMARK                            x       y       z     vdW  Elec       q    Type
REMARK                         _______ _______ _______ _____ _____    ______ ____
ROOT
ATOM      1  C   UNL     1       5.130   7.597   1.737  0.00  0.00    +0.128 A 
ATOM      2  C   UNL     1       5.434   8.397   2.815  0.00  0.00    +0.026 A 
ATOM      3  C   UNL     1       5.628   7.575   3.911  0.00  0.00    +0.079 A 
ATOM      4  N   UNL     1       5.447   6.320   3.526  0.00  0.00    -0.173 NA
ATOM      5  N   UNL     1       5.130   6.314   2.167  0.00  0.00    -0.241 N 
ATOM      6  C   UNL     1       5.986   8.260   5.229  0.00  0.00    +0.127 C 
ATOM      7  S   UNL     1       5.536  10.009   4.879  0.00  0.00    -0.150 S 
ATOM      8  C   UNL     1       5.597   9.899   3.043  0.00  0.00    +0.110 C 
ENDROOT
BRANCH   1  11
ATOM      9  C   UNL     1       5.402   9.183  -0.009  0.00  0.00    +0.251 C 
ATOM     10  O   UNL     1       6.193   9.795   0.683  0.00  0.00    -0.270 OA
ATOM     11  N   UNL     1       4.867   8.030   0.438  0.00  0.00    -0.266 N 
ATOM     12  H   UNL     1       4.224   7.429  -0.222  0.00  0.00    +0.157 HD
BRANCH   9  17
ATOM     13  C   UNL     1       3.770   9.498  -3.376  0.00  0.00    +0.001 A 
ATOM     14  C   UNL     1       4.320  10.684  -3.832  0.00  0.00    +0.001 A 
ATOM     15  C   UNL     1       5.221  11.383  -3.050  0.00  0.00    +0.021 A 
ATOM     16  C   UNL     1       5.573  10.904  -1.802  0.00  0.00    +0.053 A 
ATOM     17  C   UNL     1       5.026   9.705  -1.339  0.00  0.00    +0.055 A 
ATOM     18  C   UNL     1       4.117   9.006  -2.135  0.00  0.00    +0.014 A 
ATOM     19 CL   UNL     1       6.698  11.786  -0.818  0.00  0.00    -0.083 Cl
ENDBRANCH   9  17
ENDBRANCH   1  11
BRANCH   5  20
ATOM     20  C   UNL     1       4.853   5.129   1.350  0.00  0.00    +0.241 C 
BRANCH  20  21
ATOM     21  C   UNL     1       3.401   4.752   1.489  0.00  0.00    +0.235 C 
ATOM     22  O   UNL     1       2.669   5.407   2.200  0.00  0.00    -0.274 OA
ATOM     23  N   UNL     1       2.916   3.685   0.823  0.00  0.00    -0.311 N 
ATOM     24  H   UNL     1       3.579   3.091   0.178  0.00  0.00    +0.149 HD
BRANCH  23  25
ATOM     25  C   UNL     1       1.504   3.318   0.957  0.00  0.00    +0.135 C 
BRANCH  25  26
ATOM     26  C   UNL     1       1.215   2.082   0.104  0.00  0.00    +0.135 C 
ATOM     27  C   UNL     1      -0.294   1.750   0.132  0.00  0.00    +0.035 C 
ATOM     28  C   UNL     1      -0.339   0.206   0.144  0.00  0.00    +0.031 C 
ATOM     29  C   UNL     1       1.148  -0.213   0.123  0.00  0.00    +0.160 C 
ATOM     30  O   UNL     1       1.858   0.919   0.670  0.00  0.00    -0.375 OA
ENDBRANCH  25  26
ENDBRANCH  23  25
ENDBRANCH  20  21
ENDBRANCH   5  20
TORSDOF 6
