REMARK  Name = ZINC20784646
REMARK  9 active torsions:
REMARK  status: ('A' for Active; 'I' for Inactive)
REMARK    1  A    between atoms: C_1  and  C_2
REMARK    2  A    between atoms: C_2  and  C_19
REMARK    3  A    between atoms: N_5  and  C_9
REMARK    4  A    between atoms: C_9  and  C_10
REMARK    5  A    between atoms: C_10  and  C_11
REMARK    6  A    between atoms: C_14  and  O_17
REMARK    7  A    between atoms: O_17  and  C_18
REMARK    8  A    between atoms: C_25  and  C_27
REMARK    9  A    between atoms: C_28  and  C_29
REMARK                            x       y       z     vdW  Elec       q    Type
REMARK                         _______ _______ _______ _____ _____    ______ ____
ROOT
ATOM      1  C   UNL     1       8.142   3.117  -1.852  0.00  0.00    +0.042 C 
ATOM      2  C   UNL     1       6.762   3.777  -1.876  0.00  0.00    +0.113 C 
ATOM      3  C   UNL     1       6.883   5.276  -1.679  0.00  0.00    +0.247 C 
ATOM      4  O   UNL     1       7.338   5.853  -0.714  0.00  0.00    -0.273 OA
ATOM      5  N   UNL     1       6.381   5.832  -2.798  0.00  0.00    -0.224 N 
ATOM      6  C   UNL     1       5.963   4.904  -3.666  0.00  0.00    +0.309 C 
ATOM      7  O   UNL     1       5.472   5.163  -4.747  0.00  0.00    -0.252 OA
ATOM      8  N   UNL     1       6.147   3.653  -3.209  0.00  0.00    -0.285 N 
ATOM      9  H   UNL     1       5.935   2.657  -3.625  0.00  0.00    +0.151 HD
ENDROOT
BRANCH   2  10
ATOM     10  C   UNL     1       5.855   3.166  -0.805  0.00  0.00    +0.024 C 
ATOM     11  C   UNL     1       5.750   1.655  -1.029  0.00  0.00    +0.025 C 
ATOM     12  C   UNL     1       4.870   1.042   0.065  0.00  0.00    +0.108 C 
ATOM     13  N   UNL     1       3.578   1.740   0.079  0.00  0.00    -0.298 N 
ATOM     14  C   UNL     1       3.568   3.205   0.192  0.00  0.00    +0.108 C 
ATOM     15  C   UNL     1       4.463   3.794  -0.897  0.00  0.00    +0.025 C 
ATOM     16  C   UNL     1       2.424   1.051  -0.015  0.00  0.00    +0.239 C 
ATOM     17  O   UNL     1       1.365   1.646  -0.098  0.00  0.00    -0.271 OA
BRANCH  16  18
ATOM     18  C   UNL     1       2.443  -0.412  -0.018  0.00  0.00    +0.068 C 
ATOM     19  C   UNL     1       1.284  -1.102  -0.011  0.00  0.00    +0.014 C 
BRANCH  19  20
ATOM     20  C   UNL     1       1.304  -2.573  -0.008  0.00  0.00    -0.007 A 
ATOM     21  C   UNL     1       2.522  -3.260  -0.024  0.00  0.00    +0.009 A 
ATOM     22  C   UNL     1       2.532  -4.639  -0.016  0.00  0.00    +0.001 A 
ATOM     23  C   UNL     1       1.341  -5.344  -0.003  0.00  0.00    +0.001 A 
ATOM     24  C   UNL     1       0.131  -4.673   0.008  0.00  0.00    +0.020 A 
ATOM     25  C   UNL     1       0.103  -3.293   0.005  0.00  0.00    +0.048 A 
ATOM     26 CL   UNL     1      -1.416  -2.453   0.017  0.00  0.00    -0.083 Cl
ENDBRANCH  19  20
ENDBRANCH  16  18
ENDBRANCH   2  10
BRANCH   5  27
ATOM     27  C   UNL     1       6.303   7.276  -3.036  0.00  0.00    +0.122 C 
BRANCH  27  28
ATOM     28  C   UNL     1       7.587   7.750  -3.721  0.00  0.00    +0.054 C 
BRANCH  28  29
ATOM     29  C   UNL     1       7.506   9.235  -3.965  0.00  0.00    -0.046 A 
ATOM     30  C   UNL     1       6.978   9.712  -5.151  0.00  0.00    +0.007 A 
ATOM     31  C   UNL     1       6.898  11.072  -5.375  0.00  0.00    +0.046 A 
ATOM     32  C   UNL     1       7.359  11.961  -4.414  0.00  0.00    +0.120 A 
ATOM     33  C   UNL     1       7.894  11.480  -3.228  0.00  0.00    +0.046 A 
ATOM     34  C   UNL     1       7.966  10.118  -3.006  0.00  0.00    +0.007 A 
BRANCH  32  35
ATOM     35  O   UNL     1       7.286  13.300  -4.634  0.00  0.00    -0.495 OA
ATOM     36  C   UNL     1       6.724  13.723  -5.878  0.00  0.00    +0.277 C 
ENDBRANCH  32  35
ENDBRANCH  28  29
ENDBRANCH  27  28
ENDBRANCH   5  27
TORSDOF 7
