REMARK  Name = ZINC19798209
REMARK  5 active torsions:
REMARK  status: ('A' for Active; 'I' for Inactive)
REMARK    1  A    between atoms: C_1  and  C_2
REMARK    2  A    between atoms: C_2  and  C_28
REMARK    3  A    between atoms: C_7  and  C_10
REMARK    4  A    between atoms: C_15  and  O_16
REMARK    5  A    between atoms: N_19  and  C_22
REMARK                            x       y       z     vdW  Elec       q    Type
REMARK                         _______ _______ _______ _____ _____    ______ ____
ROOT
ATOM      1  C   UNL     1      -6.111   4.021  -1.567  0.00  0.00    +0.002 C 
ATOM      2  C   UNL     1      -6.043   4.438  -0.096  0.00  0.00    +0.045 C 
ATOM      3  C   UNL     1      -4.648   4.249   0.450  0.00  0.00    +0.086 C 
ATOM      4  C   UNL     1      -3.958   5.463  -0.290  0.00  0.00    +0.077 C 
ATOM      5  C   UNL     1      -4.898   6.566   0.036  0.00  0.00    -0.023 C 
ATOM      6  N   UNL     1      -6.250   5.918   0.053  0.00  0.00    +0.395 N 
ATOM      7  C   UNL     1      -2.564   5.192   0.057  0.00  0.00    +0.229 C 
ATOM      8  O   UNL     1      -1.692   5.998   0.300  0.00  0.00    -0.275 OA
ATOM      9  N   UNL     1      -2.459   3.824   0.043  0.00  0.00    -0.210 N 
ATOM     10  C   UNL     1      -3.680   3.203   0.051  0.00  0.00    +0.229 C 
ATOM     11  O   UNL     1      -3.917   2.044  -0.213  0.00  0.00    -0.275 OA
ATOM     12  H   UNL     1      -6.864   6.288  -0.781  0.00  0.00    -0.083 HD
ATOM     13  H   UNL     1      -6.762   6.122   1.005  0.00  0.00    -0.083 HD
ENDROOT
BRANCH   5  14
ATOM     14  C   UNL     1      -4.577   7.150   1.388  0.00  0.00    -0.019 A 
ATOM     15  C   UNL     1      -5.199   6.657   2.519  0.00  0.00    +0.005 A 
ATOM     16  C   UNL     1      -4.905   7.191   3.760  0.00  0.00    +0.000 A 
ATOM     17  C   UNL     1      -3.989   8.221   3.872  0.00  0.00    +0.004 A 
ATOM     18  C   UNL     1      -3.365   8.718   2.744  0.00  0.00    +0.045 A 
ATOM     19  C   UNL     1      -3.654   8.179   1.499  0.00  0.00    +0.118 A 
BRANCH  19  20
ATOM     20  O   UNL     1      -3.037   8.662   0.389  0.00  0.00    -0.507 OA
ATOM     21  H   UNL     1      -2.305   9.479   0.477  0.00  0.00    +0.292 HD
ENDBRANCH  19  20
ENDBRANCH   5  14
BRANCH   9  22
ATOM     22  C   UNL     1      -1.236   3.138   0.029  0.00  0.00    +0.044 A 
ATOM     23  C   UNL     1      -1.218   1.749   0.017  0.00  0.00    +0.024 A 
ATOM     24  C   UNL     1      -0.013   1.076   0.008  0.00  0.00    +0.002 A 
ATOM     25  C   UNL     1       1.176   1.783   0.000  0.00  0.00    +0.000 A 
ATOM     26  C   UNL     1       1.161   3.165   0.008  0.00  0.00    +0.002 A 
ATOM     27  C   UNL     1      -0.042   3.845   0.022  0.00  0.00    +0.024 A 
ENDBRANCH   9  22
BRANCH   2  28
ATOM     28  C   UNL     1      -7.048   3.671   0.723  0.00  0.00    +0.346 C 
ATOM     29  O   UNL     1      -6.699   2.700   1.353  0.00  0.00    -0.248 OA
ATOM     30  O   UNL     1      -8.330   4.065   0.753  0.00  0.00    -0.248 OA
ENDBRANCH   2  28
TORSDOF 4
