REMARK  Name = ZINC12915861
REMARK  7 active torsions:
REMARK  status: ('A' for Active; 'I' for Inactive)
REMARK    1  A    between atoms: C_1  and  C_2
REMARK    2  A    between atoms: C_4  and  N_20
REMARK    3  A    between atoms: C_6  and  C_7
REMARK    4  A    between atoms: N_9  and  C_10
REMARK    5  A    between atoms: C_10  and  C_12
REMARK    6  A    between atoms: C_10  and  C_13
REMARK    7  A    between atoms: C_21  and  C_23
REMARK                            x       y       z     vdW  Elec       q    Type
REMARK                         _______ _______ _______ _____ _____    ______ ____
ROOT
ATOM      1  C   UNL     1      -6.874  -0.409  -2.846  0.00  0.00    +0.045 C 
ATOM      2  C   UNL     1      -6.532   1.054  -2.964  0.00  0.00    -0.029 A 
ATOM      3  C   UNL     1      -7.284   1.901  -3.732  0.00  0.00    +0.035 A 
ATOM      4  C   UNL     1      -6.922   3.230  -3.802  0.00  0.00    +0.073 A 
ATOM      5  S   UNL     1      -5.524   3.312  -2.781  0.00  0.00    -0.069 S 
ATOM      6  C   UNL     1      -5.442   1.596  -2.297  0.00  0.00    +0.078 A 
ENDROOT
BRANCH   6   7
ATOM      7  C   UNL     1      -4.480   0.934  -1.420  0.00  0.00    +0.251 C 
ATOM      8  O   UNL     1      -4.581  -0.258  -1.194  0.00  0.00    -0.270 OA
ATOM      9  N   UNL     1      -3.479   1.643  -0.861  0.00  0.00    -0.304 N 
ATOM     10  H   UNL     1      -3.398   2.593  -1.041  0.00  0.00    +0.150 HD
BRANCH   9  11
ATOM     11  C   UNL     1      -2.514   0.979   0.019  0.00  0.00    +0.100 C 
ATOM     12  C   UNL     1      -3.073   0.925   1.442  0.00  0.00    +0.033 C 
BRANCH  11  13
ATOM     13  C   UNL     1      -1.219   1.750   0.017  0.00  0.00    -0.027 A 
ATOM     14  C   UNL     1      -0.013   1.076   0.008  0.00  0.00    +0.007 A 
ATOM     15  C   UNL     1       1.175   1.783   0.000  0.00  0.00    +0.020 A 
ATOM     16  C   UNL     1       1.156   3.166   0.008  0.00  0.00    +0.041 A 
ATOM     17  C   UNL     1      -0.052   3.841   0.023  0.00  0.00    +0.020 A 
ATOM     18  C   UNL     1      -1.239   3.133   0.031  0.00  0.00    +0.007 A 
ATOM     19 CL   UNL     1       2.647   4.055  -0.002  0.00  0.00    -0.084 Cl
ENDBRANCH  11  13
ENDBRANCH   9  11
ENDBRANCH   6   7
BRANCH   4  20
ATOM     20  N   UNL     1      -7.534   4.255  -4.511  0.00  0.00    -0.273 N 
ATOM     21  C   UNL     1      -7.032   5.505  -4.457  0.00  0.00    +0.284 C 
ATOM     22  O   UNL     1      -6.043   5.735  -3.786  0.00  0.00    -0.266 OA
ATOM     23  H   UNL     1      -8.322   4.072  -5.045  0.00  0.00    +0.156 HD
BRANCH  21  24
ATOM     24  C   UNL     1      -7.678   6.587  -5.205  0.00  0.00    +0.189 A 
ATOM     25  C   UNL     1      -7.276   7.892  -5.238  0.00  0.00    +0.054 A 
ATOM     26  C   UNL     1      -8.176   8.571  -6.074  0.00  0.00    +0.042 A 
ATOM     27  C   UNL     1      -9.077   7.662  -6.509  0.00  0.00    +0.196 A 
ATOM     28  O   UNL     1      -8.771   6.467  -5.988  0.00  0.00    -0.458 OA
ENDBRANCH  21  24
ENDBRANCH   4  20
TORSDOF 5
