REMARK  Name = ZINC63530329
REMARK  7 active torsions:
REMARK  status: ('A' for Active; 'I' for Inactive)
REMARK    1  A    between atoms: C_1  and  C_2
REMARK    2  A    between atoms: C_2  and  O_3
REMARK    3  A    between atoms: O_3  and  C_4
REMARK    4  A    between atoms: C_4  and  C_6
REMARK    5  A    between atoms: C_13  and  C_15
REMARK    6  A    between atoms: C_17  and  S_25
REMARK    7  A    between atoms: S_25  and  C_26
REMARK                            x       y       z     vdW  Elec       q    Type
REMARK                         _______ _______ _______ _____ _____    ______ ____
ROOT
ATOM      1  C   UNL     1      -5.705  -5.991   0.744  0.00  0.00    +0.204 C 
ATOM      2  C   UNL     1      -6.098  -7.043  -0.269  0.00  0.00    +0.030 C 
ATOM      3  C   UNL     1      -6.788  -8.015   0.448  0.00  0.00    +0.010 A 
ATOM      4  C   UNL     1      -7.398  -9.230   0.063  0.00  0.00    +0.011 A 
ATOM      5  C   UNL     1      -8.017  -9.998   0.996  0.00  0.00    +0.001 A 
ATOM      6  C   UNL     1      -8.069  -9.618   2.338  0.00  0.00    +0.002 A 
ATOM      7  C   UNL     1      -7.505  -8.465   2.777  0.00  0.00    +0.026 A 
ATOM      8  C   UNL     1      -6.840  -7.611   1.861  0.00  0.00    +0.044 A 
ATOM      9  N   UNL     1      -6.223  -6.455   2.034  0.00  0.00    -0.369 N 
ATOM     10  H   UNL     1      -6.128  -5.988   2.879  0.00  0.00    +0.161 HD
ENDROOT
BRANCH   1  17
ATOM     11  C   UNL     1      -1.865  -3.262   0.331  0.00  0.00    +0.115 C 
ATOM     12  C   UNL     1      -2.521  -2.481  -0.810  0.00  0.00    +0.018 C 
ATOM     13  C   UNL     1      -4.033  -2.716  -0.788  0.00  0.00    +0.020 C 
ATOM     14  C   UNL     1      -4.316  -4.207  -0.997  0.00  0.00    +0.108 C 
ATOM     15  N   UNL     1      -3.571  -4.976   0.010  0.00  0.00    -0.299 N 
ATOM     16  C   UNL     1      -2.124  -4.759   0.136  0.00  0.00    +0.122 C 
ATOM     17  C   UNL     1      -4.204  -5.863   0.803  0.00  0.00    +0.243 C 
ATOM     18  O   UNL     1      -3.566  -6.558   1.565  0.00  0.00    -0.273 OA
BRANCH  11  19
ATOM     19  C   UNL     1      -0.380  -3.004   0.329  0.00  0.00    +0.312 C 
ATOM     20  O   UNL     1       0.393  -3.922   0.187  0.00  0.00    -0.250 OA
BRANCH  19  21
ATOM     21  O   UNL     1       0.085  -1.754   0.484  0.00  0.00    -0.465 OA
BRANCH  21  23
ATOM     22  C   UNL     1       1.840  -0.102   0.661  0.00  0.00    +0.048 C 
ATOM     23  C   UNL     1       1.503  -1.583   0.471  0.00  0.00    +0.229 C 
ENDBRANCH  21  23
ENDBRANCH  19  21
ENDBRANCH  11  19
ENDBRANCH   1  17
BRANCH   2  24
ATOM     24  S   UNL     1      -5.773  -7.039  -1.897  0.00  0.00    -0.091 S 
BRANCH  24  25
ATOM     25  C   UNL     1      -6.761  -5.722  -2.525  0.00  0.00    +0.013 A 
ATOM     26  C   UNL     1      -7.650  -5.059  -1.688  0.00  0.00    +0.016 A 
ATOM     27  C   UNL     1      -8.423  -4.027  -2.183  0.00  0.00    +0.021 A 
ATOM     28  C   UNL     1      -8.313  -3.653  -3.511  0.00  0.00    +0.041 A 
ATOM     29  C   UNL     1      -7.428  -4.312  -4.347  0.00  0.00    +0.021 A 
ATOM     30  C   UNL     1      -6.648  -5.341  -3.856  0.00  0.00    +0.016 A 
ATOM     31 CL   UNL     1      -9.287  -2.356  -4.130  0.00  0.00    -0.084 Cl
ENDBRANCH  24  25
ENDBRANCH   2  24
TORSDOF 6
