REMARK  Name = ZINC14713143
REMARK  16 active torsions:
REMARK  status: ('A' for Active; 'I' for Inactive)
REMARK    1  A    between atoms: C_1  and  C_2
REMARK    2  A    between atoms: C_5  and  O_34
REMARK    3  A    between atoms: C_6  and  N_8
REMARK    4  A    between atoms: C_9  and  C_11
REMARK    5  A    between atoms: C_11  and  N_12
REMARK    6  A    between atoms: C_13  and  C_15
REMARK    7  A    between atoms: C_15  and  N_68
REMARK    8  A    between atoms: C_16  and  C_17
REMARK    9  A    between atoms: C_16  and  N_68
REMARK   10  A    between atoms: C_20  and  O_23
REMARK   11  A    between atoms: O_23  and  C_24
REMARK   12  A    between atoms: C_25  and  C_27
REMARK   13  A    between atoms: C_25  and  C_28
REMARK   14  A    between atoms: C_25  and  N_68
REMARK   15  A    between atoms: C_28  and  C_29
REMARK   16  A    between atoms: O_34  and  C_35
REMARK                            x       y       z     vdW  Elec       q    Type
REMARK                         _______ _______ _______ _____ _____    ______ ____
ROOT
ATOM      1  C   UNL     1      -0.914   1.415  -3.273  0.00  0.00    +0.019 C 
ENDROOT
BRANCH   1   3
ATOM      2  N   UNL     1      -1.904  -0.525  -4.445  0.00  0.00    -0.308 N 
ATOM      3  C   UNL     1      -1.738   0.154  -3.293  0.00  0.00    +0.197 C 
ATOM      4  O   UNL     1      -2.253  -0.251  -2.272  0.00  0.00    -0.278 OA
ATOM      5  H   UNL     1      -1.492  -0.202  -5.262  0.00  0.00    +0.149 HD
BRANCH   2   6
ATOM      6  C   UNL     1      -2.705  -1.752  -4.464  0.00  0.00    +0.200 C 
BRANCH   6   8
ATOM      7  N   UNL     1      -3.413  -3.446  -6.122  0.00  0.00    -0.281 N 
ATOM      8  C   UNL     1      -2.732  -2.312  -5.863  0.00  0.00    +0.234 C 
ATOM      9  O   UNL     1      -2.140  -1.743  -6.756  0.00  0.00    -0.274 OA
ATOM     10  H   UNL     1      -3.936  -3.868  -5.422  0.00  0.00    +0.155 HD
BRANCH   7  16
ATOM     11  C   UNL     1      -2.787  -2.914 -10.970  0.00  0.00    +0.044 C 
ATOM     12  C   UNL     1      -3.065  -3.781  -9.769  0.00  0.00    -0.048 A 
ATOM     13  C   UNL     1      -3.276  -5.138  -9.932  0.00  0.00    +0.007 A 
ATOM     14  C   UNL     1      -3.532  -5.939  -8.834  0.00  0.00    +0.048 A 
ATOM     15  C   UNL     1      -3.579  -5.381  -7.566  0.00  0.00    +0.141 A 
ATOM     16  C   UNL     1      -3.367  -4.015  -7.401  0.00  0.00    +0.076 A 
ATOM     17  C   UNL     1      -3.116  -3.217  -8.508  0.00  0.00    +0.030 A 
BRANCH  15  18
ATOM     18  O   UNL     1      -3.831  -6.167  -6.485  0.00  0.00    -0.493 OA
ATOM     19  C   UNL     1      -4.038  -7.560  -6.730  0.00  0.00    +0.277 C 
ENDBRANCH  15  18
ENDBRANCH   7  16
ENDBRANCH   6   8
ENDBRANCH   2   6
ENDBRANCH   1   3
BRANCH   1  20
ATOM     20  N   UNL     1      -0.915   1.964  -1.901  0.00  0.00    +0.390 N 
ATOM     21  H   UNL     1      -1.885   2.040  -1.572  0.00  0.00    -0.080 HD
BRANCH  20  22
ATOM     22  C   UNL     1      -0.171   1.062  -0.996  0.00  0.00    -0.066 C 
ATOM     23  C   UNL     1       1.335   1.191  -1.230  0.00  0.00    -0.013 C 
BRANCH  22  24
ATOM     24  C   UNL     1      -0.497   1.439   0.451  0.00  0.00    +0.027 C 
BRANCH  24  25
ATOM     25  C   UNL     1      -1.949   1.149   0.731  0.00  0.00    -0.012 A 
ATOM     26  C   UNL     1      -2.517   0.012   1.200  0.00  0.00    +0.011 A 
ATOM     27  C   UNL     1      -3.887  -0.027   1.383  0.00  0.00    +0.008 A 
ATOM     28  C   UNL     1      -4.621   1.073   1.087  0.00  0.00    +0.045 A 
ATOM     29  S   UNL     1      -3.366   2.218   0.537  0.00  0.00    -0.102 S 
ENDBRANCH  24  25
ENDBRANCH  22  24
ENDBRANCH  20  22
BRANCH  20  30
ATOM     30  C   UNL     1      -0.299   3.307  -1.893  0.00  0.00    -0.042 C 
BRANCH  30  31
ATOM     31  C   UNL     1      -0.945   4.125  -0.805  0.00  0.00    -0.064 A 
ATOM     32  C   UNL     1      -2.271   4.502  -0.920  0.00  0.00    +0.005 A 
ATOM     33  C   UNL     1      -2.868   5.247   0.078  0.00  0.00    +0.046 A 
ATOM     34  C   UNL     1      -2.132   5.627   1.192  0.00  0.00    +0.120 A 
ATOM     35  C   UNL     1      -0.801   5.253   1.302  0.00  0.00    +0.046 A 
ATOM     36  C   UNL     1      -0.211   4.503   0.303  0.00  0.00    +0.005 A 
BRANCH  34  37
ATOM     37  O   UNL     1      -2.716   6.364   2.173  0.00  0.00    -0.495 OA
ATOM     38  C   UNL     1      -4.090   6.714   1.992  0.00  0.00    +0.277 C 
ENDBRANCH  34  37
ENDBRANCH  30  31
ENDBRANCH  20  30
ENDBRANCH   1  20
TORSDOF 12
