REMARK  Name = ZINC02806104
REMARK  16 active torsions:
REMARK  status: ('A' for Active; 'I' for Inactive)
REMARK    1  A    between atoms: C_1  and  C_2
REMARK    2  A    between atoms: C_2  and  S_3
REMARK    3  A    between atoms: S_3  and  C_4
REMARK    4  A    between atoms: C_4  and  C_5
REMARK    5  A    between atoms: C_5  and  O_6
REMARK    6  A    between atoms: O_6  and  C_7
REMARK    7  A    between atoms: C_7  and  C_9
REMARK    8  A    between atoms: C_10  and  C_37
REMARK    9  A    between atoms: C_14  and  C_16
REMARK   10  A    between atoms: C_19  and  O_23
REMARK   11  A    between atoms: C_20  and  O_22
REMARK   12  A    between atoms: O_23  and  C_24
REMARK   13  A    between atoms: C_27  and  C_33
REMARK   14  A    between atoms: C_29  and  C_32
REMARK   15  A    between atoms: C_33  and  O_35
REMARK   16  A    between atoms: O_35  and  C_36
REMARK                            x       y       z     vdW  Elec       q    Type
REMARK                         _______ _______ _______ _____ _____    ______ ____
ROOT
ATOM      1  C   UNL     1       5.607   3.571   1.179  0.00  0.00    +0.065 C 
ATOM      2  C   UNL     1       6.626   2.694   1.167  0.00  0.00    +0.016 C 
ATOM      3  N   UNL     1       7.103   2.202  -0.016  0.00  0.00    -0.321 N 
ATOM      4  C   UNL     1       6.854   2.853  -1.194  0.00  0.00    +0.016 C 
ATOM      5  C   UNL     1       5.844   3.744  -1.284  0.00  0.00    +0.025 C 
ATOM      6  C   UNL     1       4.961   4.030  -0.095  0.00  0.00    +0.092 C 
ATOM      7  C   UNL     1       5.587   4.431  -2.483  0.00  0.00    +0.176 C 
ATOM      8  O   UNL     1       4.666   5.222  -2.532  0.00  0.00    -0.291 OA
ATOM      9  C   UNL     1       6.432   4.205  -3.707  0.00  0.00    +0.171 C 
ATOM     10  C   UNL     1       7.841   3.790  -3.271  0.00  0.00    +0.013 C 
ATOM     11  C   UNL     1       7.729   2.547  -2.384  0.00  0.00    +0.055 C 
ATOM     12  C   UNL     1       8.688   3.471  -4.505  0.00  0.00    +0.009 C 
ATOM     13  C   UNL     1       7.246   2.250   2.467  0.00  0.00    +0.061 C 
ATOM     14  H   UNL     1       7.694   1.274  -0.027  0.00  0.00    +0.152 HD
ENDROOT
BRANCH   6  15
ATOM     15  C   UNL     1       3.647   3.312  -0.271  0.00  0.00    -0.032 A 
ATOM     16  C   UNL     1       3.622   1.933  -0.355  0.00  0.00    +0.008 A 
ATOM     17  C   UNL     1       2.419   1.269  -0.510  0.00  0.00    +0.050 A 
ATOM     18  C   UNL     1       1.237   1.988  -0.592  0.00  0.00    +0.161 A 
ATOM     19  C   UNL     1       1.263   3.376  -0.507  0.00  0.00    +0.159 A 
ATOM     20  C   UNL     1       2.471   4.035  -0.346  0.00  0.00    +0.053 A 
BRANCH  19  21
ATOM     21  O   UNL     1       0.105   4.085  -0.582  0.00  0.00    -0.503 OA
ATOM     22  H   UNL     1       0.127   5.183  -0.514  0.00  0.00    +0.292 HD
ENDBRANCH  19  21
BRANCH  18  23
ATOM     23  O   UNL     1       0.053   1.337  -0.751  0.00  0.00    -0.491 OA
ATOM     24  C   UNL     1       0.103  -0.089  -0.830  0.00  0.00    +0.277 C 
ENDBRANCH  18  23
ENDBRANCH   6  15
BRANCH   1  25
ATOM     25  C   UNL     1       5.136   4.070   2.415  0.00  0.00    +0.338 C 
ATOM     26  O   UNL     1       5.399   5.210   2.752  0.00  0.00    -0.245 OA
BRANCH  25  27
ATOM     27  O   UNL     1       4.394   3.283   3.222  0.00  0.00    -0.460 OA
BRANCH  27  28
ATOM     28  C   UNL     1       3.951   3.852   4.455  0.00  0.00    +0.243 C 
BRANCH  28  29
ATOM     29  C   UNL     1       3.130   2.818   5.229  0.00  0.00    +0.110 C 
BRANCH  29  30
ATOM     30  S   UNL     1       2.568   3.540   6.795  0.00  0.00    -0.158 S 
BRANCH  30  32
ATOM     31  C   UNL     1       1.085   2.687   8.929  0.00  0.00    +0.015 C 
ATOM     32  C   UNL     1       1.624   2.205   7.580  0.00  0.00    +0.066 C 
ENDBRANCH  30  32
ENDBRANCH  29  30
ENDBRANCH  28  29
ENDBRANCH  27  28
ENDBRANCH  25  27
ENDBRANCH   1  25
BRANCH   9  33
ATOM     33  C   UNL     1       6.507   5.478  -4.511  0.00  0.00    +0.318 C 
ATOM     34  O   UNL     1       7.578   5.997  -4.722  0.00  0.00    -0.250 OA
BRANCH  33  35
ATOM     35  O   UNL     1       5.385   6.035  -4.991  0.00  0.00    -0.467 OA
ATOM     36  C   UNL     1       5.532   7.261  -5.756  0.00  0.00    +0.280 C 
ENDBRANCH  33  35
ENDBRANCH   9  33
TORSDOF 11
