REMARK  Name = ZINC41547717
REMARK  4 active torsions:
REMARK  status: ('A' for Active; 'I' for Inactive)
REMARK    1  A    between atoms: C_1  and  C_2
REMARK    2  A    between atoms: C_11  and  C_13
REMARK    3  A    between atoms: C_11  and  C_14
REMARK    4  A    between atoms: C_23  and  C_27
REMARK                            x       y       z     vdW  Elec       q    Type
REMARK                         _______ _______ _______ _____ _____    ______ ____
ROOT
ATOM      1  C   UNL     1      -0.018   1.503   0.010  0.00  0.00    +0.044 C 
ATOM      2  C   UNL     1       0.002  -0.004   0.002  0.00  0.00    -0.048 A 
ATOM      3  C   UNL     1       0.006  -0.687  -1.200  0.00  0.00    +0.007 A 
ATOM      4  C   UNL     1       0.019  -2.070  -1.216  0.00  0.00    +0.048 A 
ATOM      5  C   UNL     1       0.031  -2.773  -0.024  0.00  0.00    +0.144 A 
ATOM      6  C   UNL     1       0.038  -2.085   1.188  0.00  0.00    +0.076 A 
ATOM      7  C   UNL     1       0.023  -0.700   1.197  0.00  0.00    +0.030 A 
ATOM      8  N   UNL     1       0.086  -2.805   2.389  0.00  0.00    -0.279 N 
ATOM      9  C   UNL     1       0.342  -4.129   2.355  0.00  0.00    +0.270 C 
ATOM     10  O   UNL     1       0.279  -4.788   3.371  0.00  0.00    -0.271 OA
ATOM     11  C   UNL     1       0.706  -4.787   1.048  0.00  0.00    +0.258 C 
ATOM     12  O   UNL     1       0.025  -4.133  -0.026  0.00  0.00    -0.465 OA
ATOM     13  C   UNL     1       2.217  -4.684   0.830  0.00  0.00    +0.076 C 
ATOM     14  H   UNL     1      -0.063  -2.356   3.236  0.00  0.00    +0.155 HD
ENDROOT
BRANCH  11  15
ATOM     15  C   UNL     1       0.304  -6.238   1.087  0.00  0.00    +0.272 C 
ATOM     16  O   UNL     1       0.207  -6.812   2.151  0.00  0.00    -0.270 OA
ATOM     17  N   UNL     1       0.052  -6.899  -0.060  0.00  0.00    -0.261 N 
ATOM     18  C   UNL     1      -0.319  -8.238  -0.024  0.00  0.00    +0.165 A 
ATOM     19  N   UNL     1      -0.479  -9.014   1.026  0.00  0.00    -0.229 NA
ATOM     20  C   UNL     1      -0.841 -10.288   0.910  0.00  0.00    +0.054 A 
ATOM     21  C   UNL     1      -1.028 -10.715  -0.365  0.00  0.00    +0.015 A 
ATOM     22  S   UNL     1      -0.681  -9.261  -1.314  0.00  0.00    -0.057 S 
ATOM     23  C   UNL     1      -1.434 -12.075  -0.821  0.00  0.00    +0.047 C 
ATOM     24  C   UNL     1      -1.971 -12.848   0.395  0.00  0.00    -0.009 C 
ATOM     25  C   UNL     1      -0.993 -12.677   1.560  0.00  0.00    +0.010 C 
ATOM     26  C   UNL     1      -1.041 -11.239   2.082  0.00  0.00    +0.056 C 
ATOM     27  C   UNL     1      -2.099 -14.332   0.043  0.00  0.00    +0.008 C 
ATOM     28  H   UNL     1       0.129  -6.440  -0.911  0.00  0.00    +0.157 HD
ENDBRANCH  11  15
TORSDOF 1
