REMARK  Name = ZINC20693198
REMARK  9 active torsions:
REMARK  status: ('A' for Active; 'I' for Inactive)
REMARK    1  A    between atoms: C_1  and  C_2
REMARK    2  A    between atoms: C_6  and  C_37
REMARK    3  A    between atoms: C_7  and  N_8
REMARK    4  A    between atoms: N_8  and  S_9
REMARK    5  A    between atoms: S_9  and  C_12
REMARK    6  A    between atoms: C_25  and  C_28
REMARK    7  A    between atoms: C_31  and  O_36
REMARK    8  A    between atoms: C_32  and  O_34
REMARK    9  A    between atoms: O_34  and  C_35
REMARK                            x       y       z     vdW  Elec       q    Type
REMARK                         _______ _______ _______ _____ _____    ______ ____
ROOT
ATOM      1  C   UNL     1       5.551   3.143  -4.694  0.00  0.00    +0.109 A 
ATOM      2  C   UNL     1       6.496   2.142  -4.559  0.00  0.00    +0.030 A 
ATOM      3  C   UNL     1       7.060   1.896  -3.324  0.00  0.00    +0.025 A 
ATOM      4  C   UNL     1       6.678   2.651  -2.222  0.00  0.00    +0.031 A 
ATOM      5  C   UNL     1       5.731   3.655  -2.352  0.00  0.00    -0.018 A 
ATOM      6  C   UNL     1       5.171   3.894  -3.600  0.00  0.00    +0.034 A 
ATOM      7  C   UNL     1       5.290   4.494  -1.195  0.00  0.00    +0.049 C 
ATOM      8  C   UNL     1       3.905   4.094  -0.678  0.00  0.00    -0.023 C 
ATOM      9  C   UNL     1       3.853   4.203   0.627  0.00  0.00    -0.030 C 
ATOM     10  C   UNL     1       5.180   4.695   1.172  0.00  0.00    +0.033 C 
ATOM     11  C   UNL     1       6.191   4.329   0.045  0.00  0.00    +0.029 C 
ATOM     12  C   UNL     1       6.563   2.855   0.228  0.00  0.00    +0.105 C 
ATOM     13  N   UNL     1       7.238   2.381  -0.984  0.00  0.00    -0.336 N 
ATOM     14  H   UNL     1       8.180   1.818  -0.905  0.00  0.00    +0.147 HD
ENDROOT
BRANCH  12  15
ATOM     15  C   UNL     1       5.314   2.044   0.460  0.00  0.00    -0.023 A 
ATOM     16  C   UNL     1       4.523   1.675  -0.613  0.00  0.00    +0.009 A 
ATOM     17  C   UNL     1       3.376   0.932  -0.405  0.00  0.00    +0.049 A 
ATOM     18  C   UNL     1       3.017   0.554   0.879  0.00  0.00    +0.158 A 
ATOM     19  C   UNL     1       3.810   0.931   1.958  0.00  0.00    +0.162 A 
ATOM     20  C   UNL     1       4.962   1.671   1.743  0.00  0.00    +0.054 A 
BRANCH  19  21
ATOM     21  O   UNL     1       3.459   0.568   3.221  0.00  0.00    -0.491 OA
ATOM     22  C   UNL     1       4.321   0.989   4.280  0.00  0.00    +0.277 C 
ENDBRANCH  19  21
BRANCH  18  23
ATOM     23  O   UNL     1       1.889  -0.177   1.084  0.00  0.00    -0.503 OA
ATOM     24  H   UNL     1       1.605  -0.476   2.104  0.00  0.00    +0.292 HD
ENDBRANCH  18  23
ENDBRANCH  12  15
BRANCH   1  25
ATOM     25  S   UNL     1       4.828   3.462  -6.269  0.00  0.00    +0.072 S 
ATOM     26  O   UNL     1       5.053   2.304  -7.061  0.00  0.00    -0.150 OA
ATOM     27  O   UNL     1       3.526   3.975  -6.022  0.00  0.00    -0.150 OA
BRANCH  25  28
ATOM     28  N   UNL     1       5.696   4.688  -6.966  0.00  0.00    -0.216 N 
ATOM     29  H   UNL     1       5.220   5.663  -7.149  0.00  0.00    +0.174 HD
BRANCH  28  36
ATOM     30  C   UNL     1       7.714   5.823  -5.314  0.00  0.00    +0.046 C 
ATOM     31  C   UNL     1       8.049   5.020  -6.545  0.00  0.00    -0.028 A 
ATOM     32  C   UNL     1       9.368   4.813  -6.897  0.00  0.00    +0.005 A 
ATOM     33  C   UNL     1       9.675   4.081  -8.030  0.00  0.00    +0.001 A 
ATOM     34  C   UNL     1       8.664   3.550  -8.809  0.00  0.00    +0.005 A 
ATOM     35  C   UNL     1       7.343   3.749  -8.460  0.00  0.00    -0.028 A 
ATOM     36  C   UNL     1       7.031   4.484  -7.323  0.00  0.00    +0.054 A 
ATOM     37  C   UNL     1       6.242   3.171  -9.310  0.00  0.00    +0.046 C 
ENDBRANCH  28  36
ENDBRANCH  25  28
ENDBRANCH   1  25
TORSDOF 6
