REMARK  Name = ZINC06938596
REMARK  8 active torsions:
REMARK  status: ('A' for Active; 'I' for Inactive)
REMARK    1  A    between atoms: C_1  and  C_2
REMARK    2  A    between atoms: C_7  and  S_8
REMARK    3  A    between atoms: S_8  and  N_11
REMARK    4  A    between atoms: N_11  and  C_12
REMARK    5  A    between atoms: C_12  and  C_13
REMARK    6  A    between atoms: C_13  and  C_14
REMARK    7  A    between atoms: C_14  and  C_15
REMARK    8  A    between atoms: C_14  and  C_16
REMARK                            x       y       z     vdW  Elec       q    Type
REMARK                         _______ _______ _______ _____ _____    ______ ____
ROOT
ATOM      1  C   UNL     1       2.240  -1.728   1.743  0.00  0.00    +0.046 C 
ATOM      2  C   UNL     1       1.146  -1.463   0.740  0.00  0.00    -0.022 A 
ATOM      3  C   UNL     1       1.240  -1.987  -0.533  0.00  0.00    +0.033 A 
ATOM      4  C   UNL     1       0.233  -1.744  -1.461  0.00  0.00    +0.066 A 
ATOM      5  C   UNL     1      -0.871  -0.971  -1.098  0.00  0.00    +0.068 A 
ATOM      6  C   UNL     1      -0.955  -0.449   0.188  0.00  0.00    +0.056 A 
ATOM      7  C   UNL     1       0.049  -0.701   1.102  0.00  0.00    +0.110 A 
ATOM      8  N   UNL     1      -1.890  -0.716  -2.012  0.00  0.00    -0.316 N 
ATOM      9  H   UNL     1      -2.652  -0.177  -1.750  0.00  0.00    +0.169 HD
ATOM     10  C   UNL     1      -1.817  -1.218  -3.262  0.00  0.00    +0.314 A 
ATOM     11  O   UNL     1      -2.703  -0.998  -4.063  0.00  0.00    -0.262 OA
ATOM     12  C   UNL     1      -0.638  -2.045  -3.649  0.00  0.00    +0.314 A 
ATOM     13  O   UNL     1      -0.554  -2.506  -4.770  0.00  0.00    -0.262 OA
ATOM     14  N   UNL     1       0.334  -2.275  -2.744  0.00  0.00    -0.316 N 
ATOM     15  H   UNL     1       1.105  -2.811  -2.986  0.00  0.00    +0.169 HD
ENDROOT
BRANCH   7  16
ATOM     16  S   UNL     1      -0.064  -0.044   2.733  0.00  0.00    +0.059 S 
ATOM     17  O   UNL     1      -1.269   0.708   2.786  0.00  0.00    -0.153 OA
ATOM     18  O   UNL     1       0.203  -1.119   3.623  0.00  0.00    -0.153 OA
BRANCH  16  19
ATOM     19  N   UNL     1       1.176   1.038   2.912  0.00  0.00    -0.190 NA
ATOM     20  H   UNL     1       1.877   0.870   3.562  0.00  0.00    +0.148 HD
BRANCH  19  21
ATOM     21  C   UNL     1       1.216   2.249   2.089  0.00  0.00    +0.106 C 
BRANCH  21  22
ATOM     22  C   UNL     1       2.207   3.246   2.695  0.00  0.00    +0.020 C 
BRANCH  22  23
ATOM     23  C   UNL     1       2.249   4.511   1.835  0.00  0.00    -0.016 C 
ATOM     24  C   UNL     1       0.888   5.209   1.888  0.00  0.00    +0.007 C 
ATOM     25  C   UNL     1       3.327   5.455   2.369  0.00  0.00    +0.007 C 
ENDBRANCH  22  23
ENDBRANCH  21  22
ENDBRANCH  19  21
ENDBRANCH  16  19
ENDBRANCH   7  16
TORSDOF 5
