REMARK  Name = ZINC20344253
REMARK  9 active torsions:
REMARK  status: ('A' for Active; 'I' for Inactive)
REMARK    1  A    between atoms: C_1  and  C_2
REMARK    2  A    between atoms: C_4  and  O_27
REMARK    3  A    between atoms: N_9  and  C_10
REMARK    4  A    between atoms: C_10  and  N_12
REMARK    5  A    between atoms: N_12  and  C_13
REMARK    6  A    between atoms: C_13  and  C_15
REMARK    7  A    between atoms: C_13  and  C_16
REMARK    8  A    between atoms: C_16  and  N_17
REMARK    9  A    between atoms: C_20  and  C_23
REMARK                            x       y       z     vdW  Elec       q    Type
REMARK                         _______ _______ _______ _____ _____    ______ ____
ROOT
ATOM      1  C   UNL     1       0.522   1.341  -0.115  0.00  0.00    +0.045 C 
ATOM      2  C   UNL     1      -0.162   0.004   0.012  0.00  0.00    -0.033 A 
ATOM      3  C   UNL     1      -0.865  -0.533  -1.049  0.00  0.00    +0.091 A 
ATOM      4  C   UNL     1      -1.487  -1.765  -0.914  0.00  0.00    +0.285 A 
ATOM      5  O   UNL     1      -1.425  -2.455   0.230  0.00  0.00    -0.425 OA
ATOM      6  C   UNL     1      -0.751  -1.977   1.298  0.00  0.00    +0.141 A 
ATOM      7  C   UNL     1      -0.694  -2.700   2.474  0.00  0.00    +0.070 A 
ATOM      8  C   UNL     1       0.009  -2.188   3.569  0.00  0.00    +0.036 A 
ATOM      9  N   UNL     1       0.067  -2.897   4.725  0.00  0.00    -0.297 N 
ATOM     10  C   UNL     1       0.657  -0.942   3.478  0.00  0.00    +0.024 A 
ATOM     11  C   UNL     1       0.606  -0.224   2.326  0.00  0.00    +0.013 A 
ATOM     12  C   UNL     1      -0.093  -0.728   1.214  0.00  0.00    +0.021 A 
ATOM     13  H   UNL     1       0.168  -2.435   5.572  0.00  0.00    +0.154 HD
ENDROOT
BRANCH   9  14
ATOM     14  C   UNL     1      -0.015  -4.222   4.697  0.00  0.00    +0.135 C 
ATOM     15  S   UNL     1      -0.012  -5.048   3.197  0.00  0.00    -0.019 S 
BRANCH  14  16
ATOM     16  N   UNL     1      -0.101  -4.917   5.848  0.00  0.00    -0.326 N 
ATOM     17  H   UNL     1      -0.103  -4.449   6.698  0.00  0.00    +0.148 HD
BRANCH  16  18
ATOM     18  C   UNL     1      -0.191  -6.379   5.817  0.00  0.00    +0.052 C 
ATOM     19  C   UNL     1       1.216  -6.975   5.733  0.00  0.00    +0.026 C 
BRANCH  18  20
ATOM     20  C   UNL     1      -0.880  -6.875   7.090  0.00  0.00    -0.057 C 
BRANCH  20  21
ATOM     21  N   UNL     1      -2.183  -6.210   7.232  0.00  0.00    +0.381 N 
ATOM     22  C   UNL     1      -3.058  -6.612   6.125  0.00  0.00    -0.078 C 
ATOM     23  C   UNL     1      -4.388  -5.860   6.223  0.00  0.00    -0.016 C 
ATOM     24  C   UNL     1      -5.061  -6.198   7.557  0.00  0.00    -0.018 C 
ATOM     25  C   UNL     1      -4.108  -5.844   8.702  0.00  0.00    -0.016 C 
ATOM     26  C   UNL     1      -2.789  -6.595   8.512  0.00  0.00    -0.078 C 
ATOM     27  C   UNL     1      -6.352  -5.389   7.697  0.00  0.00    +0.007 C 
ATOM     28  H   UNL     1      -2.053  -5.210   7.210  0.00  0.00    -0.082 HD
ENDBRANCH  20  21
ENDBRANCH  18  20
ENDBRANCH  16  18
ENDBRANCH  14  16
ENDBRANCH   9  14
BRANCH   4  29
ATOM     29  O   UNL     1      -2.170  -2.277  -1.956  0.00  0.00    -0.480 OA
ATOM     30  H   UNL     1      -2.572  -3.138  -1.778  0.00  0.00    +0.295 HD
ENDBRANCH   4  29
TORSDOF 6
