REMARK  Name = ZINC40050961
REMARK  4 active torsions:
REMARK  status: ('A' for Active; 'I' for Inactive)
REMARK    1  A    between atoms: C_1  and  C_2
REMARK    2  A    between atoms: C_4  and  C_16
REMARK    3  A    between atoms: N_18  and  C_19
REMARK    4  A    between atoms: C_22  and  N_26
REMARK                            x       y       z     vdW  Elec       q    Type
REMARK                         _______ _______ _______ _____ _____    ______ ____
ROOT
ATOM      1  C   UNL     1      -0.053   1.503   0.010  0.00  0.00    +0.065 C 
ATOM      2  C   UNL     1      -0.022  -0.004   0.002  0.00  0.00    +0.041 A 
ATOM      3  C   UNL     1      -0.011  -0.673  -1.209  0.00  0.00    +0.038 A 
ATOM      4  C   UNL     1       0.019  -2.069  -1.220  0.00  0.00    +0.068 A 
ATOM      5  C   UNL     1       0.036  -2.737   0.021  0.00  0.00    +0.120 A 
ATOM      6  C   UNL     1       0.022  -1.973   1.204  0.00  0.00    +0.161 A 
ATOM      7  N   UNL     1      -0.000  -0.653   1.148  0.00  0.00    -0.233 NA
ATOM      8  N   UNL     1       0.040  -2.885   2.237  0.00  0.00    -0.312 N 
ATOM      9  C   UNL     1       0.073  -4.129   1.685  0.00  0.00    +0.112 A 
ATOM     10  N   UNL     1       0.065  -4.033   0.384  0.00  0.00    -0.230 NA
ATOM     11  C   UNL     1       0.121  -5.422   2.465  0.00  0.00    +0.074 C 
ATOM     12  C   UNL     1      -0.923  -5.378   3.582  0.00  0.00    +0.008 C 
ATOM     13  C   UNL     1      -0.308  -4.758   4.833  0.00  0.00    +0.002 C 
ATOM     14  C   UNL     1       0.713  -3.688   4.450  0.00  0.00    +0.022 C 
ATOM     15  C   UNL     1       0.018  -2.571   3.668  0.00  0.00    +0.125 C 
ENDROOT
BRANCH   4  16
ATOM     16  C   UNL     1       0.032  -2.821  -2.491  0.00  0.00    +0.250 C 
ATOM     17  O   UNL     1       0.058  -4.037  -2.478  0.00  0.00    -0.270 OA
ATOM     18  N   UNL     1       0.015  -2.160  -3.666  0.00  0.00    -0.281 N 
ATOM     19  H   UNL     1      -0.074  -1.194  -3.678  0.00  0.00    +0.155 HD
BRANCH  18  20
ATOM     20  C   UNL     1       0.124  -2.868  -4.869  0.00  0.00    +0.037 A 
ATOM     21  C   UNL     1       0.813  -2.314  -5.941  0.00  0.00    +0.045 A 
ATOM     22  C   UNL     1       0.921  -3.012  -7.128  0.00  0.00    +0.065 A 
ATOM     23  C   UNL     1       0.342  -4.269  -7.250  0.00  0.00    +0.062 A 
ATOM     24  C   UNL     1      -0.347  -4.823  -6.178  0.00  0.00    +0.065 A 
ATOM     25  C   UNL     1      -0.450  -4.127  -4.989  0.00  0.00    +0.045 A 
ATOM     26 CL   UNL     1      -1.072  -6.393  -6.331  0.00  0.00    -0.082 Cl
ATOM     27 CL   UNL     1       1.782  -2.318  -8.467  0.00  0.00    -0.082 Cl
BRANCH  23  28
ATOM     28  N   UNL     1       0.451  -4.976  -8.454  0.00  0.00    -0.356 N 
ATOM     29  H   UNL     1       0.932  -4.589  -9.202  0.00  0.00    +0.142 HD
ATOM     30  H   UNL     1       0.046  -5.854  -8.539  0.00  0.00    +0.142 HD
ENDBRANCH  23  28
ENDBRANCH  18  20
ENDBRANCH   4  16
TORSDOF 3
