REMARK  Name = ZINC28682230
REMARK  7 active torsions:
REMARK  status: ('A' for Active; 'I' for Inactive)
REMARK    1  A    between atoms: C_1  and  C_2
REMARK    2  A    between atoms: C_2  and  O_3
REMARK    3  A    between atoms: O_3  and  C_4
REMARK    4  A    between atoms: C_11  and  C_18
REMARK    5  A    between atoms: C_13  and  O_14
REMARK    6  A    between atoms: C_18  and  S_19
REMARK    7  A    between atoms: S_19  and  C_20
REMARK                            x       y       z     vdW  Elec       q    Type
REMARK                         _______ _______ _______ _____ _____    ______ ____
ROOT
ATOM      1  C   UNL     1       6.804  -5.971   3.044  0.00  0.00    +0.405 C 
ATOM      2  O   UNL     1       7.741  -5.210   3.183  0.00  0.00    -0.226 OA
ATOM      3  N   UNL     1       5.543  -5.494   3.040  0.00  0.00    -0.251 N 
ATOM      4  C   UNL     1       5.318  -4.118   3.083  0.00  0.00    +0.040 A 
ATOM      5  C   UNL     1       4.201  -3.620   3.754  0.00  0.00    +0.024 A 
ATOM      6  C   UNL     1       3.968  -2.276   3.805  0.00  0.00    +0.013 A 
ATOM      7  C   UNL     1       4.858  -1.391   3.184  0.00  0.00    +0.022 A 
ATOM      8  C   UNL     1       4.628   0.054   3.217  0.00  0.00    -0.020 A 
ATOM      9  C   UNL     1       5.525   0.861   2.591  0.00  0.00    +0.092 A 
ATOM     10  C   UNL     1       6.635   0.296   1.931  0.00  0.00    +0.285 A 
ATOM     11  O   UNL     1       6.837  -1.031   1.900  0.00  0.00    -0.425 OA
ATOM     12  C   UNL     1       5.984  -1.888   2.501  0.00  0.00    +0.141 A 
ATOM     13  C   UNL     1       6.207  -3.255   2.459  0.00  0.00    +0.070 A 
ATOM     14  H   UNL     1       4.692  -6.190   3.003  0.00  0.00    +0.158 HD
ENDROOT
BRANCH  10  15
ATOM     15  O   UNL     1       7.431   1.030   1.374  0.00  0.00    -0.480 OA
ATOM     16  H   UNL     1       8.302   0.605   0.854  0.00  0.00    +0.295 HD
ENDBRANCH  10  15
BRANCH   1  17
ATOM     17  O   UNL     1       7.025  -7.291   2.895  0.00  0.00    -0.450 OA
BRANCH  17  19
ATOM     18  C   UNL     1       8.459  -9.252   2.728  0.00  0.00    +0.048 C 
ATOM     19  C   UNL     1       8.408  -7.734   2.909  0.00  0.00    +0.230 C 
ENDBRANCH  17  19
ENDBRANCH   1  17
BRANCH   8  20
ATOM     20  C   UNL     1       3.434   0.632   3.931  0.00  0.00    +0.112 C 
BRANCH  20  21
ATOM     21  S   UNL     1       2.045   0.759   2.777  0.00  0.00    -0.100 S 
BRANCH  21  22
ATOM     22  C   UNL     1       0.822   1.443   3.845  0.00  0.00    +0.109 A 
ATOM     23  C   UNL     1      -0.485   1.727   3.358  0.00  0.00    +0.043 A 
ATOM     24  C   UNL     1      -1.018   1.524   2.003  0.00  0.00    -0.025 A 
ATOM     25  C   UNL     1      -2.298   1.880   1.795  0.00  0.00    -0.004 A 
ATOM     26  S   UNL     1      -2.869   2.493   3.364  0.00  0.00    -0.073 S 
ATOM     27  C   UNL     1      -1.379   2.272   4.297  0.00  0.00    +0.113 A 
ATOM     28  N   UNL     1      -1.014   2.498   5.545  0.00  0.00    -0.228 NA
ATOM     29  C   UNL     1       0.212   2.215   5.941  0.00  0.00    +0.223 A 
ATOM     30  N   UNL     1       1.104   1.702   5.113  0.00  0.00    -0.229 NA
ATOM     31  C   UNL     1      -2.733   1.632   0.375  0.00  0.00    +0.043 C 
ATOM     32  C   UNL     1      -1.414   1.467  -0.411  0.00  0.00    +0.010 C 
ATOM     33  C   UNL     1      -0.453   0.977   0.689  0.00  0.00    +0.037 C 
ENDBRANCH  21  22
ENDBRANCH  20  21
ENDBRANCH   8  20
TORSDOF 6
