REMARK  Name = ZINC13703039
REMARK  12 active torsions:
REMARK  status: ('A' for Active; 'I' for Inactive)
REMARK    1  A    between atoms: C_1  and  C_2
REMARK    2  A    between atoms: C_2  and  N_3
REMARK    3  A    between atoms: C_4  and  C_27
REMARK    4  A    between atoms: C_6  and  C_8
REMARK    5  A    between atoms: N_10  and  C_11
REMARK    6  A    between atoms: C_11  and  C_12
REMARK    7  A    between atoms: C_12  and  C_13
REMARK    8  A    between atoms: C_13  and  N_57
REMARK    9  A    between atoms: C_14  and  N_57
REMARK   10  A    between atoms: C_15  and  N_57
REMARK   11  A    between atoms: C_20  and  C_26
REMARK   12  A    between atoms: C_22  and  C_25
REMARK                            x       y       z     vdW  Elec       q    Type
REMARK                         _______ _______ _______ _____ _____    ______ ____
ROOT
ATOM      1  C   UNL     1      -2.058   5.703   0.011  0.00  0.00    +0.272 C 
ATOM      2  O   UNL     1      -2.781   4.735  -0.126  0.00  0.00    -0.268 OA
ATOM      3  N   UNL     1      -0.722   5.542   0.081  0.00  0.00    -0.245 N 
ATOM      4  C   UNL     1      -0.178   4.269   0.089  0.00  0.00    +0.168 A 
ATOM      5  N   UNL     1       1.085   3.914   0.153  0.00  0.00    -0.224 NA
ATOM      6  C   UNL     1       1.476   2.621   0.153  0.00  0.00    +0.081 A 
ATOM      7  C   UNL     1       2.791   2.107   0.216  0.00  0.00    +0.032 A 
ATOM      8  C   UNL     1       3.016   0.755   0.206  0.00  0.00    -0.048 A 
ATOM      9  C   UNL     1       1.970  -0.153   0.134  0.00  0.00    +0.008 A 
ATOM     10  C   UNL     1       0.670   0.315   0.071  0.00  0.00    -0.034 A 
ATOM     11  C   UNL     1       0.435   1.667   0.080  0.00  0.00    +0.044 A 
ATOM     12  S   UNL     1      -1.014   2.692   0.011  0.00  0.00    -0.052 S 
ATOM     13  C   UNL     1      -0.481  -0.654  -0.008  0.00  0.00    +0.045 C 
ATOM     14  C   UNL     1       4.432   0.244   0.276  0.00  0.00    +0.044 C 
ENDROOT
BRANCH   1  18
ATOM     15  N   UNL     1      -2.807   9.179   0.217  0.00  0.00    -0.268 N 
ATOM     16  C   UNL     1      -4.079   8.724   0.232  0.00  0.00    +0.037 A 
ATOM     17  C   UNL     1      -4.022   7.374   0.159  0.00  0.00    +0.057 A 
ATOM     18  C   UNL     1      -2.645   7.056   0.100  0.00  0.00    +0.148 A 
ATOM     19  N   UNL     1      -1.984   8.196   0.146  0.00  0.00    -0.166 NA
ATOM     20  C   UNL     1      -5.328   9.564   0.316  0.00  0.00    +0.065 C 
BRANCH  15  22
ATOM     21  C   UNL     1      -2.244  11.008   1.740  0.00  0.00    +0.029 C 
ATOM     22  C   UNL     1      -2.422  10.591   0.279  0.00  0.00    +0.140 C 
ENDBRANCH  15  22
ENDBRANCH   1  18
BRANCH   3  23
ATOM     23  C   UNL     1       0.155   6.714   0.147  0.00  0.00    +0.114 C 
BRANCH  23  24
ATOM     24  C   UNL     1       0.410   7.241  -1.266  0.00  0.00    +0.001 C 
BRANCH  24  25
ATOM     25  C   UNL     1       1.325   8.465  -1.197  0.00  0.00    -0.078 C 
BRANCH  25  28
ATOM     26  C   UNL     1       2.245  10.275  -2.516  0.00  0.00    -0.097 C 
ATOM     27  C   UNL     1       2.341   8.002  -3.346  0.00  0.00    -0.097 C 
ATOM     28  N   UNL     1       1.545   8.974  -2.567  0.00  0.00    +0.376 N 
ATOM     29  H   UNL     1       0.635   9.103  -3.025  0.00  0.00    -0.083 HD
ENDBRANCH  25  28
ENDBRANCH  24  25
ENDBRANCH  23  24
ENDBRANCH   3  23
TORSDOF 6
