REMARK  Name = ZINC36484747
REMARK  8 active torsions:
REMARK  status: ('A' for Active; 'I' for Inactive)
REMARK    1  A    between atoms: C_1  and  C_2
REMARK    2  A    between atoms: C_3  and  C_4
REMARK    3  A    between atoms: C_4  and  C_6
REMARK    4  A    between atoms: C_4  and  N_15
REMARK    5  A    between atoms: N_8  and  C_9
REMARK    6  A    between atoms: N_15  and  C_16
REMARK    7  A    between atoms: C_23  and  C_25
REMARK    8  A    between atoms: C_28  and  O_31
REMARK                            x       y       z     vdW  Elec       q    Type
REMARK                         _______ _______ _______ _____ _____    ______ ____
ROOT
ATOM      1  N   UNL     1      -0.222  -3.157  -0.103  0.00  0.00    -0.252 N 
ATOM      2  C   UNL     1       0.584  -3.256  -1.179  0.00  0.00    +0.252 C 
ATOM      3  O   UNL     1       0.137  -3.062  -2.293  0.00  0.00    -0.270 OA
ENDROOT
BRANCH   1   4
ATOM      4  C   UNL     1      -1.574  -2.840  -0.269  0.00  0.00    +0.039 A 
ATOM      5  C   UNL     1      -2.369  -2.581   0.840  0.00  0.00    +0.023 A 
ATOM      6  C   UNL     1      -3.704  -2.268   0.673  0.00  0.00    +0.003 A 
ATOM      7  C   UNL     1      -4.250  -2.213  -0.596  0.00  0.00    +0.020 A 
ATOM      8  C   UNL     1      -3.461  -2.471  -1.703  0.00  0.00    +0.043 A 
ATOM      9  C   UNL     1      -2.122  -2.779  -1.543  0.00  0.00    +0.043 A 
ATOM     10 CL   UNL     1      -4.150  -2.401  -3.295  0.00  0.00    -0.083 Cl
ENDBRANCH   1   4
BRANCH   2  11
ATOM     11  C   UNL     1       2.009  -3.599  -1.005  0.00  0.00    +0.037 A 
ATOM     12  C   UNL     1       2.690  -3.198   0.147  0.00  0.00    +0.016 A 
ATOM     13  C   UNL     1       4.019  -3.521   0.306  0.00  0.00    +0.046 A 
ATOM     14  C   UNL     1       4.684  -4.243  -0.678  0.00  0.00    +0.117 A 
ATOM     15  C   UNL     1       4.010  -4.644  -1.826  0.00  0.00    +0.046 A 
ATOM     16  C   UNL     1       2.679  -4.331  -1.989  0.00  0.00    +0.016 A 
BRANCH  14  17
ATOM     17  O   UNL     1       5.994  -4.559  -0.518  0.00  0.00    -0.507 OA
ATOM     18  H   UNL     1       6.144  -5.404  -0.073  0.00  0.00    +0.292 HD
ENDBRANCH  14  17
ENDBRANCH   2  11
BRANCH   1  19
ATOM     19  C   UNL     1       0.319  -3.381   1.240  0.00  0.00    +0.190 C 
BRANCH  19  20
ATOM     20  C   UNL     1      -0.519  -4.410   1.953  0.00  0.00    +0.238 C 
ATOM     21  O   UNL     1      -1.474  -4.908   1.395  0.00  0.00    -0.273 OA
ATOM     22  N   UNL     1      -0.207  -4.778   3.212  0.00  0.00    -0.311 N 
ATOM     23  H   UNL     1       0.556  -4.380   3.659  0.00  0.00    +0.149 HD
BRANCH  22  24
ATOM     24  C   UNL     1      -1.022  -5.779   3.905  0.00  0.00    +0.073 C 
ATOM     25  C   UNL     1      -2.224  -5.094   4.559  0.00  0.00    +0.022 C 
ATOM     26  C   UNL     1      -3.075  -6.140   5.283  0.00  0.00    +0.002 C 
ATOM     27  C   UNL     1      -2.231  -6.827   6.359  0.00  0.00    +0.000 C 
ATOM     28  C   UNL     1      -1.029  -7.511   5.705  0.00  0.00    +0.002 C 
ATOM     29  C   UNL     1      -0.179  -6.466   4.981  0.00  0.00    +0.022 C 
ENDBRANCH  22  24
ENDBRANCH  19  20
BRANCH  19  32
ATOM     30  C   UNL     1      -0.196   0.295   2.227  0.00  0.00    +0.035 C 
ATOM     31  C   UNL     1      -0.170  -0.998   1.453  0.00  0.00    -0.032 C 
ATOM     32  C   UNL     1       0.293  -2.088   2.014  0.00  0.00    +0.000 C 
ENDBRANCH  19  32
ENDBRANCH   1  19
TORSDOF 7
