REMARK  Name = ZINC02309530
REMARK  9 active torsions:
REMARK  status: ('A' for Active; 'I' for Inactive)
REMARK    1  A    between atoms: C_1  and  C_2
REMARK    2  A    between atoms: C_2  and  C_4
REMARK    3  A    between atoms: C_8  and  N_10
REMARK    4  A    between atoms: C_11  and  C_13
REMARK    5  A    between atoms: C_13  and  S_14
REMARK    6  A    between atoms: S_14  and  C_15
REMARK    7  A    between atoms: C_16  and  C_37
REMARK    8  A    between atoms: C_17  and  C_27
REMARK    9  A    between atoms: C_32  and  C_33
REMARK                            x       y       z     vdW  Elec       q    Type
REMARK                         _______ _______ _______ _____ _____    ______ ____
ROOT
ATOM      1  C   UNL     1      -5.207  -8.748   0.490  0.00  0.00    +0.080 C 
ATOM      2  C   UNL     1      -6.261  -9.598   0.615  0.00  0.00    +0.069 C 
ATOM      3  C   UNL     1      -6.054 -11.082   0.695  0.00  0.00    +0.097 C 
ATOM      4  C   UNL     1      -4.627 -11.414   1.053  0.00  0.00    +0.024 C 
ATOM      5  C   UNL     1      -4.349 -12.706   1.533  0.00  0.00    +0.162 C 
ATOM      6  O   UNL     1      -5.257 -13.502   1.661  0.00  0.00    -0.292 OA
ATOM      7  C   UNL     1      -2.948 -13.120   1.890  0.00  0.00    +0.080 C 
ATOM      8  C   UNL     1      -1.958 -12.316   1.040  0.00  0.00    +0.014 C 
ATOM      9  C   UNL     1      -2.218 -10.826   1.274  0.00  0.00    +0.051 C 
ATOM     10  C   UNL     1      -3.646 -10.497   0.914  0.00  0.00    +0.016 C 
ATOM     11  N   UNL     1      -3.925  -9.242   0.440  0.00  0.00    -0.311 N 
ATOM     12  H   UNL     1      -3.213  -8.697   0.069  0.00  0.00    +0.152 HD
ENDROOT
BRANCH   3  13
ATOM     13  C   UNL     1      -6.384 -11.700  -0.639  0.00  0.00    -0.023 A 
ATOM     14  C   UNL     1      -5.582 -11.446  -1.736  0.00  0.00    +0.005 A 
ATOM     15  C   UNL     1      -5.885 -12.013  -2.959  0.00  0.00    +0.000 A 
ATOM     16  C   UNL     1      -6.989 -12.834  -3.086  0.00  0.00    +0.001 A 
ATOM     17  C   UNL     1      -7.791 -13.089  -1.990  0.00  0.00    +0.012 A 
ATOM     18  C   UNL     1      -7.486 -12.525  -0.765  0.00  0.00    +0.059 A 
BRANCH  18  19
ATOM     19  C   UNL     1      -8.357 -12.807   0.433  0.00  0.00    +0.418 C 
ATOM     20  F   UNL     1      -9.466 -13.561   0.035  0.00  0.00    -0.166 F 
ATOM     21  F   UNL     1      -7.623 -13.523   1.385  0.00  0.00    -0.166 F 
ATOM     22  F   UNL     1      -8.789 -11.598   0.989  0.00  0.00    -0.166 F 
ENDBRANCH  18  19
ENDBRANCH   3  13
BRANCH   2  23
ATOM     23  C   UNL     1      -7.591  -9.069   0.671  0.00  0.00    +0.098 C 
ATOM     24  N   UNL     1      -8.645  -8.649   0.715  0.00  0.00    -0.191 NA
ENDBRANCH   2  23
BRANCH   1  25
ATOM     25  S   UNL     1      -5.485  -7.011   0.387  0.00  0.00    -0.100 S 
BRANCH  25  26
ATOM     26  C   UNL     1      -3.821  -6.309   0.226  0.00  0.00    +0.171 C 
BRANCH  26  28
ATOM     27  N   UNL     1      -2.796  -4.069  -0.000  0.00  0.00    -0.285 N 
ATOM     28  C   UNL     1      -3.916  -4.808   0.127  0.00  0.00    +0.227 C 
ATOM     29  O   UNL     1      -5.000  -4.266   0.161  0.00  0.00    -0.275 OA
ATOM     30  H   UNL     1      -1.936  -4.505  -0.102  0.00  0.00    +0.155 HD
BRANCH  27  35
ATOM     31  C   UNL     1      -3.987  -0.648   0.696  0.00  0.00    +0.019 A 
ATOM     32  C   UNL     1      -3.012   0.104   0.031  0.00  0.00    +0.011 A 
ATOM     33  C   UNL     1      -1.984  -0.533  -0.631  0.00  0.00    +0.002 A 
ATOM     34  C   UNL     1      -1.912  -1.914  -0.642  0.00  0.00    +0.023 A 
ATOM     35  C   UNL     1      -2.875  -2.671   0.015  0.00  0.00    +0.034 A 
ATOM     36  C   UNL     1      -3.910  -2.043   0.689  0.00  0.00    +0.034 A 
BRANCH  31  38
ATOM     37  C   UNL     1      -5.167   1.533   1.408  0.00  0.00    +0.091 C 
ATOM     38  C   UNL     1      -5.087   0.028   1.403  0.00  0.00    +0.160 C 
ATOM     39  O   UNL     1      -5.927  -0.626   1.982  0.00  0.00    -0.292 OA
ENDBRANCH  31  38
ENDBRANCH  27  35
ENDBRANCH  26  28
ENDBRANCH  25  26
ENDBRANCH   1  25
TORSDOF 8
