REMARK  Name = ZINC09814279
REMARK  8 active torsions:
REMARK  status: ('A' for Active; 'I' for Inactive)
REMARK    1  A    between atoms: C_1  and  C_2
REMARK    2  A    between atoms: C_2  and  C_4
REMARK    3  A    between atoms: C_2  and  O_17
REMARK    4  A    between atoms: N_6  and  C_7
REMARK    5  A    between atoms: C_10  and  S_13
REMARK    6  A    between atoms: S_13  and  N_16
REMARK    7  A    between atoms: O_17  and  C_18
REMARK    8  A    between atoms: C_18  and  C_20
REMARK                            x       y       z     vdW  Elec       q    Type
REMARK                         _______ _______ _______ _____ _____    ______ ____
ROOT
ATOM      1  C   UNL     1      -1.127   4.045   1.479  0.00  0.00    +0.062 C 
ATOM      2  C   UNL     1      -1.143   3.546   0.033  0.00  0.00    +0.259 C 
ENDROOT
BRANCH   2   3
ATOM      3  C   UNL     1      -2.352   4.099  -0.676  0.00  0.00    +0.258 C 
ATOM      4  O   UNL     1      -3.223   3.349  -1.065  0.00  0.00    -0.271 OA
ATOM      5  N   UNL     1      -2.467   5.426  -0.879  0.00  0.00    -0.282 N 
ATOM      6  H   UNL     1      -1.805   6.032  -0.510  0.00  0.00    +0.155 HD
BRANCH   5   7
ATOM      7  C   UNL     1      -3.540   5.931  -1.621  0.00  0.00    +0.034 A 
ATOM      8  C   UNL     1      -3.362   7.043  -2.434  0.00  0.00    +0.025 A 
ATOM      9  C   UNL     1      -4.422   7.534  -3.171  0.00  0.00    +0.030 A 
ATOM     10  C   UNL     1      -5.663   6.928  -3.090  0.00  0.00    +0.105 A 
ATOM     11  C   UNL     1      -5.844   5.824  -2.277  0.00  0.00    +0.030 A 
ATOM     12  C   UNL     1      -4.787   5.324  -1.543  0.00  0.00    +0.025 A 
BRANCH  10  13
ATOM     13  S   UNL     1      -7.014   7.563  -4.025  0.00  0.00    +0.056 S 
ATOM     14  O   UNL     1      -6.452   8.267  -5.124  0.00  0.00    -0.153 OA
ATOM     15  O   UNL     1      -7.930   6.490  -4.196  0.00  0.00    -0.153 OA
BRANCH  13  16
ATOM     16  N   UNL     1      -7.776   8.690  -3.081  0.00  0.00    -0.204 NA
ATOM     17  H   UNL     1      -8.231   9.441  -3.494  0.00  0.00    +0.144 HD
ATOM     18  H   UNL     1      -7.768   8.599  -2.115  0.00  0.00    +0.144 HD
ENDBRANCH  13  16
ENDBRANCH  10  13
ENDBRANCH   5   7
ENDBRANCH   2   3
BRANCH   2  19
ATOM     19  O   UNL     1      -1.196   2.118   0.023  0.00  0.00    -0.448 OA
BRANCH  19  20
ATOM     20  C   UNL     1      -0.017   1.462   0.021  0.00  0.00    +0.347 C 
ATOM     21  O   UNL     1       1.027   2.086   0.023  0.00  0.00    -0.244 OA
BRANCH  20  22
ATOM     22  C   UNL     1       0.006  -0.001   0.010  0.00  0.00    +0.097 A 
ATOM     23  C   UNL     1       1.099  -0.857  -0.004  0.00  0.00    +0.027 A 
ATOM     24  C   UNL     1       0.898  -2.214  -0.008  0.00  0.00    -0.031 A 
ATOM     25  C   UNL     1      -0.434  -2.642   0.001  0.00  0.00    +0.024 A 
ATOM     26  S   UNL     1      -1.368  -1.146   0.005  0.00  0.00    -0.082 S 
ATOM     27  C   UNL     1      -0.831  -4.047  -0.006  0.00  0.00    -0.008 A 
ATOM     28  C   UNL     1      -2.127  -4.471  -0.272  0.00  0.00    +0.009 A 
ATOM     29  C   UNL     1      -2.416  -5.821  -0.286  0.00  0.00    +0.001 A 
ATOM     30  C   UNL     1      -1.418  -6.745  -0.028  0.00  0.00    +0.000 A 
ATOM     31  C   UNL     1      -0.133  -6.327   0.266  0.00  0.00    +0.004 A 
ATOM     32  C   UNL     1       0.170  -4.983   0.302  0.00  0.00    -0.039 A 
ATOM     33  C   UNL     1       1.537  -4.516   0.713  0.00  0.00    +0.040 C 
ATOM     34  C   UNL     1       1.996  -3.270  -0.035  0.00  0.00    +0.041 C 
ENDBRANCH  20  22
ENDBRANCH  19  20
ENDBRANCH   2  19
TORSDOF 7
