REMARK  Name = ZINC40118338
REMARK  5 active torsions:
REMARK  status: ('A' for Active; 'I' for Inactive)
REMARK    1  A    between atoms: C_1  and  C_2
REMARK    2  A    between atoms: C_5  and  S_8
REMARK    3  A    between atoms: S_8  and  O_11
REMARK    4  A    between atoms: O_11  and  C_12
REMARK    5  A    between atoms: C_22  and  C_24
REMARK                            x       y       z     vdW  Elec       q    Type
REMARK                         _______ _______ _______ _____ _____    ______ ____
ROOT
ATOM      1  C   UNL     1       2.207  -4.916   0.984  0.00  0.00    +0.159 C 
ATOM      2  C   UNL     1       1.589  -4.610   2.198  0.00  0.00    +0.038 A 
ATOM      3  C   UNL     1       0.206  -4.338   2.254  0.00  0.00    +0.013 A 
ATOM      4  C   UNL     1      -0.372  -4.043   3.450  0.00  0.00    +0.001 A 
ATOM      5  C   UNL     1       0.374  -4.005   4.624  0.00  0.00    +0.002 A 
ATOM      6  C   UNL     1       1.713  -4.258   4.633  0.00  0.00    +0.024 A 
ATOM      7  C   UNL     1       2.376  -4.570   3.433  0.00  0.00    +0.044 A 
ATOM      8  N   UNL     1       3.692  -4.820   3.445  0.00  0.00    -0.284 N 
ATOM      9  C   UNL     1       4.385  -5.119   2.365  0.00  0.00    +0.232 C 
ATOM     10  O   UNL     1       5.580  -5.334   2.450  0.00  0.00    -0.274 OA
ATOM     11  C   UNL     1       3.696  -5.201   1.021  0.00  0.00    +0.174 C 
ATOM     12  H   UNL     1       4.160  -4.778   4.293  0.00  0.00    +0.155 HD
ENDROOT
BRANCH  11  13
ATOM     13  C   UNL     1       4.377  -4.224   0.097  0.00  0.00    -0.028 A 
ATOM     14  C   UNL     1       4.272  -2.866   0.328  0.00  0.00    +0.005 A 
ATOM     15  C   UNL     1       4.897  -1.970  -0.520  0.00  0.00    +0.000 A 
ATOM     16  C   UNL     1       5.628  -2.434  -1.598  0.00  0.00    +0.000 A 
ATOM     17  C   UNL     1       5.733  -3.792  -1.828  0.00  0.00    +0.000 A 
ATOM     18  C   UNL     1       5.112  -4.688  -0.978  0.00  0.00    +0.005 A 
ENDBRANCH  11  13
BRANCH   1  19
ATOM     19  O   UNL     1       1.516  -4.961  -0.160  0.00  0.00    -0.345 OA
BRANCH  19  20
ATOM     20  S   UNL     1       0.056  -4.557  -0.017  0.00  0.00    +0.151 S 
ATOM     21  O   UNL     1      -0.494  -5.377   1.005  0.00  0.00    -0.131 OA
ATOM     22  O   UNL     1      -0.484  -4.513  -1.331  0.00  0.00    -0.131 OA
BRANCH  20  27
ATOM     23  C   UNL     1      -0.034   1.102   2.074  0.00  0.00    +0.044 C 
ATOM     24  C   UNL     1      -0.012  -0.312   1.552  0.00  0.00    -0.050 A 
ATOM     25  C   UNL     1       1.063  -1.135   1.831  0.00  0.00    +0.005 A 
ATOM     26  C   UNL     1       1.084  -2.431   1.352  0.00  0.00    +0.031 A 
ATOM     27  C   UNL     1       0.029  -2.905   0.595  0.00  0.00    +0.128 A 
ATOM     28  C   UNL     1      -1.047  -2.082   0.317  0.00  0.00    +0.031 A 
ATOM     29  C   UNL     1      -1.069  -0.787   0.799  0.00  0.00    +0.005 A 
ENDBRANCH  20  27
ENDBRANCH  19  20
ENDBRANCH   1  19
TORSDOF 4
