REMARK  Name = ZINC40034306
REMARK  5 active torsions:
REMARK  status: ('A' for Active; 'I' for Inactive)
REMARK    1  A    between atoms: C_4  and  N_7
REMARK    2  A    between atoms: C_8  and  S_22
REMARK    3  A    between atoms: C_12  and  C_13
REMARK    4  A    between atoms: S_22  and  C_23
REMARK    5  A    between atoms: C_23  and  C_24
REMARK                            x       y       z     vdW  Elec       q    Type
REMARK                         _______ _______ _______ _____ _____    ______ ____
ROOT
ATOM      1  N   UNL     1       3.620  -0.649  -0.031  0.00  0.00    -0.254 N 
ATOM      2  C   UNL     1       3.817  -2.105   0.054  0.00  0.00    +0.241 C 
ATOM      3  N   UNL     1       5.277  -2.279  -0.015  0.00  0.00    -0.237 N 
ATOM      4  N   UNL     1       5.825  -0.996  -0.129  0.00  0.00    -0.169 NA
ATOM      5  C   UNL     1       4.892  -0.081  -0.144  0.00  0.00    +0.151 C 
ATOM      6  H   UNL     1       5.764  -3.117   0.014  0.00  0.00    +0.171 HD
ENDROOT
BRANCH   5   7
ATOM      7  C   UNL     1       5.137   1.297  -0.256  0.00  0.00    +0.022 C 
ATOM      8  C   UNL     1       6.366   1.921  -0.468  0.00  0.00    +0.006 A 
ATOM      9  C   UNL     1       7.675   1.418  -0.630  0.00  0.00    +0.010 A 
ATOM     10  C   UNL     1       8.707   2.278  -0.827  0.00  0.00    +0.001 A 
ATOM     11  C   UNL     1       8.509   3.660  -0.874  0.00  0.00    +0.002 A 
ATOM     12  C   UNL     1       7.280   4.212  -0.726  0.00  0.00    +0.026 A 
ATOM     13  C   UNL     1       6.152   3.376  -0.517  0.00  0.00    +0.043 A 
ATOM     14  N   UNL     1       4.875   3.661  -0.348  0.00  0.00    -0.380 N 
ATOM     15  C   UNL     1       4.121   2.415  -0.177  0.00  0.00    +0.152 C 
ATOM     16  H   UNL     1       4.495   4.553  -0.342  0.00  0.00    +0.160 HD
ENDBRANCH   5   7
BRANCH   1  20
ATOM     17  C   UNL     1      -0.016   1.380   0.036  0.00  0.00    +0.000 A 
ATOM     18  C   UNL     1       0.491   0.912  -1.163  0.00  0.00    +0.002 A 
ATOM     19  C   UNL     1       1.697   0.239  -1.188  0.00  0.00    +0.023 A 
ATOM     20  C   UNL     1       2.401   0.032  -0.008  0.00  0.00    +0.038 A 
ATOM     21  C   UNL     1       1.888   0.503   1.194  0.00  0.00    +0.023 A 
ATOM     22  C   UNL     1       0.682   1.175   1.212  0.00  0.00    +0.002 A 
ENDBRANCH   1  20
BRANCH   2  23
ATOM     23  S   UNL     1       3.172  -2.742   1.626  0.00  0.00    -0.108 S 
BRANCH  23  24
ATOM     24  C   UNL     1       4.136  -1.860   2.885  0.00  0.00    +0.168 C 
BRANCH  24  25
ATOM     25  C   UNL     1       3.695  -2.302   4.256  0.00  0.00    +0.226 C 
ATOM     26  O   UNL     1       2.816  -3.130   4.373  0.00  0.00    -0.275 OA
ATOM     27  N   UNL     1       4.276  -1.777   5.353  0.00  0.00    -0.301 N 
ATOM     28  C   UNL     1       5.337  -0.768   5.228  0.00  0.00    +0.108 C 
ATOM     29  C   UNL     1       4.953   0.457   6.063  0.00  0.00    +0.019 C 
ATOM     30  C   UNL     1       4.668   0.020   7.502  0.00  0.00    +0.003 C 
ATOM     31  C   UNL     1       3.493  -0.961   7.515  0.00  0.00    +0.019 C 
ATOM     32  C   UNL     1       3.856  -2.198   6.697  0.00  0.00    +0.108 C 
ENDBRANCH  24  25
ENDBRANCH  23  24
ENDBRANCH   2  23
TORSDOF 5
