REMARK  Name = ZINC39966492
REMARK  6 active torsions:
REMARK  status: ('A' for Active; 'I' for Inactive)
REMARK    1  A    between atoms: C_1  and  C_2
REMARK    2  A    between atoms: C_2  and  N_3
REMARK    3  A    between atoms: C_4  and  C_20
REMARK    4  A    between atoms: C_7  and  S_8
REMARK    5  A    between atoms: S_8  and  C_9
REMARK    6  A    between atoms: C_9  and  C_10
REMARK                            x       y       z     vdW  Elec       q    Type
REMARK                         _______ _______ _______ _____ _____    ______ ____
ROOT
ATOM      1  N   UNL     1       0.715  -0.473  -1.500  0.00  0.00    -0.302 N 
ATOM      2  C   UNL     1       0.174  -0.991  -2.653  0.00  0.00    +0.166 A 
ATOM      3  N   UNL     1       1.169  -1.466  -3.366  0.00  0.00    -0.128 NA
ATOM      4  N   UNL     1       2.280  -1.284  -2.746  0.00  0.00    -0.122 NA
ATOM      5  C   UNL     1       2.064  -0.676  -1.603  0.00  0.00    +0.192 A 
ENDROOT
BRANCH   2   6
ATOM      6  C   UNL     1      -1.258  -1.010  -3.021  0.00  0.00    +0.030 A 
ATOM      7  C   UNL     1      -2.191  -1.433  -2.121  0.00  0.00    +0.057 A 
ATOM      8  S   UNL     1      -3.705  -1.255  -3.051  0.00  0.00    -0.101 S 
ATOM      9  C   UNL     1      -2.997  -0.630  -4.553  0.00  0.00    -0.006 A 
ATOM     10  C   UNL     1      -1.666  -0.585  -4.301  0.00  0.00    -0.026 A 
ATOM     11  C   UNL     1      -0.659  -0.119  -5.349  0.00  0.00    +0.036 C 
ATOM     12  C   UNL     1      -1.330   0.839  -6.326  0.00  0.00    +0.005 C 
ATOM     13  C   UNL     1      -1.935   0.075  -7.502  0.00  0.00    +0.001 C 
ATOM     14  C   UNL     1      -3.027  -0.870  -7.008  0.00  0.00    +0.005 C 
ATOM     15  C   UNL     1      -3.715  -0.231  -5.802  0.00  0.00    +0.043 C 
ENDBRANCH   2   6
BRANCH   1  17
ATOM     16  C   UNL     1      -0.005   1.684  -0.600  0.00  0.00    +0.027 C 
ATOM     17  C   UNL     1      -0.002   0.167  -0.395  0.00  0.00    +0.122 C 
ENDBRANCH   1  17
BRANCH   5  18
ATOM     18  S   UNL     1       3.284  -0.212  -0.419  0.00  0.00    -0.077 S 
BRANCH  18  19
ATOM     19  C   UNL     1       4.846  -0.763  -1.159  0.00  0.00    +0.173 C 
BRANCH  19  20
ATOM     20  C   UNL     1       5.987  -0.422  -0.236  0.00  0.00    +0.229 C 
ATOM     21  O   UNL     1       5.769   0.137   0.818  0.00  0.00    -0.275 OA
ATOM     22  N   UNL     1       7.251  -0.739  -0.582  0.00  0.00    -0.270 N 
ATOM     23  C   UNL     1       8.295  -0.520   0.316  0.00  0.00    +0.125 A 
ATOM     24  C   UNL     1       9.578  -0.950  -0.001  0.00  0.00    +0.045 A 
ATOM     25  C   UNL     1      10.605  -0.727   0.898  0.00  0.00    +0.025 A 
ATOM     26  C   UNL     1      10.312  -0.077   2.091  0.00  0.00    +0.059 A 
ATOM     27  C   UNL     1       9.013   0.324   2.341  0.00  0.00    +0.132 A 
ATOM     28  N   UNL     1       8.056   0.101   1.460  0.00  0.00    -0.239 NA
ATOM     29 CL   UNL     1      11.563   0.228   3.255  0.00  0.00    -0.082 Cl
ATOM     30  H   UNL     1       7.434  -1.119  -1.455  0.00  0.00    +0.156 HD
ENDBRANCH  19  20
ENDBRANCH  18  19
ENDBRANCH   5  18
TORSDOF 5
