REMARK  Name = ZINC64538968
REMARK  7 active torsions:
REMARK  status: ('A' for Active; 'I' for Inactive)
REMARK    1  A    between atoms: C_1  and  C_2
REMARK    2  A    between atoms: C_8  and  C_11
REMARK    3  A    between atoms: C_11  and  C_12
REMARK    4  A    between atoms: C_12  and  N_13
REMARK    5  A    between atoms: C_14  and  C_16
REMARK    6  A    between atoms: N_19  and  C_22
REMARK    7  A    between atoms: N_26  and  C_34
REMARK                            x       y       z     vdW  Elec       q    Type
REMARK                         _______ _______ _______ _____ _____    ______ ____
ROOT
ATOM      1  C   UNL     1      -2.534  -2.338   7.783  0.00  0.00    +0.071 C 
ATOM      2  C   UNL     1      -1.698  -3.409   8.490  0.00  0.00    -0.006 C 
ATOM      3  C   UNL     1      -1.765  -3.185  10.002  0.00  0.00    -0.075 C 
ATOM      4  N   UNL     1      -3.159  -3.275  10.453  0.00  0.00    +0.398 N 
ATOM      5  C   UNL     1      -3.952  -2.206   9.834  0.00  0.00    -0.075 C 
ATOM      6  C   UNL     1      -3.970  -2.392   8.315  0.00  0.00    -0.006 C 
ATOM      7  H   UNL     1      -3.540  -4.171  10.188  0.00  0.00    -0.078 HD
ENDROOT
BRANCH   4   8
ATOM      8  C   UNL     1      -3.209  -3.136  11.914  0.00  0.00    +0.105 C 
ATOM      9  C   UNL     1      -4.639  -3.234  12.381  0.00  0.00    +0.224 C 
ATOM     10  O   UNL     1      -5.316  -2.229  12.449  0.00  0.00    -0.275 OA
ATOM     11  N   UNL     1      -5.176  -4.420  12.723  0.00  0.00    -0.258 N 
ATOM     12  C   UNL     1      -4.408  -5.585  12.703  0.00  0.00    +0.148 A 
ATOM     13  C   UNL     1      -3.016  -5.485  12.617  0.00  0.00    +0.067 A 
ATOM     14  C   UNL     1      -2.246  -6.636  12.604  0.00  0.00    +0.028 A 
ATOM     15  C   UNL     1      -2.899  -7.861  12.673  0.00  0.00    +0.022 A 
ATOM     16  C   UNL     1      -4.277  -7.887  12.752  0.00  0.00    +0.113 A 
ATOM     17  N   UNL     1      -4.985  -6.773  12.765  0.00  0.00    -0.238 NA
ATOM     18  N   UNL     1      -2.427  -4.214  12.538  0.00  0.00    -0.346 N 
ATOM     19  C   UNL     1      -6.583  -4.488  13.123  0.00  0.00    +0.140 C 
ATOM     20  H   UNL     1      -1.536  -4.051  12.884  0.00  0.00    +0.145 HD
ENDBRANCH   4   8
BRANCH   1  22
ATOM     21  N   UNL     1      -1.377  -2.600   5.613  0.00  0.00    -0.315 N 
ATOM     22  C   UNL     1      -2.537  -2.599   6.299  0.00  0.00    +0.216 C 
ATOM     23  O   UNL     1      -3.583  -2.808   5.722  0.00  0.00    -0.276 OA
ATOM     24  H   UNL     1      -0.540  -2.433   6.075  0.00  0.00    +0.149 HD
BRANCH  21  25
ATOM     25  C   UNL     1      -1.379  -2.854   4.170  0.00  0.00    +0.108 C 
BRANCH  25  26
ATOM     26  C   UNL     1       0.055  -2.799   3.641  0.00  0.00    +0.052 C 
BRANCH  26  34
ATOM     27  C   UNL     1      -0.018   1.503   0.010  0.00  0.00    +0.044 C 
ATOM     28  C   UNL     1       0.002  -0.004   0.002  0.00  0.00    -0.050 A 
ATOM     29  C   UNL     1       0.005  -0.680  -1.226  0.00  0.00    +0.005 A 
ATOM     30  C   UNL     1       0.023  -2.026  -1.317  0.00  0.00    +0.026 A 
ATOM     31  C   UNL     1       0.039  -2.826  -0.141  0.00  0.00    +0.043 A 
ATOM     32  N   UNL     1       0.057  -4.126   0.030  0.00  0.00    -0.380 N 
ATOM     33  C   UNL     1       0.067  -4.408   1.470  0.00  0.00    +0.144 C 
ATOM     34  C   UNL     1       0.052  -3.060   2.156  0.00  0.00    -0.040 C 
ATOM     35  C   UNL     1       0.036  -2.137   1.168  0.00  0.00    -0.001 A 
ATOM     36  C   UNL     1       0.022  -0.669   1.180  0.00  0.00    +0.013 A 
ATOM     37  H   UNL     1       0.062  -4.790  -0.677  0.00  0.00    +0.160 HD
ENDBRANCH  26  34
ENDBRANCH  25  26
ENDBRANCH  21  25
ENDBRANCH   1  22
TORSDOF 5
