REMARK  Name = ZINC35000150
REMARK  14 active torsions:
REMARK  status: ('A' for Active; 'I' for Inactive)
REMARK    1  A    between atoms: C_1  and  C_2
REMARK    2  A    between atoms: C_2  and  C_3
REMARK    3  A    between atoms: C_3  and  C_4
REMARK    4  A    between atoms: C_4  and  N_5
REMARK    5  A    between atoms: C_13  and  C_15
REMARK    6  A    between atoms: C_16  and  C_18
REMARK    7  A    between atoms: C_18  and  C_20
REMARK    8  A    between atoms: C_18  and  N_31
REMARK    9  A    between atoms: C_20  and  C_21
REMARK   10  A    between atoms: C_32  and  C_34
REMARK   11  A    between atoms: C_34  and  C_35
REMARK   12  A    between atoms: C_35  and  C_36
REMARK   13  A    between atoms: C_35  and  C_37
REMARK   14  A    between atoms: C_35  and  C_38
REMARK                            x       y       z     vdW  Elec       q    Type
REMARK                         _______ _______ _______ _____ _____    ______ ____
ROOT
ATOM      1  C   UNL     1      -8.917  -4.650   1.634  0.00  0.00    +0.163 C 
ENDROOT
BRANCH   1  12
ATOM      2  N   UNL     1      -2.787  -2.571   0.016  0.00  0.00    -0.299 N 
ATOM      3  C   UNL     1      -3.015  -3.899   0.010  0.00  0.00    +0.303 C 
ATOM      4  O   UNL     1      -2.085  -4.675  -0.096  0.00  0.00    -0.253 OA
ATOM      5  N   UNL     1      -4.274  -4.367   0.121  0.00  0.00    -0.280 N 
ATOM      6  C   UNL     1      -5.417  -3.443   0.132  0.00  0.00    +0.128 C 
ATOM      7  C   UNL     1      -6.241  -3.698   1.400  0.00  0.00    +0.127 C 
ATOM      8  N   UNL     1      -6.496  -5.141   1.512  0.00  0.00    -0.297 N 
ATOM      9  C   UNL     1      -5.353  -6.065   1.501  0.00  0.00    +0.130 C 
ATOM     10  C   UNL     1      -4.529  -5.810   0.227  0.00  0.00    +0.092 C 
ATOM     11  C   UNL     1      -5.312  -6.285  -0.999  0.00  0.00    +0.030 C 
ATOM     12  C   UNL     1      -7.755  -5.609   1.623  0.00  0.00    +0.236 C 
ATOM     13  O   UNL     1      -7.953  -6.802   1.715  0.00  0.00    -0.274 OA
ATOM     14  H   UNL     1      -3.533  -1.950   0.027  0.00  0.00    +0.150 HD
BRANCH   2  15
ATOM     15  C   UNL     1      -1.412  -2.064   0.007  0.00  0.00    +0.106 C 
BRANCH  15  16
ATOM     16  C   UNL     1      -1.433  -0.534   0.017  0.00  0.00    +0.018 C 
BRANCH  16  18
ATOM     17  C   UNL     1      -0.018   1.525   0.018  0.00  0.00    +0.004 C 
ATOM     18  C   UNL     1       0.003  -0.004   0.008  0.00  0.00    -0.002 C 
ENDBRANCH  16  18
ENDBRANCH  15  16
ENDBRANCH   2  15
ENDBRANCH   1  12
BRANCH   1  19
ATOM     19  N   UNL     1     -10.086  -5.305   2.226  0.00  0.00    -0.304 N 
ATOM     20  C   UNL     1     -10.590  -6.421   1.663  0.00  0.00    +0.214 C 
ATOM     21  O   UNL     1     -10.076  -6.883   0.666  0.00  0.00    -0.276 OA
ATOM     22  H   UNL     1     -10.497  -4.936   3.023  0.00  0.00    +0.149 HD
BRANCH  20  23
ATOM     23  C   UNL     1     -11.793  -7.095   2.272  0.00  0.00    +0.102 C 
BRANCH  23  24
ATOM     24  C   UNL     1     -12.158  -8.330   1.446  0.00  0.00    -0.029 C 
ATOM     25  C   UNL     1     -10.978  -9.304   1.436  0.00  0.00    +0.011 C 
ATOM     26  C   UNL     1     -13.379  -9.014   2.065  0.00  0.00    +0.011 C 
ATOM     27  C   UNL     1     -12.483  -7.906   0.013  0.00  0.00    +0.011 C 
ENDBRANCH  23  24
ENDBRANCH  20  23
ENDBRANCH   1  19
BRANCH   1  28
ATOM     28  C   UNL     1      -9.242  -4.226   0.200  0.00  0.00    +0.069 C 
BRANCH  28  29
ATOM     29  C   UNL     1     -10.322  -3.175   0.219  0.00  0.00    -0.020 A 
ATOM     30  C   UNL     1     -11.641  -3.382   0.084  0.00  0.00    +0.087 A 
ATOM     31  N   UNL     1     -12.310  -2.191   0.153  0.00  0.00    -0.360 N 
ATOM     32  H   UNL     1     -13.272  -2.087   0.082  0.00  0.00    +0.165 HD
ATOM     33  C   UNL     1     -11.415  -1.161   0.339  0.00  0.00    +0.047 A 
ATOM     34  C   UNL     1     -10.131  -1.733   0.395  0.00  0.00    +0.003 A 
ATOM     35  C   UNL     1      -9.013  -0.918   0.585  0.00  0.00    +0.010 A 
ATOM     36  C   UNL     1      -9.173   0.432   0.719  0.00  0.00    +0.001 A 
ATOM     37  C   UNL     1     -10.438   1.001   0.668  0.00  0.00    +0.002 A 
ATOM     38  C   UNL     1     -11.554   0.216   0.473  0.00  0.00    +0.026 A 
ENDBRANCH  28  29
ENDBRANCH   1  28
TORSDOF 9
