REMARK  Name = ZINC34633921
REMARK  7 active torsions:
REMARK  status: ('A' for Active; 'I' for Inactive)
REMARK    1  A    between atoms: C_1  and  C_2
REMARK    2  A    between atoms: C_2  and  C_4
REMARK    3  A    between atoms: C_6  and  C_18
REMARK    4  A    between atoms: C_12  and  C_13
REMARK    5  A    between atoms: C_12  and  O_17
REMARK    6  A    between atoms: C_20  and  N_25
REMARK    7  A    between atoms: C_23  and  O_24
REMARK                            x       y       z     vdW  Elec       q    Type
REMARK                         _______ _______ _______ _____ _____    ______ ____
ROOT
ATOM      1  C   UNL     1      -1.276  -0.823   0.113  0.00  0.00    +0.139 C 
ATOM      2  C   UNL     1      -0.990  -2.105   0.902  0.00  0.00    +0.123 C 
ATOM      3  N   UNL     1      -0.021  -2.917   0.165  0.00  0.00    -0.292 N 
ATOM      4  C   UNL     1       0.056  -2.867  -1.174  0.00  0.00    +0.302 C 
ATOM      5  O   UNL     1       0.871  -3.570  -1.738  0.00  0.00    -0.253 OA
ATOM      6  N   UNL     1      -0.730  -2.071  -1.914  0.00  0.00    -0.264 N 
ATOM      7  C   UNL     1      -1.742  -1.206  -1.296  0.00  0.00    +0.243 C 
ATOM      8  H   UNL     1       0.577  -3.504   0.653  0.00  0.00    +0.151 HD
ATOM      9  H   UNL     1      -0.628  -2.066  -2.878  0.00  0.00    +0.153 HD
ENDROOT
BRANCH   2  10
ATOM     10  C   UNL     1      -0.426  -1.749   2.254  0.00  0.00    +0.017 A 
ATOM     11  C   UNL     1       0.942  -1.714   2.444  0.00  0.00    +0.041 A 
ATOM     12  C   UNL     1       1.460  -1.388   3.684  0.00  0.00    +0.127 A 
ATOM     13  C   UNL     1       0.612  -1.096   4.736  0.00  0.00    +0.036 A 
ATOM     14  C   UNL     1      -0.757  -1.129   4.550  0.00  0.00    +0.048 A 
ATOM     15  C   UNL     1      -1.279  -1.451   3.306  0.00  0.00    +0.122 A 
BRANCH  12  16
ATOM     16  N   UNL     1       2.926  -1.352   3.885  0.00  0.00    +0.056 N 
ATOM     17  O   UNL     1       3.669  -1.607   2.966  0.00  0.00    -0.126 OA
ATOM     18  O   UNL     1       3.381  -1.066   4.969  0.00  0.00    -0.126 OA
ENDBRANCH  12  16
BRANCH  15  19
ATOM     19  O   UNL     1      -2.625  -1.479   3.119  0.00  0.00    -0.506 OA
ATOM     20  H   UNL     1      -3.029  -2.340   3.296  0.00  0.00    +0.292 HD
ENDBRANCH  15  19
ENDBRANCH   2  10
BRANCH   7  21
ATOM     21  C   UNL     1      -1.925   0.060  -2.136  0.00  0.00    +0.436 C 
ATOM     22  F   UNL     1      -0.683   0.675  -2.328  0.00  0.00    -0.166 F 
ATOM     23  F   UNL     1      -2.474  -0.280  -3.377  0.00  0.00    -0.166 F 
ATOM     24  F   UNL     1      -2.784   0.941  -1.471  0.00  0.00    -0.166 F 
ENDBRANCH   7  21
BRANCH   1  26
ATOM     25  C   UNL     1       0.035   1.364   0.674  0.00  0.00    +0.086 C 
ATOM     26  C   UNL     1      -0.020   0.006   0.022  0.00  0.00    +0.140 C 
ATOM     27  O   UNL     1       0.941  -0.418  -0.573  0.00  0.00    -0.297 OA
ENDBRANCH   1  26
BRANCH   7  28
ATOM     28  O   UNL     1      -2.984  -1.909  -1.213  0.00  0.00    -0.364 OA
ATOM     29  H   UNL     1      -3.338  -2.183  -2.070  0.00  0.00    +0.212 HD
ENDBRANCH   7  28
TORSDOF 6
