REMARK  Name = ZINC14478686
REMARK  7 active torsions:
REMARK  status: ('A' for Active; 'I' for Inactive)
REMARK    1  A    between atoms: C_1  and  C_2
REMARK    2  A    between atoms: C_7  and  C_8
REMARK    3  A    between atoms: C_19  and  S_24
REMARK    4  A    between atoms: S_24  and  N_27
REMARK    5  A    between atoms: N_27  and  C_28
REMARK    6  A    between atoms: C_30  and  C_35
REMARK    7  A    between atoms: C_32  and  C_34
REMARK                            x       y       z     vdW  Elec       q    Type
REMARK                         _______ _______ _______ _____ _____    ______ ____
ROOT
ATOM      1  C   UNL     1       4.898  -1.013   4.856  0.00  0.00    +0.105 C 
ATOM      2  C   UNL     1       6.037  -1.569   3.998  0.00  0.00    +0.029 C 
ATOM      3  C   UNL     1       7.357  -0.911   4.498  0.00  0.00    +0.033 C 
ATOM      4  C   UNL     1       7.367   0.433   3.796  0.00  0.00    -0.030 C 
ATOM      5  C   UNL     1       6.601   0.401   2.732  0.00  0.00    -0.023 C 
ATOM      6  C   UNL     1       5.972  -0.963   2.582  0.00  0.00    +0.049 C 
ATOM      7  C   UNL     1       4.576  -0.866   2.053  0.00  0.00    -0.018 A 
ATOM      8  C   UNL     1       4.393  -0.584   0.706  0.00  0.00    +0.034 A 
ATOM      9  C   UNL     1       3.122  -0.485   0.177  0.00  0.00    +0.109 A 
ATOM     10  C   UNL     1       2.014  -0.677   0.983  0.00  0.00    +0.030 A 
ATOM     11  C   UNL     1       2.184  -0.961   2.323  0.00  0.00    +0.025 A 
ATOM     12  C   UNL     1       3.463  -1.055   2.857  0.00  0.00    +0.031 A 
ATOM     13  N   UNL     1       3.619  -1.340   4.218  0.00  0.00    -0.336 N 
ATOM     14  H   UNL     1       2.898  -1.743   4.727  0.00  0.00    +0.147 HD
ENDROOT
BRANCH   1  21
ATOM     15  C   UNL     1       6.197   0.145   7.162  0.00  0.00    +0.044 C 
ATOM     16  C   UNL     1       5.658   1.037   6.074  0.00  0.00    -0.045 A 
ATOM     17  C   UNL     1       5.789   2.410   6.178  0.00  0.00    +0.004 A 
ATOM     18  C   UNL     1       5.290   3.228   5.182  0.00  0.00    +0.000 A 
ATOM     19  C   UNL     1       4.664   2.675   4.081  0.00  0.00    +0.000 A 
ATOM     20  C   UNL     1       4.537   1.302   3.976  0.00  0.00    +0.006 A 
ATOM     21  C   UNL     1       5.036   0.483   4.971  0.00  0.00    -0.024 A 
ENDBRANCH   1  21
BRANCH   9  22
ATOM     22  S   UNL     1       2.910  -0.121  -1.534  0.00  0.00    +0.072 S 
ATOM     23  O   UNL     1       1.589  -0.518  -1.873  0.00  0.00    -0.150 OA
ATOM     24  O   UNL     1       4.054  -0.633  -2.203  0.00  0.00    -0.150 OA
BRANCH  22  25
ATOM     25  N   UNL     1       2.966   1.526  -1.694  0.00  0.00    -0.216 N 
ATOM     26  H   UNL     1       3.685   1.940  -2.196  0.00  0.00    +0.174 HD
BRANCH  25  27
ATOM     27  C   UNL     1       1.980   2.319  -1.102  0.00  0.00    +0.049 A 
ATOM     28  C   UNL     1       0.640   1.977  -1.233  0.00  0.00    +0.028 A 
ATOM     29  C   UNL     1      -0.331   2.761  -0.642  0.00  0.00    -0.048 A 
ATOM     30  C   UNL     1       0.028   3.891   0.070  0.00  0.00    +0.006 A 
ATOM     31  C   UNL     1       1.361   4.237   0.198  0.00  0.00    -0.048 A 
ATOM     32  C   UNL     1       2.338   3.455  -0.386  0.00  0.00    +0.028 A 
ATOM     33  C   UNL     1       1.748   5.469   0.974  0.00  0.00    +0.044 C 
ATOM     34  C   UNL     1      -1.785   2.388  -0.778  0.00  0.00    +0.044 C 
ENDBRANCH  25  27
ENDBRANCH  22  25
ENDBRANCH   9  22
TORSDOF 4
