REMARK  Name = ZINC12777725
REMARK  14 active torsions:
REMARK  status: ('A' for Active; 'I' for Inactive)
REMARK    1  A    between atoms: C_1  and  C_2
REMARK    2  A    between atoms: C_2  and  C_3
REMARK    3  A    between atoms: C_6  and  C_9
REMARK    4  A    between atoms: C_9  and  C_11
REMARK    5  A    between atoms: C_9  and  N_71
REMARK    6  A    between atoms: C_11  and  N_12
REMARK    7  A    between atoms: C_13  and  C_15
REMARK    8  A    between atoms: C_15  and  C_16
REMARK    9  A    between atoms: C_16  and  C_17
REMARK   10  A    between atoms: N_20  and  C_28
REMARK   11  A    between atoms: C_31  and  O_34
REMARK   12  A    between atoms: O_34  and  C_35
REMARK   13  A    between atoms: C_36  and  N_71
REMARK   14  A    between atoms: C_37  and  N_71
REMARK                            x       y       z     vdW  Elec       q    Type
REMARK                         _______ _______ _______ _____ _____    ______ ____
ROOT
ATOM      1  C   UNL     1      -3.187   0.590  -2.662  0.00  0.00    +0.070 C 
ENDROOT
BRANCH   1   2
ATOM      2  C   UNL     1      -4.324  -0.398  -2.702  0.00  0.00    +0.107 A 
ATOM      3  C   UNL     1      -5.673   0.056  -3.053  0.00  0.00    +0.278 A 
ATOM      4  O   UNL     1      -5.881   1.228  -3.313  0.00  0.00    -0.265 OA
ATOM      5  N   UNL     1      -6.683  -0.841  -3.085  0.00  0.00    -0.274 N 
ATOM      6  C   UNL     1      -6.413  -2.162  -2.786  0.00  0.00    +0.075 A 
ATOM      7  C   UNL     1      -7.432  -3.110  -2.810  0.00  0.00    +0.028 A 
ATOM      8  C   UNL     1      -7.151  -4.425  -2.509  0.00  0.00    +0.002 A 
ATOM      9  C   UNL     1      -5.858  -4.813  -2.181  0.00  0.00    +0.002 A 
ATOM     10  C   UNL     1      -4.845  -3.901  -2.151  0.00  0.00    +0.030 A 
ATOM     11  C   UNL     1      -5.104  -2.554  -2.454  0.00  0.00    +0.088 A 
ATOM     12  N   UNL     1      -4.104  -1.652  -2.430  0.00  0.00    -0.245 NA
BRANCH   5  13
ATOM     13  C   UNL     1      -7.982  -0.437  -3.418  0.00  0.00    +0.050 A 
ATOM     14  C   UNL     1      -8.538  -0.818  -4.632  0.00  0.00    +0.030 A 
ATOM     15  C   UNL     1      -9.821  -0.425  -4.957  0.00  0.00    +0.047 A 
ATOM     16  C   UNL     1     -10.550   0.361  -4.075  0.00  0.00    +0.120 A 
ATOM     17  C   UNL     1      -9.993   0.746  -2.864  0.00  0.00    +0.047 A 
ATOM     18  C   UNL     1      -8.712   0.349  -2.536  0.00  0.00    +0.030 A 
BRANCH  16  19
ATOM     19  O   UNL     1     -11.811   0.753  -4.398  0.00  0.00    -0.495 OA
ATOM     20  C   UNL     1     -12.322   0.320  -5.660  0.00  0.00    +0.277 C 
ENDBRANCH  16  19
ENDBRANCH   5  13
ENDBRANCH   1   2
BRANCH   1  21
ATOM     21  C   UNL     1      -1.896  -0.134  -2.272  0.00  0.00    +0.102 C 
BRANCH  21  23
ATOM     22  N   UNL     1       0.482   0.440  -1.909  0.00  0.00    -0.317 N 
ATOM     23  C   UNL     1      -0.759   0.854  -2.231  0.00  0.00    +0.213 C 
ATOM     24  O   UNL     1      -0.960   2.022  -2.489  0.00  0.00    -0.276 OA
ATOM     25  H   UNL     1       0.643  -0.495  -1.703  0.00  0.00    +0.149 HD
BRANCH  22  26
ATOM     26  C   UNL     1       1.589   1.399  -1.876  0.00  0.00    +0.093 C 
BRANCH  26  27
ATOM     27  C   UNL     1       2.851   0.703  -1.360  0.00  0.00    -0.021 C 
BRANCH  27  31
ATOM     28  C   UNL     1       2.225  -0.581   2.666  0.00  0.00    -0.048 A 
ATOM     29  C   UNL     1       2.110  -1.485   1.626  0.00  0.00    +0.004 A 
ATOM     30  C   UNL     1       2.313  -1.069   0.323  0.00  0.00    +0.002 A 
ATOM     31  C   UNL     1       2.630   0.250   0.060  0.00  0.00    -0.059 A 
ATOM     32  C   UNL     1       2.750   1.153   1.100  0.00  0.00    +0.002 A 
ATOM     33  C   UNL     1       2.543   0.738   2.403  0.00  0.00    +0.004 A 
BRANCH  28  35
ATOM     34  C   UNL     1       3.334  -1.502   4.684  0.00  0.00    +0.009 C 
ATOM     35  C   UNL     1       2.005  -1.034   4.086  0.00  0.00    +0.032 C 
ENDBRANCH  28  35
ENDBRANCH  27  31
BRANCH  27  38
ATOM     36  C   UNL     1       5.218   0.999  -0.943  0.00  0.00    -0.096 C 
ATOM     37  C   UNL     1       4.148   2.200  -2.753  0.00  0.00    -0.096 C 
ATOM     38  N   UNL     1       3.974   1.664  -1.387  0.00  0.00    +0.382 N 
ATOM     39  H   UNL     1       3.765   2.440  -0.748  0.00  0.00    -0.082 HD
ENDBRANCH  27  38
ENDBRANCH  26  27
ENDBRANCH  22  26
ENDBRANCH  21  23
ENDBRANCH   1  21
TORSDOF 10
