REMARK  Name = ZINC12150414
REMARK  11 active torsions:
REMARK  status: ('A' for Active; 'I' for Inactive)
REMARK    1  A    between atoms: C_1  and  C_2
REMARK    2  A    between atoms: C_4  and  C_11
REMARK    3  A    between atoms: C_5  and  C_10
REMARK    4  A    between atoms: C_7  and  O_8
REMARK    5  A    between atoms: O_8  and  C_9
REMARK    6  A    between atoms: C_11  and  N_72
REMARK    7  A    between atoms: C_14  and  C_17
REMARK    8  A    between atoms: C_14  and  O_36
REMARK    9  A    between atoms: C_24  and  C_26
REMARK   10  A    between atoms: N_28  and  C_29
REMARK   11  A    between atoms: C_29  and  C_30
REMARK                            x       y       z     vdW  Elec       q    Type
REMARK                         _______ _______ _______ _____ _____    ______ ____
ROOT
ATOM      1  C   UNL     1     -14.920   2.229   1.732  0.00  0.00    -0.075 C 
ATOM      2  C   UNL     1     -13.392   2.203   1.659  0.00  0.00    +0.021 C 
ATOM      3  C   UNL     1     -12.960   1.819   0.241  0.00  0.00    +0.088 C 
ATOM      4  C   UNL     1     -13.557   2.819  -0.754  0.00  0.00    +0.021 C 
ATOM      5  C   UNL     1     -15.081   2.826  -0.611  0.00  0.00    -0.075 C 
ATOM      6  N   UNL     1     -15.431   3.227   0.768  0.00  0.00    +0.383 N 
ATOM      7  H   UNL     1     -14.999   4.136   0.971  0.00  0.00    -0.081 HD
ENDROOT
BRANCH   3   8
ATOM      8  C   UNL     1     -11.457   1.851   0.146  0.00  0.00    -0.015 A 
ATOM      9  C   UNL     1     -10.734   2.730   0.941  0.00  0.00    +0.010 A 
ATOM     10  C   UNL     1      -9.359   2.776   0.871  0.00  0.00    +0.047 A 
ATOM     11  C   UNL     1      -8.682   1.934  -0.005  0.00  0.00    +0.136 A 
ATOM     12  C   UNL     1      -9.420   1.045  -0.808  0.00  0.00    +0.021 A 
ATOM     13  C   UNL     1     -10.814   1.014  -0.722  0.00  0.00    +0.018 A 
ATOM     14  C   UNL     1      -8.431   0.315  -1.601  0.00  0.00    +0.063 A 
ATOM     15  C   UNL     1      -7.218   0.800  -1.230  0.00  0.00    +0.190 A 
ATOM     16  O   UNL     1      -7.377   1.750  -0.285  0.00  0.00    -0.450 OA
BRANCH  15  17
ATOM     17  C   UNL     1      -5.927   0.354  -1.772  0.00  0.00    +0.279 C 
ATOM     18  O   UNL     1      -5.892  -0.516  -2.622  0.00  0.00    -0.267 OA
ATOM     19  N   UNL     1      -4.782   0.909  -1.328  0.00  0.00    -0.306 N 
ATOM     20  H   UNL     1      -4.810   1.603  -0.651  0.00  0.00    +0.149 HD
BRANCH  19  21
ATOM     21  C   UNL     1      -3.495   0.464  -1.868  0.00  0.00    +0.136 C 
BRANCH  21  22
ATOM     22  C   UNL     1      -2.363   1.248  -1.200  0.00  0.00    +0.135 C 
ATOM     23  C   UNL     1      -1.015   0.878  -1.849  0.00  0.00    +0.035 C 
ATOM     24  C   UNL     1      -0.164   0.338  -0.674  0.00  0.00    +0.031 C 
ATOM     25  C   UNL     1      -0.882   0.949   0.556  0.00  0.00    +0.160 C 
ATOM     26  O   UNL     1      -2.279   0.895   0.191  0.00  0.00    -0.375 OA
ENDBRANCH  21  22
ENDBRANCH  19  21
ENDBRANCH  15  17
ENDBRANCH   3   8
BRANCH   3  27
ATOM     27  O   UNL     1     -13.430   0.504  -0.062  0.00  0.00    -0.384 OA
ATOM     28  H   UNL     1     -13.194   0.196  -0.947  0.00  0.00    +0.211 HD
ENDBRANCH   3  27
BRANCH   6  29
ATOM     29  C   UNL     1     -16.897   3.352   0.901  0.00  0.00    -0.043 C 
BRANCH  29  33
ATOM     30  C   UNL     1     -19.352   4.056  -3.402  0.00  0.00    +0.047 C 
ATOM     31  C   UNL     1     -18.584   4.614  -2.231  0.00  0.00    -0.009 A 
ATOM     32  C   UNL     1     -18.114   3.767  -1.246  0.00  0.00    +0.009 A 
ATOM     33  C   UNL     1     -17.409   4.278  -0.172  0.00  0.00    -0.061 A 
ATOM     34  C   UNL     1     -17.179   5.639  -0.077  0.00  0.00    -0.046 A 
ATOM     35  C   UNL     1     -17.642   6.489  -1.062  0.00  0.00    +0.049 A 
ATOM     36  C   UNL     1     -18.350   5.978  -2.141  0.00  0.00    +0.123 A 
ATOM     37  C   UNL     1     -16.416   6.193   1.098  0.00  0.00    +0.044 C 
BRANCH  36  38
ATOM     38  O   UNL     1     -18.811   6.813  -3.109  0.00  0.00    -0.495 OA
ATOM     39  C   UNL     1     -18.533   8.206  -2.951  0.00  0.00    +0.277 C 
ENDBRANCH  36  38
ENDBRANCH  29  33
ENDBRANCH   6  29
TORSDOF 8
