REMARK  Name = ZINC14276558
REMARK  13 active torsions:
REMARK  status: ('A' for Active; 'I' for Inactive)
REMARK    1  A    between atoms: C_1  and  C_2
REMARK    2  A    between atoms: C_2  and  C_3
REMARK    3  A    between atoms: C_2  and  C_4
REMARK    4  A    between atoms: C_7  and  C_10
REMARK    5  A    between atoms: C_11  and  C_12
REMARK    6  A    between atoms: N_14  and  C_15
REMARK    7  A    between atoms: C_15  and  N_17
REMARK    8  A    between atoms: N_17  and  C_18
REMARK    9  A    between atoms: C_19  and  C_32
REMARK   10  A    between atoms: C_24  and  C_28
REMARK   11  A    between atoms: C_28  and  C_29
REMARK   12  A    between atoms: C_28  and  C_30
REMARK   13  A    between atoms: C_28  and  C_31
REMARK                            x       y       z     vdW  Elec       q    Type
REMARK                         _______ _______ _______ _____ _____    ______ ____
ROOT
ATOM      1  N   UNL     1      -1.438  -0.889   2.497  0.00  0.00    -0.291 N 
ATOM      2  H   UNL     1      -0.615  -0.402   2.655  0.00  0.00    +0.154 HD
ENDROOT
BRANCH   1   3
ATOM      3  C   UNL     1      -1.865  -1.129   1.201  0.00  0.00    +0.084 A 
ATOM      4  C   UNL     1      -1.257  -0.754   0.010  0.00  0.00    +0.068 A 
ATOM      5  C   UNL     1      -1.919  -1.128  -1.228  0.00  0.00    -0.023 A 
ATOM      6  C   UNL     1      -3.070  -1.820  -1.079  0.00  0.00    -0.004 A 
ATOM      7  S   UNL     1      -3.285  -1.968   0.672  0.00  0.00    -0.077 S 
ATOM      8  C   UNL     1      -3.960  -2.337  -2.166  0.00  0.00    +0.046 C 
ATOM      9  C   UNL     1      -3.567  -1.649  -3.482  0.00  0.00    -0.000 C 
ATOM     10  C   UNL     1      -2.045  -1.716  -3.638  0.00  0.00    +0.009 C 
ATOM     11  C   UNL     1      -1.376  -0.798  -2.613  0.00  0.00    +0.037 C 
BRANCH   4  12
ATOM     12  C   UNL     1       0.002  -0.004   0.002  0.00  0.00    +0.244 C 
ATOM     13  O   UNL     1       1.064  -0.598  -0.011  0.00  0.00    -0.270 OA
ATOM     14  N   UNL     1      -0.016   1.344   0.009  0.00  0.00    -0.325 N 
ATOM     15  H   UNL     1       0.817   1.840   0.004  0.00  0.00    +0.145 HD
ATOM     16  H   UNL     1      -0.863   1.817   0.016  0.00  0.00    +0.145 HD
ENDBRANCH   4  12
BRANCH   9  17
ATOM     17  C   UNL     1      -4.235  -2.368  -4.656  0.00  0.00    -0.035 C 
ATOM     18  C   UNL     1      -5.755  -2.314  -4.489  0.00  0.00    +0.011 C 
ATOM     19  C   UNL     1      -3.842  -1.680  -5.965  0.00  0.00    +0.011 C 
ATOM     20  C   UNL     1      -3.777  -3.827  -4.688  0.00  0.00    +0.011 C 
ENDBRANCH   9  17
ENDBRANCH   1   3
BRANCH   1  21
ATOM     21  C   UNL     1      -2.168  -1.335   3.539  0.00  0.00    +0.141 C 
ATOM     22  S   UNL     1      -3.621  -2.196   3.261  0.00  0.00    -0.018 S 
BRANCH  21  25
ATOM     23  C   UNL     1      -2.482  -1.547   5.843  0.00  0.00    +0.242 C 
ATOM     24  O   UNL     1      -3.515  -2.159   5.645  0.00  0.00    -0.270 OA
ATOM     25  N   UNL     1      -1.753  -1.102   4.800  0.00  0.00    -0.264 N 
ATOM     26  H   UNL     1      -0.929  -0.614   4.958  0.00  0.00    +0.157 HD
BRANCH  23  28
ATOM     27  C   UNL     1      -2.762  -1.740   8.255  0.00  0.00    +0.013 C 
ATOM     28  C   UNL     1      -2.032  -1.295   7.212  0.00  0.00    +0.068 C 
BRANCH  27  32
ATOM     29  C   UNL     1      -1.456  -1.009  12.224  0.00  0.00    -0.045 A 
ATOM     30  C   UNL     1      -2.632  -1.705  12.003  0.00  0.00    +0.004 A 
ATOM     31  C   UNL     1      -3.063  -1.947  10.716  0.00  0.00    +0.008 A 
ATOM     32  C   UNL     1      -2.309  -1.486   9.632  0.00  0.00    -0.025 A 
ATOM     33  C   UNL     1      -1.119  -0.788   9.863  0.00  0.00    +0.008 A 
ATOM     34  C   UNL     1      -0.705  -0.550  11.156  0.00  0.00    +0.004 A 
BRANCH  29  36
ATOM     35  C   UNL     1       0.382  -1.389  13.844  0.00  0.00    +0.012 C 
ATOM     36  C   UNL     1      -0.992  -0.750  13.634  0.00  0.00    +0.013 C 
ATOM     37  C   UNL     1      -0.894   0.759  13.869  0.00  0.00    +0.012 C 
ENDBRANCH  29  36
ENDBRANCH  27  32
ENDBRANCH  23  28
ENDBRANCH  21  25
ENDBRANCH   1  21
TORSDOF 8
