REMARK  Name = ZINC39969573
REMARK  6 active torsions:
REMARK  status: ('A' for Active; 'I' for Inactive)
REMARK    1  A    between atoms: C_1  and  C_2
REMARK    2  A    between atoms: C_2  and  N_3
REMARK    3  A    between atoms: C_4  and  C_28
REMARK    4  A    between atoms: C_7  and  S_8
REMARK    5  A    between atoms: S_8  and  C_9
REMARK    6  A    between atoms: C_11  and  C_22
REMARK                            x       y       z     vdW  Elec       q    Type
REMARK                         _______ _______ _______ _____ _____    ______ ____
ROOT
ATOM      1  C   UNL     1       4.717  -0.894  -0.831  0.00  0.00    +0.171 C 
ATOM      2  C   UNL     1       5.886  -1.144   0.103  0.00  0.00    -0.009 C 
ATOM      3  C   UNL     1       7.085  -0.489  -0.191  0.00  0.00    +0.003 A 
ATOM      4  C   UNL     1       8.222  -0.666   0.626  0.00  0.00    +0.030 A 
ATOM      5  C   UNL     1       9.377  -0.016   0.316  0.00  0.00    +0.042 A 
ATOM      6  C   UNL     1       9.461   0.824  -0.793  0.00  0.00    +0.022 A 
ATOM      7  C   UNL     1       8.397   1.034  -1.617  0.00  0.00    +0.025 A 
ATOM      8  C   UNL     1       7.172   0.394  -1.359  0.00  0.00    +0.041 A 
ATOM      9  N   UNL     1       6.129   0.601  -2.170  0.00  0.00    -0.284 N 
ATOM     10  C   UNL     1       4.949   0.040  -1.996  0.00  0.00    +0.235 C 
ATOM     11  O   UNL     1       4.044   0.275  -2.776  0.00  0.00    -0.274 OA
ATOM     12 CL   UNL     1      10.773  -0.236   1.324  0.00  0.00    -0.084 Cl
ATOM     13  H   UNL     1       6.247   1.195  -2.928  0.00  0.00    +0.155 HD
ENDROOT
BRANCH   2  14
ATOM     14  C   UNL     1       5.767  -2.004   1.225  0.00  0.00    -0.020 A 
ATOM     15  C   UNL     1       5.894  -1.490   2.526  0.00  0.00    +0.008 A 
ATOM     16  C   UNL     1       5.777  -2.334   3.608  0.00  0.00    +0.001 A 
ATOM     17  C   UNL     1       5.535  -3.684   3.417  0.00  0.00    +0.000 A 
ATOM     18  C   UNL     1       5.408  -4.201   2.138  0.00  0.00    +0.001 A 
ATOM     19  C   UNL     1       5.516  -3.374   1.042  0.00  0.00    +0.008 A 
ENDBRANCH   2  14
BRANCH   1  20
ATOM     20  S   UNL     1       3.349  -0.226   0.156  0.00  0.00    -0.068 S 
BRANCH  20  25
ATOM     21  N   UNL     1       0.714   0.199  -0.683  0.00  0.00    -0.306 N 
ATOM     22  C   UNL     1       0.007   0.025  -1.841  0.00  0.00    +0.137 A 
ATOM     23  N   UNL     1       0.827  -0.470  -2.725  0.00  0.00    -0.133 NA
ATOM     24  N   UNL     1       1.995  -0.620  -2.208  0.00  0.00    -0.122 NA
ATOM     25  C   UNL     1       1.984  -0.220  -0.958  0.00  0.00    +0.193 A 
BRANCH  22  26
ATOM     26  C   UNL     1      -1.449   0.345  -2.055  0.00  0.00    +0.057 C 
ATOM     27  C   UNL     1      -2.088  -0.115  -3.367  0.00  0.00    +0.012 C 
ATOM     28  C   UNL     1      -1.796   1.369  -3.138  0.00  0.00    +0.012 C 
ENDBRANCH  22  26
BRANCH  21  30
ATOM     29  C   UNL     1       0.388   2.250   0.609  0.00  0.00    +0.027 C 
ATOM     30  C   UNL     1       0.213   0.730   0.587  0.00  0.00    +0.122 C 
ENDBRANCH  21  30
ENDBRANCH  20  25
ENDBRANCH   1  20
TORSDOF 5
