REMARK  Name = ZINC09515546
REMARK  10 active torsions:
REMARK  status: ('A' for Active; 'I' for Inactive)
REMARK    1  A    between atoms: C_1  and  C_2
REMARK    2  A    between atoms: C_2  and  N_3
REMARK    3  A    between atoms: C_4  and  C_20
REMARK    4  A    between atoms: C_7  and  S_8
REMARK    5  A    between atoms: S_8  and  C_9
REMARK    6  A    between atoms: C_9  and  C_10
REMARK    7  A    between atoms: N_12  and  C_13
REMARK    8  A    between atoms: C_13  and  C_18
REMARK    9  A    between atoms: C_22  and  C_30
REMARK   10  A    between atoms: C_33  and  C_36
REMARK                            x       y       z     vdW  Elec       q    Type
REMARK                         _______ _______ _______ _____ _____    ______ ____
ROOT
ATOM      1  N   UNL     1      -2.310  -3.358  -0.155  0.00  0.00    -0.302 N 
ATOM      2  C   UNL     1      -1.594  -4.534  -0.156  0.00  0.00    +0.166 A 
ATOM      3  N   UNL     1      -0.334  -4.218   0.049  0.00  0.00    -0.128 NA
ATOM      4  N   UNL     1      -0.216  -2.944   0.170  0.00  0.00    -0.122 NA
ATOM      5  C   UNL     1      -1.395  -2.369   0.059  0.00  0.00    +0.192 A 
ENDROOT
BRANCH   2   6
ATOM      6  C   UNL     1      -2.137  -5.891  -0.349  0.00  0.00    +0.030 A 
ATOM      7  C   UNL     1      -3.249  -6.333   0.361  0.00  0.00    +0.040 A 
ATOM      8  C   UNL     1      -3.733  -7.626   0.142  0.00  0.00    +0.072 A 
ATOM      9  N   UNL     1      -3.167  -8.457  -0.712  0.00  0.00    -0.247 NA
ATOM     10  C   UNL     1      -2.093  -8.119  -1.431  0.00  0.00    +0.072 A 
ATOM     11  C   UNL     1      -1.524  -6.830  -1.291  0.00  0.00    +0.011 A 
ATOM     12  C   UNL     1      -0.400  -6.479  -2.045  0.00  0.00    +0.011 A 
ATOM     13  C   UNL     1       0.139  -7.384  -2.912  0.00  0.00    +0.001 A 
ATOM     14  C   UNL     1      -0.416  -8.653  -3.054  0.00  0.00    +0.002 A 
ATOM     15  C   UNL     1      -1.510  -9.026  -2.334  0.00  0.00    +0.028 A 
BRANCH   8  16
ATOM     16  C   UNL     1      -4.923  -8.082   0.901  0.00  0.00    +0.000 A 
ATOM     17  C   UNL     1      -5.539  -7.229   1.815  0.00  0.00    +0.010 A 
ATOM     18  C   UNL     1      -6.649  -7.657   2.514  0.00  0.00    +0.004 A 
ATOM     19  C   UNL     1      -7.144  -8.934   2.318  0.00  0.00    -0.050 A 
ATOM     20  C   UNL     1      -6.532  -9.787   1.417  0.00  0.00    +0.004 A 
ATOM     21  C   UNL     1      -5.425  -9.368   0.708  0.00  0.00    +0.010 A 
ATOM     22  C   UNL     1      -8.352  -9.398   3.089  0.00  0.00    +0.044 C 
ENDBRANCH   8  16
ENDBRANCH   2   6
BRANCH   1  24
ATOM     23  C   UNL     1      -4.063  -3.094  -1.840  0.00  0.00    +0.027 C 
ATOM     24  C   UNL     1      -3.754  -3.201  -0.345  0.00  0.00    +0.122 C 
ENDBRANCH   1  24
BRANCH   5  25
ATOM     25  S   UNL     1      -1.728  -0.641   0.160  0.00  0.00    -0.077 S 
BRANCH  25  26
ATOM     26  C   UNL     1      -0.054  -0.015   0.450  0.00  0.00    +0.173 C 
BRANCH  26  27
ATOM     27  C   UNL     1      -0.094   1.486   0.573  0.00  0.00    +0.224 C 
ATOM     28  O   UNL     1      -1.149   2.075   0.470  0.00  0.00    -0.275 OA
ATOM     29  N   UNL     1       1.044   2.175   0.792  0.00  0.00    -0.297 N 
ATOM     30  H   UNL     1       1.888   1.704   0.871  0.00  0.00    +0.150 HD
BRANCH  29  31
ATOM     31  C   UNL     1       1.005   3.634   0.912  0.00  0.00    +0.121 C 
ATOM     32  C   UNL     1       0.497   4.259  -0.404  0.00  0.00    +0.041 C 
ATOM     33  C   UNL     1       1.335   5.554  -0.556  0.00  0.00    +0.003 C 
ATOM     34  C   UNL     1       2.731   5.121  -0.043  0.00  0.00    +0.003 C 
ATOM     35  C   UNL     1       2.425   4.182   1.141  0.00  0.00    +0.041 C 
BRANCH  31  36
ATOM     36  C   UNL     1       0.127   4.025   2.027  0.00  0.00    +0.088 C 
ATOM     37  N   UNL     1      -0.550   4.327   2.888  0.00  0.00    -0.194 NA
ENDBRANCH  31  36
ENDBRANCH  29  31
ENDBRANCH  26  27
ENDBRANCH  25  26
ENDBRANCH   5  25
TORSDOF 8
