REMARK  Name = ZINC39302148
REMARK  8 active torsions:
REMARK  status: ('A' for Active; 'I' for Inactive)
REMARK    1  A    between atoms: C_1  and  C_2
REMARK    2  A    between atoms: C_2  and  C_3
REMARK    3  A    between atoms: C_8  and  N_9
REMARK    4  A    between atoms: C_10  and  C_31
REMARK    5  A    between atoms: C_12  and  C_15
REMARK    6  A    between atoms: N_17  and  C_18
REMARK    7  A    between atoms: C_18  and  C_19
REMARK    8  A    between atoms: C_19  and  N_20
REMARK                            x       y       z     vdW  Elec       q    Type
REMARK                         _______ _______ _______ _____ _____    ______ ____
ROOT
ATOM      1  N   UNL     1       3.041  -0.204  -0.238  0.00  0.00    -0.234 N 
ATOM      2  C   UNL     1       3.662  -1.146   0.569  0.00  0.00    +0.055 C 
ATOM      3  C   UNL     1       4.041  -0.615   1.731  0.00  0.00    +0.028 C 
ATOM      4  C   UNL     1       3.628   0.841   1.697  0.00  0.00    +0.183 C 
ATOM      5  N   UNL     1       2.992   1.014   0.377  0.00  0.00    -0.220 NA
ATOM      6  H   UNL     1       3.472   1.714  -0.169  0.00  0.00    +0.146 HD
ENDROOT
BRANCH   2   7
ATOM      7  C   UNL     1       3.877  -2.561   0.189  0.00  0.00    +0.001 A 
ATOM      8  C   UNL     1       5.125  -3.154   0.376  0.00  0.00    +0.013 A 
ATOM      9  C   UNL     1       5.323  -4.471   0.020  0.00  0.00    +0.050 A 
ATOM     10  C   UNL     1       4.283  -5.212  -0.525  0.00  0.00    +0.162 A 
ATOM     11  C   UNL     1       3.035  -4.627  -0.712  0.00  0.00    +0.163 A 
ATOM     12  C   UNL     1       2.830  -3.306  -0.353  0.00  0.00    +0.059 A 
ATOM     13  O   UNL     1       2.002  -5.342  -1.237  0.00  0.00    -0.485 OA
ATOM     14  C   UNL     1       2.340  -6.551  -1.925  0.00  0.00    +0.270 C 
ATOM     15  C   UNL     1       3.343  -7.330  -1.062  0.00  0.00    +0.270 C 
ATOM     16  O   UNL     1       4.502  -6.510  -0.872  0.00  0.00    -0.485 OA
ENDBRANCH   2   7
BRANCH   1  22
ATOM     17  C   UNL     1       1.200  -0.220  -1.800  0.00  0.00    -0.025 A 
ATOM     18  C   UNL     1       0.707  -0.475  -3.064  0.00  0.00    +0.005 A 
ATOM     19  C   UNL     1       1.541  -0.979  -4.045  0.00  0.00    +0.000 A 
ATOM     20  C   UNL     1       2.872  -1.229  -3.764  0.00  0.00    +0.002 A 
ATOM     21  C   UNL     1       3.372  -0.978  -2.501  0.00  0.00    +0.025 A 
ATOM     22  C   UNL     1       2.537  -0.466  -1.515  0.00  0.00    +0.053 A 
BRANCH  17  24
ATOM     23  C   UNL     1       0.410   1.854  -0.694  0.00  0.00    +0.009 C 
ATOM     24  C   UNL     1       0.290   0.329  -0.731  0.00  0.00    +0.033 C 
ENDBRANCH  17  24
ENDBRANCH   1  22
BRANCH   4  25
ATOM     25  C   UNL     1       2.648   1.136   2.804  0.00  0.00    +0.236 C 
ATOM     26  O   UNL     1       1.530   1.522   2.537  0.00  0.00    -0.274 OA
ATOM     27  N   UNL     1       3.014   0.970   4.090  0.00  0.00    -0.312 N 
ATOM     28  H   UNL     1       3.909   0.662   4.304  0.00  0.00    +0.149 HD
BRANCH  27  29
ATOM     29  C   UNL     1       2.062   1.257   5.166  0.00  0.00    +0.126 C 
BRANCH  29  30
ATOM     30  C   UNL     1       2.725   0.989   6.519  0.00  0.00    +0.145 C 
BRANCH  30  31
ATOM     31  N   UNL     1       1.772   1.276   7.594  0.00  0.00    -0.291 N 
ATOM     32  C   UNL     1       1.599   2.506   8.224  0.00  0.00    +0.070 A 
ATOM     33  C   UNL     1       2.199   3.747   8.069  0.00  0.00    +0.028 A 
ATOM     34  C   UNL     1       1.803   4.806   8.863  0.00  0.00    +0.002 A 
ATOM     35  C   UNL     1       0.810   4.633   9.812  0.00  0.00    +0.002 A 
ATOM     36  C   UNL     1       0.207   3.401   9.973  0.00  0.00    +0.028 A 
ATOM     37  C   UNL     1       0.597   2.333   9.180  0.00  0.00    +0.067 A 
ATOM     38  N   UNL     1       0.192   1.002   9.103  0.00  0.00    -0.306 N 
ATOM     39  H   UNL     1      -0.493   0.585   9.647  0.00  0.00    +0.170 HD
ATOM     40  C   UNL     1       0.911   0.396   8.139  0.00  0.00    +0.328 A 
ATOM     41  O   UNL     1       0.801  -0.771   7.812  0.00  0.00    -0.247 OA
ENDBRANCH  30  31
ENDBRANCH  29  30
ENDBRANCH  27  29
ENDBRANCH   4  25
TORSDOF 7
