REMARK  Name = ZINC33281625
REMARK  6 active torsions:
REMARK  status: ('A' for Active; 'I' for Inactive)
REMARK    1  A    between atoms: C_6  and  C_7
REMARK    2  A    between atoms: C_7  and  C_8
REMARK    3  A    between atoms: C_10  and  C_13
REMARK    4  A    between atoms: C_13  and  N_14
REMARK    5  A    between atoms: C_16  and  S_19
REMARK    6  A    between atoms: S_19  and  N_22
REMARK                            x       y       z     vdW  Elec       q    Type
REMARK                         _______ _______ _______ _____ _____    ______ ____
ROOT
ATOM      1  C   UNL     1       3.521   0.638  -0.029  0.00  0.00    +0.202 C 
ENDROOT
BRANCH   1   4
ATOM      2  C   UNL     1       4.672   1.262  -3.365  0.00  0.00    +0.232 A 
ATOM      3  N   UNL     1       4.281   1.724  -2.202  0.00  0.00    -0.194 NA
ATOM      4  C   UNL     1       4.008   0.639  -1.455  0.00  0.00    +0.191 A 
ATOM      5  N   UNL     1       4.248  -0.408  -2.186  0.00  0.00    -0.059 NA
ATOM      6  O   UNL     1       4.626  -0.072  -3.289  0.00  0.00    -0.338 OA
BRANCH   2   7
ATOM      7  C   UNL     1       5.094   2.078  -4.560  0.00  0.00    +0.134 C 
BRANCH   7  13
ATOM      8  C   UNL     1       7.063   3.454  -3.855  0.00  0.00    +0.005 A 
ATOM      9  C   UNL     1       8.425   3.682  -3.794  0.00  0.00    +0.015 A 
ATOM     10  C   UNL     1       9.302   2.791  -4.384  0.00  0.00    +0.018 A 
ATOM     11  C   UNL     1       8.817   1.668  -5.031  0.00  0.00    +0.015 A 
ATOM     12  C   UNL     1       7.455   1.438  -5.088  0.00  0.00    +0.005 A 
ATOM     13  C   UNL     1       6.579   2.329  -4.497  0.00  0.00    -0.038 A 
ATOM     14 BR   UNL     1      11.165   3.106  -4.306  0.00  0.00    -0.050 Br
ENDBRANCH   7  13
ENDBRANCH   2   7
ENDBRANCH   1   4
BRANCH   1  15
ATOM     15  N   UNL     1       2.056   0.658  -0.014  0.00  0.00    -0.327 N 
ATOM     16  C   UNL     1       1.259   1.771  -0.000  0.00  0.00    +0.136 A 
ATOM     17  C   UNL     1      -0.016   1.337   0.009  0.00  0.00    +0.211 A 
ATOM     18  N   UNL     1       0.002  -0.004   0.002  0.00  0.00    -0.216 NA
ATOM     19  C   UNL     1       1.240  -0.418  -0.012  0.00  0.00    +0.202 A 
BRANCH  17  20
ATOM     20  S   UNL     1      -1.456   2.353   0.022  0.00  0.00    +0.080 S 
ATOM     21  O   UNL     1      -1.864   2.461   1.379  0.00  0.00    -0.151 OA
ATOM     22  O   UNL     1      -1.158   3.490  -0.777  0.00  0.00    -0.151 OA
BRANCH  20  23
ATOM     23  N   UNL     1      -2.650   1.520  -0.767  0.00  0.00    -0.175 NA
ATOM     24  C   UNL     1      -2.835   1.670  -2.217  0.00  0.00    +0.109 C 
ATOM     25  C   UNL     1      -2.813   0.275  -2.859  0.00  0.00    +0.017 C 
ATOM     26  C   UNL     1      -3.861  -0.610  -2.180  0.00  0.00    +0.003 C 
ATOM     27  C   UNL     1      -3.522  -0.758  -0.696  0.00  0.00    +0.017 C 
ATOM     28  C   UNL     1      -3.548   0.621  -0.029  0.00  0.00    +0.109 C 
ENDBRANCH  20  23
ENDBRANCH  17  20
ENDBRANCH   1  15
TORSDOF 6
