REMARK  Name = ZINC12762421
REMARK  7 active torsions:
REMARK  status: ('A' for Active; 'I' for Inactive)
REMARK    1  A    between atoms: C_6  and  C_7
REMARK    2  A    between atoms: C_9  and  C_12
REMARK    3  A    between atoms: C_12  and  N_49
REMARK    4  A    between atoms: C_13  and  C_14
REMARK    5  A    between atoms: C_13  and  N_49
REMARK    6  A    between atoms: C_18  and  C_19
REMARK    7  A    between atoms: C_18  and  N_49
REMARK                            x       y       z     vdW  Elec       q    Type
REMARK                         _______ _______ _______ _____ _____    ______ ____
ROOT
ATOM      1  C   UNL     1       0.201   2.881   4.917  0.00  0.00    +0.022 C 
ENDROOT
BRANCH   1   4
ATOM      2  C   UNL     1      -2.032   3.073   7.726  0.00  0.00    +0.202 A 
ATOM      3  N   UNL     1      -1.246   2.343   6.904  0.00  0.00    -0.193 NA
ATOM      4  C   UNL     1      -0.745   3.197   6.047  0.00  0.00    +0.211 A 
ATOM      5  O   UNL     1      -1.226   4.403   6.366  0.00  0.00    -0.340 OA
ATOM      6  N   UNL     1      -1.964   4.315   7.324  0.00  0.00    -0.056 NA
BRANCH   2  12
ATOM      7  C   UNL     1      -2.808   1.202   9.181  0.00  0.00    +0.013 A 
ATOM      8  C   UNL     1      -3.544   0.731  10.249  0.00  0.00    +0.021 A 
ATOM      9  C   UNL     1      -4.307   1.604  11.006  0.00  0.00    +0.041 A 
ATOM     10  C   UNL     1      -4.332   2.953  10.698  0.00  0.00    +0.021 A 
ATOM     11  C   UNL     1      -3.596   3.435   9.635  0.00  0.00    +0.013 A 
ATOM     12  C   UNL     1      -2.826   2.560   8.871  0.00  0.00    +0.023 A 
ATOM     13 CL   UNL     1      -5.235   1.004  12.344  0.00  0.00    -0.084 Cl
ENDBRANCH   2  12
ENDBRANCH   1   4
BRANCH   1  14
ATOM     14  N   UNL     1      -0.586   2.666   3.684  0.00  0.00    +0.387 N 
ATOM     15  H   UNL     1      -1.277   3.421   3.595  0.00  0.00    -0.081 HD
BRANCH  14  16
ATOM     16  C   UNL     1      -1.295   1.372   3.757  0.00  0.00    -0.075 C 
BRANCH  16  17
ATOM     17  C   UNL     1      -0.296   0.214   3.789  0.00  0.00    -0.028 C 
ATOM     18  C   UNL     1       0.107  -0.291   2.394  0.00  0.00    +0.002 C 
ATOM     19  C   UNL     1       0.042  -1.714   2.978  0.00  0.00    +0.000 C 
ATOM     20  C   UNL     1      -0.951  -1.159   4.013  0.00  0.00    +0.002 C 
ENDBRANCH  16  17
ENDBRANCH  14  16
BRANCH  14  21
ATOM     21  C   UNL     1       0.305   2.689   2.506  0.00  0.00    -0.046 C 
BRANCH  21  22
ATOM     22  C   UNL     1      -0.552   2.690   1.238  0.00  0.00    +0.102 C 
ATOM     23  C   UNL     1       0.343   2.610  -0.018  0.00  0.00    +0.032 C 
ATOM     24  C   UNL     1      -0.364   3.519  -1.046  0.00  0.00    +0.030 C 
ATOM     25  C   UNL     1      -1.607   4.043  -0.293  0.00  0.00    +0.160 C 
ATOM     26  O   UNL     1      -1.259   3.946   1.106  0.00  0.00    -0.378 OA
ENDBRANCH  21  22
ENDBRANCH  14  21
ENDBRANCH   1  14
TORSDOF 7
