REMARK  Name = ZINC36952772
REMARK  7 active torsions:
REMARK  status: ('A' for Active; 'I' for Inactive)
REMARK    1  A    between atoms: C_1  and  C_2
REMARK    2  A    between atoms: C_2  and  C_4
REMARK    3  A    between atoms: C_2  and  N_12
REMARK    4  A    between atoms: N_12  and  C_13
REMARK    5  A    between atoms: C_13  and  C_14
REMARK    6  A    between atoms: C_17  and  O_21
REMARK    7  A    between atoms: C_19  and  O_20
REMARK                            x       y       z     vdW  Elec       q    Type
REMARK                         _______ _______ _______ _____ _____    ______ ____
ROOT
ATOM      1  N   UNL     1       0.713  -0.491   1.192  0.00  0.00    +0.386 N 
ATOM      2  H   UNL     1       0.798  -1.495   1.145  0.00  0.00    -0.085 HD
ATOM      3  H   UNL     1       1.632  -0.076   1.228  0.00  0.00    -0.085 HD
ENDROOT
BRANCH   1   5
ATOM      4  C   UNL     1      -0.019   1.526   0.010  0.00  0.00    -0.009 C 
ATOM      5  C   UNL     1       0.002  -0.004   0.002  0.00  0.00    -0.041 C 
BRANCH   5   6
ATOM      6  C   UNL     1       0.707  -0.490  -1.238  0.00  0.00    -0.026 A 
ATOM      7  C   UNL     1       2.024  -0.904  -1.166  0.00  0.00    +0.007 A 
ATOM      8  C   UNL     1       2.672  -1.351  -2.302  0.00  0.00    +0.039 A 
ATOM      9  C   UNL     1       2.003  -1.383  -3.514  0.00  0.00    +0.126 A 
ATOM     10  C   UNL     1       0.684  -0.968  -3.587  0.00  0.00    +0.076 A 
ATOM     11  C   UNL     1       0.035  -0.527  -2.447  0.00  0.00    +0.128 A 
ATOM     12  F   UNL     1      -1.254  -0.127  -2.516  0.00  0.00    -0.205 F 
ATOM     13  F   UNL     1       2.637  -1.819  -4.625  0.00  0.00    -0.205 F 
ENDBRANCH   5   6
ENDBRANCH   1   5
BRANCH   1  14
ATOM     14  C   UNL     1      -0.040  -0.119   2.398  0.00  0.00    -0.042 C 
BRANCH  14  15
ATOM     15  C   UNL     1       0.689  -0.618   3.619  0.00  0.00    -0.023 A 
ATOM     16  C   UNL     1       0.282  -1.785   4.237  0.00  0.00    +0.009 A 
ATOM     17  C   UNL     1       0.948  -2.245   5.356  0.00  0.00    +0.046 A 
ATOM     18  C   UNL     1       2.028  -1.536   5.863  0.00  0.00    +0.120 A 
ATOM     19  C   UNL     1       2.439  -0.366   5.244  0.00  0.00    +0.091 A 
ATOM     20  C   UNL     1       1.772   0.091   4.118  0.00  0.00    +0.122 A 
BRANCH  20  21
ATOM     21  O   UNL     1       2.176   1.235   3.506  0.00  0.00    -0.506 OA
ATOM     22  H   UNL     1       1.749   2.034   3.844  0.00  0.00    +0.292 HD
ENDBRANCH  20  21
BRANCH  18  23
ATOM     23  O   UNL     1       2.683  -1.989   6.964  0.00  0.00    -0.507 OA
ATOM     24  H   UNL     1       3.419  -2.585   6.767  0.00  0.00    +0.292 HD
ENDBRANCH  18  23
ENDBRANCH  14  15
ENDBRANCH   1  14
TORSDOF 6
