REMARK  Name = ZINC59961256
REMARK  14 active torsions:
REMARK  status: ('A' for Active; 'I' for Inactive)
REMARK    1  A    between atoms: C_1  and  C_2
REMARK    2  A    between atoms: C_2  and  C_3
REMARK    3  A    between atoms: C_2  and  O_4
REMARK    4  A    between atoms: O_4  and  C_5
REMARK    5  A    between atoms: C_5  and  C_6
REMARK    6  A    between atoms: C_6  and  C_7
REMARK    7  A    between atoms: C_7  and  N_8
REMARK    8  A    between atoms: C_18  and  S_19
REMARK    9  A    between atoms: S_19  and  C_20
REMARK   10  A    between atoms: C_20  and  C_21
REMARK   11  A    between atoms: C_21  and  C_22
REMARK   12  A    between atoms: C_22  and  O_23
REMARK   13  A    between atoms: O_23  and  C_24
REMARK   14  A    between atoms: C_24  and  C_25
REMARK                            x       y       z     vdW  Elec       q    Type
REMARK                         _______ _______ _______ _____ _____    ______ ____
ROOT
ATOM      1  N   UNL     1      -4.541  -3.946  -1.209  0.00  0.00    -0.287 N 
ATOM      2  C   UNL     1      -4.973  -4.687  -0.162  0.00  0.00    +0.262 A 
ATOM      3  O   UNL     1      -4.214  -5.020   0.730  0.00  0.00    -0.267 OA
ATOM      4  C   UNL     1      -6.389  -5.073  -0.140  0.00  0.00    +0.065 A 
ATOM      5  C   UNL     1      -6.928  -5.835   0.896  0.00  0.00    +0.017 A 
ATOM      6  C   UNL     1      -8.253  -6.169   0.872  0.00  0.00    +0.021 A 
ATOM      7  C   UNL     1      -9.071  -5.758  -0.175  0.00  0.00    +0.043 A 
ATOM      8  C   UNL     1      -8.565  -5.005  -1.212  0.00  0.00    +0.048 A 
ATOM      9  C   UNL     1      -7.213  -4.650  -1.209  0.00  0.00    +0.080 A 
ATOM     10  N   UNL     1      -6.672  -3.911  -2.206  0.00  0.00    -0.223 NA
ATOM     11  C   UNL     1      -5.405  -3.575  -2.199  0.00  0.00    +0.172 A 
ATOM     12 CL   UNL     1     -10.750  -6.200  -0.177  0.00  0.00    -0.083 Cl
ENDROOT
BRANCH   1  13
ATOM     13  C   UNL     1      -3.137  -3.534  -1.278  0.00  0.00    +0.129 C 
BRANCH  13  14
ATOM     14  C   UNL     1      -2.965  -2.187  -0.574  0.00  0.00    +0.050 C 
BRANCH  14  15
ATOM     15  C   UNL     1      -1.499  -1.757  -0.646  0.00  0.00    +0.162 C 
BRANCH  15  16
ATOM     16  O   UNL     1      -1.339  -0.499   0.012  0.00  0.00    -0.377 OA
BRANCH  16  18
ATOM     17  C   UNL     1      -0.019   1.526   0.010  0.00  0.00    +0.037 C 
ATOM     18  C   UNL     1       0.002  -0.004   0.002  0.00  0.00    +0.112 C 
ATOM     19  C   UNL     1       0.742  -0.511   1.242  0.00  0.00    +0.037 C 
ENDBRANCH  16  18
ENDBRANCH  15  16
ENDBRANCH  14  15
ENDBRANCH  13  14
ENDBRANCH   1  13
BRANCH  11  20
ATOM     20  S   UNL     1      -4.787  -2.604  -3.534  0.00  0.00    -0.088 S 
BRANCH  20  21
ATOM     21  C   UNL     1      -6.235  -2.344  -4.595  0.00  0.00    +0.079 C 
BRANCH  21  22
ATOM     22  C   UNL     1      -5.833  -1.503  -5.809  0.00  0.00    +0.039 C 
BRANCH  22  23
ATOM     23  C   UNL     1      -7.054  -1.284  -6.704  0.00  0.00    +0.161 C 
BRANCH  23  24
ATOM     24  O   UNL     1      -6.679  -0.499  -7.837  0.00  0.00    -0.371 OA
BRANCH  24  25
ATOM     25  C   UNL     1      -7.753  -0.234  -8.742  0.00  0.00    +0.272 C 
BRANCH  25  26
ATOM     26  C   UNL     1      -7.239   0.609  -9.911  0.00  0.00    +0.413 C 
ATOM     27  F   UNL     1      -6.227  -0.089 -10.579  0.00  0.00    -0.168 F 
ATOM     28  F   UNL     1      -8.290   0.868 -10.797  0.00  0.00    -0.168 F 
ATOM     29  F   UNL     1      -6.730   1.818  -9.425  0.00  0.00    -0.168 F 
ENDBRANCH  25  26
ENDBRANCH  24  25
ENDBRANCH  23  24
ENDBRANCH  22  23
ENDBRANCH  21  22
ENDBRANCH  20  21
ENDBRANCH  11  20
TORSDOF 12
