REMARK  Name = ZINC39436112
REMARK  11 active torsions:
REMARK  status: ('A' for Active; 'I' for Inactive)
REMARK    1  A    between atoms: C_1  and  C_2
REMARK    2  A    between atoms: C_2  and  O_3
REMARK    3  A    between atoms: O_3  and  C_4
REMARK    4  A    between atoms: C_6  and  C_14
REMARK    5  A    between atoms: C_9  and  O_10
REMARK    6  A    between atoms: O_10  and  C_11
REMARK    7  A    between atoms: C_11  and  C_12
REMARK    8  A    between atoms: C_15  and  C_16
REMARK    9  A    between atoms: C_15  and  C_18
REMARK   10  A    between atoms: C_24  and  O_28
REMARK   11  A    between atoms: O_28  and  C_29
REMARK                            x       y       z     vdW  Elec       q    Type
REMARK                         _______ _______ _______ _____ _____    ______ ____
ROOT
ATOM      1  C   UNL     1      -0.152  -4.954  -0.526  0.00  0.00    +0.026 C 
ATOM      2  C   UNL     1      -0.000  -6.289  -0.405  0.00  0.00    +0.072 C 
ENDROOT
BRANCH   2   3
ATOM      3  C   UNL     1       0.711  -6.861   0.794  0.00  0.00    +0.216 C 
ATOM      4  N   UNL     1       1.958  -7.514   0.376  0.00  0.00    -0.359 N 
ATOM      5  C   UNL     1       1.874  -8.769   0.712  0.00  0.00    +0.061 A 
ATOM      6  C   UNL     1       2.803  -9.899   0.554  0.00  0.00    +0.031 A 
ATOM      7  C   UNL     1       2.454 -11.119   1.003  0.00  0.00    +0.048 A 
ATOM      8  C   UNL     1       1.171 -11.363   1.651  0.00  0.00    +0.122 A 
ATOM      9  C   UNL     1       0.263 -10.374   1.833  0.00  0.00    +0.073 A 
ATOM     10  C   UNL     1       0.565  -9.017   1.372  0.00  0.00    +0.064 A 
ATOM     11  N   UNL     1      -0.114  -7.901   1.420  0.00  0.00    -0.359 N 
ATOM     12  H   UNL     1       2.707  -7.088  -0.070  0.00  0.00    +0.162 HD
ATOM     13  H   UNL     1      -0.998  -7.782   1.799  0.00  0.00    +0.162 HD
BRANCH   8  14
ATOM     14  O   UNL     1       0.879 -12.615   2.083  0.00  0.00    -0.495 OA
ATOM     15  C   UNL     1       1.868 -13.624   1.867  0.00  0.00    +0.277 C 
ENDBRANCH   8  14
ENDBRANCH   2   3
BRANCH   1  18
ATOM     16  C   UNL     1       0.537  -2.021   1.709  0.00  0.00    +0.163 A 
ATOM     17  C   UNL     1      -0.103  -2.867   0.825  0.00  0.00    +0.057 A 
ATOM     18  C   UNL     1       0.524  -4.048   0.414  0.00  0.00    -0.019 A 
ATOM     19  C   UNL     1       1.797  -4.366   0.902  0.00  0.00    +0.026 A 
ATOM     20  C   UNL     1       2.428  -3.516   1.784  0.00  0.00    +0.059 A 
ATOM     21  C   UNL     1       1.807  -2.341   2.187  0.00  0.00    +0.175 A 
ATOM     22  I   UNL     1       4.333  -3.994   2.514  0.00  0.00    -0.040 I 
BRANCH  16  23
ATOM     23  O   UNL     1      -0.070  -0.871   2.110  0.00  0.00    -0.489 OA
BRANCH  23  25
ATOM     24  C   UNL     1      -1.888   0.721   2.141  0.00  0.00    +0.048 C 
ATOM     25  C   UNL     1      -1.370  -0.606   1.581  0.00  0.00    +0.226 C 
ENDBRANCH  23  25
ENDBRANCH  16  23
BRANCH  21  26
ATOM     26  O   UNL     1       2.436  -1.504   3.052  0.00  0.00    -0.488 OA
BRANCH  26  27
ATOM     27  C   UNL     1       2.212  -1.724   4.447  0.00  0.00    +0.226 C 
ATOM     28  C   UNL     1       2.997  -0.692   5.258  0.00  0.00    +0.048 C 
ENDBRANCH  26  27
ENDBRANCH  21  26
ENDBRANCH   1  18
BRANCH   2  29
ATOM     29  C   UNL     1      -0.515  -7.163  -1.417  0.00  0.00    +0.099 C 
ATOM     30  N   UNL     1      -0.923  -7.856  -2.219  0.00  0.00    -0.191 NA
ENDBRANCH   2  29
TORSDOF 8
