REMARK  Name = ZINC44551597
REMARK  6 active torsions:
REMARK  status: ('A' for Active; 'I' for Inactive)
REMARK    1  A    between atoms: C_1  and  C_2
REMARK    2  A    between atoms: C_7  and  C_9
REMARK    3  A    between atoms: C_7  and  C_10
REMARK    4  A    between atoms: C_17  and  C_19
REMARK    5  A    between atoms: N_20  and  N_21
REMARK    6  A    between atoms: C_22  and  C_23
REMARK                            x       y       z     vdW  Elec       q    Type
REMARK                         _______ _______ _______ _____ _____    ______ ____
ROOT
ATOM      1  C   UNL     1      -0.019   1.532   0.011  0.00  0.00    +0.013 C 
ATOM      2  C   UNL     1       0.002  -0.004   0.002  0.00  0.00    -0.014 C 
ATOM      3  C   UNL     1       0.687  -0.579  -1.268  0.00  0.00    +0.030 C 
ATOM      4  C   UNL     1       0.128  -2.023  -1.232  0.00  0.00    +0.076 C 
ATOM      5  C   UNL     1       0.885  -2.774  -0.140  0.00  0.00    +0.029 C 
ATOM      6  C   UNL     1       0.829  -2.104   1.221  0.00  0.00    -0.033 C 
ATOM      7  C   UNL     1       0.726  -0.590   1.212  0.00  0.00    +0.014 C 
ATOM      8  C   UNL     1       2.140  -2.468   1.962  0.00  0.00    +0.011 C 
ATOM      9  C   UNL     1      -0.317  -2.704   2.049  0.00  0.00    +0.011 C 
ATOM     10  N   UNL     1      -1.284  -1.874  -0.827  0.00  0.00    -0.310 N 
ATOM     11  C   UNL     1      -1.417  -0.610  -0.086  0.00  0.00    +0.113 C 
ATOM     12  C   UNL     1      -2.313  -2.765  -1.106  0.00  0.00    +0.141 A 
ATOM     13  C   UNL     1      -2.034  -3.979  -1.735  0.00  0.00    +0.154 A 
ATOM     14  N   UNL     1      -3.010  -4.827  -2.002  0.00  0.00    -0.258 NA
ATOM     15  C   UNL     1      -4.255  -4.532  -1.674  0.00  0.00    +0.142 A 
ATOM     16  C   UNL     1      -4.543  -3.321  -1.044  0.00  0.00    +0.123 A 
ATOM     17  N   UNL     1      -3.558  -2.465  -0.770  0.00  0.00    -0.226 NA
ENDROOT
BRANCH  16  18
ATOM     18  C   UNL     1      -5.935  -2.990  -0.678  0.00  0.00    +0.137 C 
ATOM     19  N   UNL     1      -6.905  -3.837  -0.945  0.00  0.00    -0.263 N 
ATOM     20  N   UNL     1      -6.218  -1.793  -0.055  0.00  0.00    -0.342 N 
ATOM     21  H   UNL     1      -5.503  -1.168   0.142  0.00  0.00    +0.144 HD
ATOM     22  H   UNL     1      -7.132  -1.575   0.185  0.00  0.00    +0.144 HD
ATOM     23  H   UNL     1      -6.706  -4.680  -1.383  0.00  0.00    +0.190 HD
BRANCH  19  24
ATOM     24  N   UNL     1      -8.120  -3.548  -0.625  0.00  0.00    -0.180 NA
ATOM     25  C   UNL     1      -9.084  -4.390  -0.890  0.00  0.00    +0.140 C 
BRANCH  25  26
ATOM     26  C   UNL     1     -10.470  -4.061  -0.526  0.00  0.00    -0.005 A 
ATOM     27  C   UNL     1     -10.762  -2.844   0.101  0.00  0.00    +0.010 A 
ATOM     28  C   UNL     1     -12.063  -2.542   0.439  0.00  0.00    +0.016 A 
ATOM     29  C   UNL     1     -13.081  -3.439   0.161  0.00  0.00    +0.018 A 
ATOM     30  C   UNL     1     -12.800  -4.646  -0.458  0.00  0.00    +0.016 A 
ATOM     31  C   UNL     1     -11.504  -4.959  -0.808  0.00  0.00    +0.010 A 
ATOM     32 BR   UNL     1     -14.863  -3.015   0.630  0.00  0.00    -0.050 Br
ENDBRANCH  25  26
ENDBRANCH  19  24
ENDBRANCH  16  18
TORSDOF 3
