REMARK  Name = ZINC34788095
REMARK  7 active torsions:
REMARK  status: ('A' for Active; 'I' for Inactive)
REMARK    1  A    between atoms: C_1  and  C_2
REMARK    2  A    between atoms: C_7  and  C_8
REMARK    3  A    between atoms: N_17  and  C_18
REMARK    4  A    between atoms: C_18  and  C_19
REMARK    5  A    between atoms: C_28  and  C_30
REMARK    6  A    between atoms: C_30  and  O_31
REMARK    7  A    between atoms: O_31  and  C_32
REMARK                            x       y       z     vdW  Elec       q    Type
REMARK                         _______ _______ _______ _____ _____    ______ ____
ROOT
ATOM      1  C   UNL     1       0.025   0.045   2.504  0.00  0.00    -0.005 C 
ATOM      2  C   UNL     1      -1.408   0.381   2.904  0.00  0.00    -0.047 A 
ATOM      3  C   UNL     1      -2.385   0.814   2.011  0.00  0.00    +0.010 A 
ATOM      4  C   UNL     1      -3.634   1.088   2.455  0.00  0.00    +0.045 A 
ATOM      5  S   UNL     1      -3.490   0.739   4.202  0.00  0.00    -0.101 S 
ATOM      6  C   UNL     1      -1.786   0.260   4.208  0.00  0.00    -0.010 A 
ATOM      7  C   UNL     1      -0.922  -0.178   5.345  0.00  0.00    +0.024 C 
ATOM      8  C   UNL     1       0.538  -0.138   4.860  0.00  0.00    -0.072 C 
ATOM      9  N   UNL     1       0.625  -0.795   3.549  0.00  0.00    +0.393 N 
ATOM     10  H   UNL     1       0.135  -1.676   3.587  0.00  0.00    -0.080 HD
ENDROOT
BRANCH   1  17
ATOM     11  C   UNL     1      -0.018   1.503   0.010  0.00  0.00    +0.044 C 
ATOM     12  C   UNL     1       0.002  -0.004   0.002  0.00  0.00    -0.049 A 
ATOM     13  C   UNL     1       0.006  -0.689  -1.199  0.00  0.00    +0.003 A 
ATOM     14  C   UNL     1       0.025  -2.071  -1.207  0.00  0.00    +0.000 A 
ATOM     15  C   UNL     1       0.040  -2.768  -0.013  0.00  0.00    +0.000 A 
ATOM     16  C   UNL     1       0.037  -2.084   1.188  0.00  0.00    +0.002 A 
ATOM     17  C   UNL     1       0.023  -0.702   1.195  0.00  0.00    -0.054 A 
ENDBRANCH   1  17
BRANCH   9  18
ATOM     18  C   UNL     1       2.035  -1.041   3.220  0.00  0.00    +0.020 C 
BRANCH  18  19
ATOM     19  C   UNL     1       2.623  -2.001   4.221  0.00  0.00    +0.199 C 
ATOM     20  O   UNL     1       1.935  -2.438   5.120  0.00  0.00    -0.278 OA
ATOM     21  N   UNL     1       3.914  -2.375   4.118  0.00  0.00    -0.301 N 
ATOM     22  C   UNL     1       4.500  -3.284   5.042  0.00  0.00    +0.109 C 
ATOM     23  C   UNL     1       5.016  -2.627   6.363  0.00  0.00    +0.038 C 
ATOM     24  C   UNL     1       5.635  -1.242   5.983  0.00  0.00    +0.109 C 
ATOM     25  N   UNL     1       6.350  -1.231   4.755  0.00  0.00    -0.298 N 
ATOM     26  C   UNL     1       5.615  -0.771   3.549  0.00  0.00    +0.127 C 
ATOM     27  C   UNL     1       4.786  -1.861   3.031  0.00  0.00    +0.126 C 
ATOM     28  C   UNL     1       7.639  -1.620   4.687  0.00  0.00    +0.241 C 
ATOM     29  O   UNL     1       8.214  -1.991   5.689  0.00  0.00    -0.273 OA
BRANCH  28  30
ATOM     30  C   UNL     1       8.366  -1.595   3.367  0.00  0.00    +0.255 C 
BRANCH  30  31
ATOM     31  O   UNL     1       9.708  -2.049   3.553  0.00  0.00    -0.374 OA
ATOM     32  C   UNL     1      10.488  -2.064   2.356  0.00  0.00    +0.194 C 
ENDBRANCH  30  31
ENDBRANCH  28  30
ENDBRANCH  18  19
ENDBRANCH   9  18
TORSDOF 5
