REMARK  Name = ZINC25573925
REMARK  11 active torsions:
REMARK  status: ('A' for Active; 'I' for Inactive)
REMARK    1  A    between atoms: C_1  and  C_2
REMARK    2  A    between atoms: C_2  and  C_3
REMARK    3  A    between atoms: C_2  and  C_4
REMARK    4  A    between atoms: C_7  and  S_10
REMARK    5  A    between atoms: S_10  and  C_11
REMARK    6  A    between atoms: C_11  and  C_12
REMARK    7  A    between atoms: C_13  and  C_29
REMARK    8  A    between atoms: C_14  and  C_23
REMARK    9  A    between atoms: N_19  and  C_20
REMARK   10  A    between atoms: C_29  and  O_31
REMARK   11  A    between atoms: O_31  and  C_32
REMARK                            x       y       z     vdW  Elec       q    Type
REMARK                         _______ _______ _______ _____ _____    ______ ____
ROOT
ATOM      1  C   UNL     1      -2.157   3.701  -1.525  0.00  0.00    +0.037 C 
ATOM      2  C   UNL     1      -1.580   2.495  -1.337  0.00  0.00    +0.079 C 
ATOM      3  C   UNL     1      -0.891   2.242  -0.012  0.00  0.00    +0.144 C 
ATOM      4  N   UNL     1      -0.908   3.340   0.969  0.00  0.00    -0.288 N 
ATOM      5  C   UNL     1      -1.526   4.489   0.635  0.00  0.00    +0.307 C 
ATOM      6  O   UNL     1      -1.545   5.402   1.438  0.00  0.00    -0.252 OA
ATOM      7  N   UNL     1      -2.120   4.659  -0.553  0.00  0.00    -0.255 N 
ATOM      8  H   UNL     1      -0.423   3.210   1.948  0.00  0.00    +0.151 HD
ENDROOT
BRANCH   3   9
ATOM      9  C   UNL     1       0.548   1.894  -0.295  0.00  0.00    -0.023 A 
ATOM     10  C   UNL     1       1.461   2.896  -0.567  0.00  0.00    +0.006 A 
ATOM     11  C   UNL     1       2.779   2.577  -0.834  0.00  0.00    +0.000 A 
ATOM     12  C   UNL     1       3.185   1.255  -0.827  0.00  0.00    +0.000 A 
ATOM     13  C   UNL     1       2.272   0.253  -0.555  0.00  0.00    +0.000 A 
ATOM     14  C   UNL     1       0.954   0.573  -0.289  0.00  0.00    +0.006 A 
ENDBRANCH   3   9
BRANCH   7  15
ATOM     15  C   UNL     1      -2.767   5.946  -0.825  0.00  0.00    +0.083 C 
ATOM     16  C   UNL     1      -3.712   6.501   0.243  0.00  0.00    +0.025 C 
ATOM     17  C   UNL     1      -4.278   5.940  -1.064  0.00  0.00    +0.025 C 
ENDBRANCH   7  15
BRANCH   2  18
ATOM     18  C   UNL     1      -1.617   1.502  -2.344  0.00  0.00    +0.339 C 
ATOM     19  O   UNL     1      -2.061   1.768  -3.445  0.00  0.00    -0.245 OA
BRANCH  18  20
ATOM     20  O   UNL     1      -1.159   0.260  -2.083  0.00  0.00    -0.465 OA
ATOM     21  C   UNL     1      -1.226  -0.693  -3.146  0.00  0.00    +0.280 C 
ENDBRANCH  18  20
ENDBRANCH   2  18
BRANCH   1  22
ATOM     22  C   UNL     1      -2.853   3.995  -2.829  0.00  0.00    +0.129 C 
BRANCH  22  23
ATOM     23  S   UNL     1      -1.683   4.760  -3.979  0.00  0.00    -0.081 S 
BRANCH  23  27
ATOM     24  C   UNL     1      -3.510   5.509  -7.343  0.00  0.00    +0.154 A 
ATOM     25  N   UNL     1      -2.381   5.545  -6.572  0.00  0.00    -0.205 NA
ATOM     26  H   UNL     1      -4.662   4.187  -4.722  0.00  0.00    +0.191 HD
ATOM     27  C   UNL     1      -2.732   4.989  -5.376  0.00  0.00    +0.185 A 
ATOM     28  N   UNL     1      -3.999   4.656  -5.463  0.00  0.00    -0.254 N 
ATOM     29  N   UNL     1      -4.452   4.962  -6.627  0.00  0.00    -0.157 NA
BRANCH  24  31
ATOM     30  C   UNL     1      -3.931   7.510  -8.745  0.00  0.00    +0.015 C 
ATOM     31  C   UNL     1      -3.641   6.008  -8.759  0.00  0.00    +0.053 C 
ATOM     32  C   UNL     1      -2.337   5.747  -9.515  0.00  0.00    +0.015 C 
ENDBRANCH  24  31
ENDBRANCH  23  27
ENDBRANCH  22  23
ENDBRANCH   1  22
TORSDOF 8
