REMARK  Name = ZINC49741645
REMARK  6 active torsions:
REMARK  status: ('A' for Active; 'I' for Inactive)
REMARK    1  A    between atoms: C_1  and  C_2
REMARK    2  A    between atoms: C_2  and  C_3
REMARK    3  A    between atoms: C_2  and  C_4
REMARK    4  A    between atoms: C_8  and  N_15
REMARK    5  A    between atoms: N_15  and  S_16
REMARK    6  A    between atoms: S_16  and  C_19
REMARK                            x       y       z     vdW  Elec       q    Type
REMARK                         _______ _______ _______ _____ _____    ______ ____
ROOT
ATOM      1  C   UNL     1       0.797  -0.529  -1.060  0.00  0.00    +0.110 C 
ATOM      2  C   UNL     1       0.845  -2.038  -1.144  0.00  0.00    -0.012 A 
ATOM      3  C   UNL     1      -0.134  -3.004  -1.176  0.00  0.00    +0.030 A 
ATOM      4  C   UNL     1       0.219  -4.346  -1.256  0.00  0.00    +0.048 A 
ATOM      5  C   UNL     1       1.561  -4.702  -1.304  0.00  0.00    +0.026 A 
ATOM      6  C   UNL     1       2.540  -3.731  -1.272  0.00  0.00    +0.025 A 
ATOM      7  C   UNL     1       2.190  -2.384  -1.191  0.00  0.00    +0.037 A 
ATOM      8  N   UNL     1       2.986  -1.236  -1.145  0.00  0.00    -0.285 N 
ATOM      9  C   UNL     1       2.251  -0.109  -1.069  0.00  0.00    +0.225 C 
ATOM     10  O   UNL     1       2.673   1.027  -1.018  0.00  0.00    -0.275 OA
ATOM     11  H   UNL     1       3.955  -1.248  -1.166  0.00  0.00    +0.155 HD
ENDROOT
BRANCH   1  13
ATOM     12  C   UNL     1       0.125   1.441   0.321  0.00  0.00    +0.008 C 
ATOM     13  C   UNL     1       0.120  -0.086   0.238  0.00  0.00    -0.001 C 
ATOM     14  C   UNL     1      -1.324  -0.593   0.259  0.00  0.00    +0.008 C 
ENDBRANCH   1  13
BRANCH   4  15
ATOM     15  N   UNL     1      -0.771  -5.333  -1.289  0.00  0.00    -0.216 N 
ATOM     16  H   UNL     1      -1.512  -5.297  -0.664  0.00  0.00    +0.174 HD
BRANCH  15  17
ATOM     17  S   UNL     1      -0.679  -6.563  -2.394  0.00  0.00    +0.072 S 
ATOM     18  O   UNL     1       0.617  -7.130  -2.264  0.00  0.00    -0.150 OA
ATOM     19  O   UNL     1      -1.865  -7.331  -2.247  0.00  0.00    -0.150 OA
BRANCH  17  20
ATOM     20  C   UNL     1      -0.749  -5.830  -3.995  0.00  0.00    +0.112 A 
ATOM     21  C   UNL     1      -1.973  -5.537  -4.567  0.00  0.00    +0.032 A 
ATOM     22  C   UNL     1      -2.034  -4.962  -5.822  0.00  0.00    +0.051 A 
ATOM     23  C   UNL     1      -0.866  -4.678  -6.512  0.00  0.00    +0.166 A 
ATOM     24  C   UNL     1       0.368  -4.973  -5.936  0.00  0.00    +0.168 A 
ATOM     25  C   UNL     1       0.420  -5.545  -4.675  0.00  0.00    +0.078 A 
ATOM     26  O   UNL     1       1.354  -4.603  -6.804  0.00  0.00    -0.453 OA
ATOM     27  C   UNL     1       0.707  -4.456  -8.082  0.00  0.00    +0.466 C 
ATOM     28  O   UNL     1      -0.652  -4.123  -7.740  0.00  0.00    -0.453 OA
ENDBRANCH  17  20
ENDBRANCH  15  17
ENDBRANCH   4  15
TORSDOF 4
