REMARK  Name = ZINC56165934
REMARK  5 active torsions:
REMARK  status: ('A' for Active; 'I' for Inactive)
REMARK    1  A    between atoms: C_1  and  C_2
REMARK    2  A    between atoms: C_2  and  C_3
REMARK    3  A    between atoms: C_3  and  C_11
REMARK    4  A    between atoms: C_14  and  N_17
REMARK    5  A    between atoms: C_18  and  C_20
REMARK                            x       y       z     vdW  Elec       q    Type
REMARK                         _______ _______ _______ _____ _____    ______ ____
ROOT
ATOM      1  C   UNL     1       2.007   0.205   0.955  0.00  0.00    -0.032 A 
ATOM      2  C   UNL     1       2.989  -0.748   1.154  0.00  0.00    +0.006 A 
ATOM      3  C   UNL     1       4.297  -0.360   1.367  0.00  0.00    +0.023 A 
ATOM      4  C   UNL     1       4.626   0.990   1.381  0.00  0.00    +0.034 A 
ATOM      5  C   UNL     1       3.638   1.944   1.180  0.00  0.00    +0.023 A 
ATOM      6  C   UNL     1       2.332   1.550   0.963  0.00  0.00    +0.006 A 
ENDROOT
BRANCH   1   7
ATOM      7  C   UNL     1       0.581  -0.222   0.722  0.00  0.00    +0.072 C 
ATOM      8  C   UNL     1       0.513  -1.749   0.614  0.00  0.00    +0.030 C 
ATOM      9  C   UNL     1      -0.956  -2.165   0.490  0.00  0.00    +0.097 C 
ATOM     10  C   UNL     1      -1.728  -1.607   1.656  0.00  0.00    +0.219 C 
ATOM     11  O   UNL     1      -2.708  -2.197   2.058  0.00  0.00    -0.275 OA
ATOM     12  N   UNL     1      -1.353  -0.469   2.260  0.00  0.00    -0.256 N 
ATOM     13  C   UNL     1      -0.275   0.231   1.875  0.00  0.00    +0.230 C 
ATOM     14  O   UNL     1       0.017   1.247   2.469  0.00  0.00    -0.274 OA
ATOM     15  H   UNL     1      -1.882  -0.139   3.002  0.00  0.00    +0.157 HD
BRANCH   7  17
ATOM     16  C   UNL     1       0.950  -0.035  -1.742  0.00  0.00    +0.005 C 
ATOM     17  C   UNL     1       0.064   0.406  -0.575  0.00  0.00    +0.017 C 
ENDBRANCH   7  17
ENDBRANCH   1   7
BRANCH   4  18
ATOM     18  N   UNL     1       5.950   1.386   1.598  0.00  0.00    -0.282 N 
ATOM     19  C   UNL     1       6.211   2.527   2.265  0.00  0.00    +0.241 C 
ATOM     20  O   UNL     1       5.300   3.164   2.760  0.00  0.00    -0.270 OA
ATOM     21  H   UNL     1       6.680   0.839   1.267  0.00  0.00    +0.155 HD
BRANCH  19  22
ATOM     22  C   UNL     1       7.596   3.002   2.396  0.00  0.00    +0.067 C 
ATOM     23  C   UNL     1       7.870   4.052   3.165  0.00  0.00    -0.065 C 
ATOM     24  C   UNL     1       6.832   4.611   4.113  0.00  0.00    +0.031 C 
ATOM     25  C   UNL     1       7.458   4.729   5.507  0.00  0.00    +0.004 C 
ATOM     26  C   UNL     1       8.741   5.557   5.418  0.00  0.00    +0.001 C 
ATOM     27  C   UNL     1       9.767   4.833   4.545  0.00  0.00    +0.004 C 
ATOM     28  C   UNL     1       9.229   4.714   3.119  0.00  0.00    +0.031 C 
ENDBRANCH  19  22
ENDBRANCH   4  18
TORSDOF 4
