REMARK  Name = ZINC39851768
REMARK  15 active torsions:
REMARK  status: ('A' for Active; 'I' for Inactive)
REMARK    1  A    between atoms: C_1  and  C_2
REMARK    2  A    between atoms: C_2  and  C_3
REMARK    3  A    between atoms: C_3  and  C_4
REMARK    4  A    between atoms: C_4  and  N_5
REMARK    5  A    between atoms: C_6  and  N_26
REMARK    6  A    between atoms: C_7  and  C_15
REMARK    7  A    between atoms: C_8  and  C_14
REMARK    8  A    between atoms: C_9  and  C_12
REMARK    9  A    between atoms: N_19  and  C_23
REMARK   10  A    between atoms: C_23  and  C_24
REMARK   11  A    between atoms: C_23  and  C_25
REMARK   12  A    between atoms: N_26  and  C_27
REMARK   13  A    between atoms: C_27  and  C_28
REMARK   14  A    between atoms: C_31  and  O_34
REMARK   15  A    between atoms: O_34  and  C_35
REMARK                            x       y       z     vdW  Elec       q    Type
REMARK                         _______ _______ _______ _____ _____    ______ ____
ROOT
ATOM      1  N   UNL     1      -2.680  -2.669   0.067  0.00  0.00    -0.295 N 
ATOM      2  C   UNL     1      -3.362  -2.759   1.238  0.00  0.00    +0.109 A 
ATOM      3  C   UNL     1      -4.535  -3.526   1.323  0.00  0.00    +0.019 A 
ATOM      4  C   UNL     1      -5.003  -4.202   0.183  0.00  0.00    -0.017 A 
ATOM      5  C   UNL     1      -4.286  -4.093  -1.005  0.00  0.00    +0.120 A 
ATOM      6  C   UNL     1      -3.110  -3.302  -1.040  0.00  0.00    +0.270 A 
ATOM      7  O   UNL     1      -2.481  -3.198  -2.078  0.00  0.00    -0.266 OA
ATOM      8  C   UNL     1      -6.259  -5.032   0.247  0.00  0.00    +0.046 C 
ENDROOT
BRANCH   3   9
ATOM      9  C   UNL     1      -5.265  -3.621   2.588  0.00  0.00    +0.032 C 
ATOM     10  C   UNL     1      -6.509  -3.079   2.699  0.00  0.00    +0.077 C 
ATOM     11  C   UNL     1      -7.290  -2.390   1.722  0.00  0.00    +0.259 C 
ATOM     12  O   UNL     1      -6.867  -2.210   0.594  0.00  0.00    -0.269 OA
ATOM     13  N   UNL     1      -8.485  -1.953   2.078  0.00  0.00    -0.253 N 
ATOM     14  C   UNL     1      -8.954  -2.153   3.330  0.00  0.00    +0.121 C 
ATOM     15  S   UNL     1     -10.456  -1.679   4.001  0.00  0.00    -0.027 S 
ATOM     16  S   UNL     1      -7.613  -3.043   4.104  0.00  0.00    -0.061 S 
BRANCH  13  17
ATOM     17  C   UNL     1      -9.314  -1.242   1.102  0.00  0.00    +0.077 C 
ATOM     18  C   UNL     1     -10.625  -2.003   0.895  0.00  0.00    +0.028 C 
ATOM     19  C   UNL     1      -9.617   0.166   1.619  0.00  0.00    +0.028 C 
ENDBRANCH  13  17
ENDBRANCH   3   9
BRANCH   5  20
ATOM     20  C   UNL     1      -4.736  -4.770  -2.184  0.00  0.00    +0.105 C 
ATOM     21  N   UNL     1      -5.092  -5.307  -3.120  0.00  0.00    -0.191 NA
ENDBRANCH   5  20
BRANCH   2  22
ATOM     22  N   UNL     1      -2.902  -2.100   2.341  0.00  0.00    -0.326 N 
ATOM     23  H   UNL     1      -3.123  -1.165   2.474  0.00  0.00    +0.148 HD
BRANCH  22  24
ATOM     24  C   UNL     1      -2.076  -2.805   3.324  0.00  0.00    +0.138 C 
BRANCH  24  25
ATOM     25  C   UNL     1      -1.805  -1.897   4.496  0.00  0.00    -0.030 A 
ATOM     26  C   UNL     1      -0.695  -1.073   4.488  0.00  0.00    +0.009 A 
ATOM     27  C   UNL     1      -0.445  -0.240   5.561  0.00  0.00    +0.046 A 
ATOM     28  C   UNL     1      -1.308  -0.231   6.647  0.00  0.00    +0.120 A 
ATOM     29  C   UNL     1      -2.422  -1.058   6.652  0.00  0.00    +0.046 A 
ATOM     30  C   UNL     1      -2.671  -1.886   5.574  0.00  0.00    +0.009 A 
BRANCH  28  31
ATOM     31  O   UNL     1      -1.064   0.587   7.704  0.00  0.00    -0.495 OA
ATOM     32  C   UNL     1      -1.995   0.544   8.787  0.00  0.00    +0.277 C 
ENDBRANCH  28  31
ENDBRANCH  24  25
ENDBRANCH  22  24
ENDBRANCH   2  22
BRANCH   1  33
ATOM     33  C   UNL     1      -1.458  -1.862   0.006  0.00  0.00    +0.126 C 
BRANCH  33  34
ATOM     34  C   UNL     1      -1.825  -0.400  -0.258  0.00  0.00    +0.021 C 
BRANCH  34  36
ATOM     35  C   UNL     1      -0.928   1.923  -0.462  0.00  0.00    +0.004 C 
ATOM     36  C   UNL     1      -0.562   0.461  -0.199  0.00  0.00    -0.002 C 
ENDBRANCH  34  36
ENDBRANCH  33  34
ENDBRANCH   1  33
TORSDOF 10
