REMARK  Name = ZINC40321236
REMARK  6 active torsions:
REMARK  status: ('A' for Active; 'I' for Inactive)
REMARK    1  A    between atoms: C_1  and  C_2
REMARK    2  A    between atoms: C_2  and  C_4
REMARK    3  A    between atoms: C_2  and  N_11
REMARK    4  A    between atoms: N_11  and  S_12
REMARK    5  A    between atoms: S_12  and  C_15
REMARK    6  A    between atoms: C_20  and  N_21
REMARK                            x       y       z     vdW  Elec       q    Type
REMARK                         _______ _______ _______ _____ _____    ______ ____
ROOT
ATOM      1  S   UNL     1       2.342  -1.009   1.090  0.00  0.00    +0.061 S 
ATOM      2  O   UNL     1       2.806  -1.549   2.320  0.00  0.00    -0.153 OA
ATOM      3  O   UNL     1       2.353  -1.753  -0.121  0.00  0.00    -0.153 OA
ENDROOT
BRANCH   1   4
ATOM      4  C   UNL     1       3.284   0.450   0.794  0.00  0.00    +0.126 A 
ATOM      5  C   UNL     1       3.877   0.651  -0.437  0.00  0.00    +0.031 A 
ATOM      6  C   UNL     1       4.616   1.796  -0.671  0.00  0.00    +0.017 A 
ATOM      7  C   UNL     1       4.764   2.744   0.327  0.00  0.00    +0.020 A 
ATOM      8  C   UNL     1       4.173   2.548   1.560  0.00  0.00    +0.040 A 
ATOM      9  C   UNL     1       3.425   1.401   1.796  0.00  0.00    +0.052 A 
ATOM     10 BR   UNL     1       5.777   4.308   0.002  0.00  0.00    -0.050 Br
BRANCH   9  11
ATOM     11  N   UNL     1       2.822   1.203   3.040  0.00  0.00    -0.356 N 
ATOM     12  H   UNL     1       2.228   0.448   3.176  0.00  0.00    +0.142 HD
ATOM     13  H   UNL     1       2.996   1.820   3.768  0.00  0.00    +0.142 HD
ENDBRANCH   9  11
ENDBRANCH   1   4
BRANCH   1  14
ATOM     14  N   UNL     1       0.774  -0.538   1.342  0.00  0.00    -0.183 NA
ATOM     15  H   UNL     1       0.354  -0.691   2.203  0.00  0.00    +0.149 HD
BRANCH  14  17
ATOM     16  C   UNL     1      -0.418   1.504   0.717  0.00  0.00    +0.031 C 
ATOM     17  C   UNL     1       0.023   0.111   0.264  0.00  0.00    +0.106 C 
BRANCH  17  18
ATOM     18  C   UNL     1      -1.192  -0.717  -0.069  0.00  0.00    +0.006 A 
ATOM     19  C   UNL     1      -1.740  -1.555   0.883  0.00  0.00    +0.008 A 
ATOM     20  C   UNL     1      -2.854  -2.315   0.577  0.00  0.00    +0.000 A 
ATOM     21  C   UNL     1      -3.421  -2.237  -0.681  0.00  0.00    +0.003 A 
ATOM     22  C   UNL     1      -2.874  -1.399  -1.635  0.00  0.00    +0.038 A 
ATOM     23  C   UNL     1      -1.762  -0.634  -1.328  0.00  0.00    +0.128 A 
ATOM     24  F   UNL     1      -1.230   0.189  -2.258  0.00  0.00    -0.205 F 
ENDBRANCH  17  18
ENDBRANCH  14  17
ENDBRANCH   1  14
TORSDOF 5
