REMARK  Name = ZINC39665450
REMARK  11 active torsions:
REMARK  status: ('A' for Active; 'I' for Inactive)
REMARK    1  A    between atoms: C_1  and  C_2
REMARK    2  A    between atoms: C_8  and  N_10
REMARK    3  A    between atoms: C_14  and  C_16
REMARK    4  A    between atoms: C_16  and  S_17
REMARK    5  A    between atoms: S_17  and  C_18
REMARK    6  A    between atoms: C_21  and  C_31
REMARK    7  A    between atoms: N_22  and  C_23
REMARK    8  A    between atoms: C_23  and  C_25
REMARK    9  A    between atoms: C_23  and  C_28
REMARK   10  A    between atoms: C_25  and  C_26
REMARK   11  A    between atoms: C_25  and  C_27
REMARK                            x       y       z     vdW  Elec       q    Type
REMARK                         _______ _______ _______ _____ _____    ______ ____
ROOT
ATOM      1  S   UNL     1       1.261   1.215   8.484  0.00  0.00    -0.077 S 
ENDROOT
BRANCH   1   2
ATOM      2  C   UNL     1       0.297   1.793   9.841  0.00  0.00    +0.193 A 
ATOM      3  N   UNL     1      -0.983   2.088   9.817  0.00  0.00    -0.122 NA
ATOM      4  N   UNL     1      -1.369   2.479  10.978  0.00  0.00    -0.128 NA
ATOM      5  C   UNL     1      -0.357   2.458  11.818  0.00  0.00    +0.172 A 
ATOM      6  N   UNL     1       0.740   2.012  11.115  0.00  0.00    -0.287 N 
BRANCH   5   7
ATOM      7  C   UNL     1      -0.392   2.835  13.240  0.00  0.00    +0.056 A 
ATOM      8  C   UNL     1      -1.477   3.005  14.063  0.00  0.00    +0.019 A 
ATOM      9  C   UNL     1      -1.261   3.362  15.375  0.00  0.00    +0.008 A 
ATOM     10  C   UNL     1       0.013   3.535  15.813  0.00  0.00    +0.046 A 
ATOM     11  S   UNL     1       0.966   3.182  14.346  0.00  0.00    -0.094 S 
ENDBRANCH   5   7
BRANCH   6  12
ATOM     12  C   UNL     1       2.099   1.816  11.626  0.00  0.00    +0.206 C 
BRANCH  12  13
ATOM     13  C   UNL     1       2.503   0.351  11.452  0.00  0.00    +0.017 C 
ATOM     14  C   UNL     1       3.922   0.146  11.986  0.00  0.00    +0.010 C 
ATOM     15  C   UNL     1       1.532  -0.542  12.228  0.00  0.00    +0.010 C 
ENDBRANCH  12  13
BRANCH  12  16
ATOM     16  C   UNL     1       3.055   2.695  10.862  0.00  0.00    +0.379 C 
ATOM     17  O   UNL     1       2.909   3.905  10.870  0.00  0.00    -0.244 OA
ATOM     18  O   UNL     1       3.974   2.196  10.236  0.00  0.00    -0.244 OA
ENDBRANCH  12  16
ENDBRANCH   6  12
ENDBRANCH   1   2
BRANCH   1  19
ATOM     19  C   UNL     1       0.083   1.145   7.106  0.00  0.00    +0.173 C 
BRANCH  19  24
ATOM     20  N   UNL     1       0.056  -0.038   2.447  0.00  0.00    -0.296 N 
ATOM     21  C   UNL     1       0.738   0.093   3.602  0.00  0.00    +0.306 C 
ATOM     22  O   UNL     1       1.921  -0.180   3.644  0.00  0.00    -0.252 OA
ATOM     23  N   UNL     1       0.107   0.528   4.711  0.00  0.00    -0.239 N 
ATOM     24  C   UNL     1       0.789   0.659   5.866  0.00  0.00    +0.231 C 
ATOM     25  O   UNL     1       1.969   0.387   5.908  0.00  0.00    -0.274 OA
ATOM     26  H   UNL     1      -0.888   0.180   2.413  0.00  0.00    +0.151 HD
ATOM     27  H   UNL     1      -0.838   0.746   4.678  0.00  0.00    +0.159 HD
BRANCH  20  34
ATOM     28  C   UNL     1      -0.019   1.526   0.010  0.00  0.00    +0.009 C 
ATOM     29  C   UNL     1       0.002  -0.004   0.002  0.00  0.00    +0.006 C 
ATOM     30  C   UNL     1      -1.433  -0.534   0.013  0.00  0.00    +0.005 C 
ATOM     31  C   UNL     1      -1.413  -2.063   0.004  0.00  0.00    +0.000 C 
ATOM     32  C   UNL     1      -0.673  -2.570   1.244  0.00  0.00    +0.002 C 
ATOM     33  C   UNL     1       0.763  -2.041   1.233  0.00  0.00    +0.022 C 
ATOM     34  C   UNL     1       0.742  -0.511   1.242  0.00  0.00    +0.077 C 
ENDBRANCH  20  34
ENDBRANCH  19  24
ENDBRANCH   1  19
TORSDOF 8
