REMARK  Name = ZINC03235110
REMARK  7 active torsions:
REMARK  status: ('A' for Active; 'I' for Inactive)
REMARK    1  A    between atoms: C_1  and  C_2
REMARK    2  A    between atoms: C_4  and  C_14
REMARK    3  A    between atoms: C_5  and  C_13
REMARK    4  A    between atoms: N_6  and  C_7
REMARK    5  A    between atoms: N_16  and  N_17
REMARK    6  A    between atoms: C_18  and  C_19
REMARK    7  A    between atoms: C_24  and  O_25
REMARK                            x       y       z     vdW  Elec       q    Type
REMARK                         _______ _______ _______ _____ _____    ______ ____
ROOT
ATOM      1  C   UNL     1       0.042  -3.384  -1.456  0.00  0.00    +0.265 C 
ATOM      2  O   UNL     1       0.058  -4.481  -0.929  0.00  0.00    -0.268 OA
ATOM      3  N   UNL     1       0.035  -3.282  -2.800  0.00  0.00    -0.203 N 
ATOM      4  H   UNL     1       0.021  -2.407  -3.219  0.00  0.00    +0.178 HD
ENDROOT
BRANCH   1   8
ATOM      5  C   UNL     1      -0.018   1.503   0.010  0.00  0.00    +0.064 C 
ATOM      6  C   UNL     1       0.002  -0.004   0.002  0.00  0.00    +0.022 A 
ATOM      7  C   UNL     1       0.008  -0.780  -1.096  0.00  0.00    +0.036 A 
ATOM      8  C   UNL     1       0.029  -2.169  -0.625  0.00  0.00    +0.059 A 
ATOM      9  C   UNL     1       0.034  -2.108   0.742  0.00  0.00    +0.033 A 
ATOM     10  N   UNL     1       0.024  -0.805   1.109  0.00  0.00    -0.317 N 
ATOM     11  C   UNL     1       0.054  -3.289   1.678  0.00  0.00    +0.064 C 
BRANCH  10  12
ATOM     12  C   UNL     1       0.030  -0.344   2.433  0.00  0.00    +0.047 A 
ATOM     13  C   UNL     1       1.133  -0.575   3.244  0.00  0.00    +0.026 A 
ATOM     14  C   UNL     1       1.137  -0.120   4.548  0.00  0.00    +0.002 A 
ATOM     15  C   UNL     1       0.044   0.566   5.046  0.00  0.00    +0.000 A 
ATOM     16  C   UNL     1      -1.055   0.798   4.241  0.00  0.00    +0.002 A 
ATOM     17  C   UNL     1      -1.063   0.350   2.934  0.00  0.00    +0.026 A 
ENDBRANCH  10  12
ENDBRANCH   1   8
BRANCH   3  18
ATOM     18  N   UNL     1       0.047  -4.438  -3.590  0.00  0.00    -0.187 NA
ATOM     19  C   UNL     1       0.040  -4.340  -4.885  0.00  0.00    +0.142 C 
BRANCH  19  20
ATOM     20  C   UNL     1       0.053  -5.556  -5.716  0.00  0.00    +0.037 A 
ATOM     21  C   UNL     1       0.051  -5.454  -7.109  0.00  0.00    +0.028 A 
ATOM     22  C   UNL     1       0.063  -6.597  -7.882  0.00  0.00    +0.019 A 
ATOM     23  C   UNL     1       0.076  -7.846  -7.282  0.00  0.00    +0.019 A 
ATOM     24  C   UNL     1       0.077  -7.959  -5.905  0.00  0.00    +0.047 A 
ATOM     25  C   UNL     1       0.072  -6.821  -5.114  0.00  0.00    +0.126 A 
ATOM     26 BR   UNL     1       0.061  -6.459  -9.768  0.00  0.00    -0.050 Br
BRANCH  25  27
ATOM     27  O   UNL     1       0.079  -6.932  -3.760  0.00  0.00    -0.506 OA
ATOM     28  H   UNL     1      -0.802  -6.976  -3.364  0.00  0.00    +0.292 HD
ENDBRANCH  25  27
ENDBRANCH  19  20
ENDBRANCH   3  18
TORSDOF 5
