REMARK  Name = ZINC49453785
REMARK  2 active torsions:
REMARK  status: ('A' for Active; 'I' for Inactive)
REMARK    1  A    between atoms: C_6  and  C_7
REMARK    2  A    between atoms: C_20  and  C_23
REMARK                            x       y       z     vdW  Elec       q    Type
REMARK                         _______ _______ _______ _____ _____    ______ ____
ROOT
ATOM      1  C   UNL     1      -1.260  -0.783   0.010  0.00  0.00    +0.079 A 
ATOM      2  C   UNL     1      -1.236  -2.173   0.009  0.00  0.00    +0.100 A 
ATOM      3  C   UNL     1      -2.436  -2.881   0.016  0.00  0.00    +0.276 A 
ATOM      4  O   UNL     1      -2.424  -4.103   0.015  0.00  0.00    -0.266 OA
ATOM      5  N   UNL     1      -3.626  -2.211   0.026  0.00  0.00    -0.169 N 
ATOM      6  C   UNL     1      -3.562  -0.845   0.028  0.00  0.00    +0.201 A 
ATOM      7  N   UNL     1      -2.446  -0.163   0.025  0.00  0.00    -0.221 NA
ATOM      8  S   UNL     1      -5.279  -0.376   0.041  0.00  0.00    -0.013 S 
ATOM      9  C   UNL     1      -5.972  -2.022   0.044  0.00  0.00    +0.184 A 
ATOM     10  N   UNL     1      -4.901  -2.769   0.035  0.00  0.00    -0.139 NA
ATOM     11  N   UNL     1      -7.301  -2.406   0.053  0.00  0.00    -0.308 N 
ATOM     12  C   UNL     1      -7.669  -3.829   0.061  0.00  0.00    +0.108 C 
ATOM     13  C   UNL     1      -8.619  -4.086   1.235  0.00  0.00    +0.034 C 
ATOM     14  C   UNL     1      -9.810  -3.129   1.142  0.00  0.00    +0.105 C 
ATOM     15  C   UNL     1      -9.313  -1.684   1.230  0.00  0.00    +0.034 C 
ATOM     16  C   UNL     1      -8.371  -1.399   0.062  0.00  0.00    +0.108 C 
ENDROOT
BRANCH   1  22
ATOM     17  C   UNL     1      -0.017   1.394   0.010  0.00  0.00    +0.030 A 
ATOM     18  C   UNL     1       1.181   2.079   0.002  0.00  0.00    +0.111 A 
ATOM     19  N   UNL     1       2.331   1.434  -0.013  0.00  0.00    -0.263 NA
ATOM     20  C   UNL     1       2.393   0.116  -0.021  0.00  0.00    +0.111 A 
ATOM     21  C   UNL     1       1.243  -0.647  -0.014  0.00  0.00    +0.030 A 
ATOM     22  C   UNL     1       0.002  -0.004   0.002  0.00  0.00    +0.003 A 
ENDBRANCH   1  22
BRANCH  14  23
ATOM     23  C   UNL     1     -10.763  -3.402   2.276  0.00  0.00    +0.359 C 
ATOM     24  O   UNL     1     -11.442  -2.498   2.734  0.00  0.00    -0.246 OA
ATOM     25  O   UNL     1     -10.856  -4.527   2.737  0.00  0.00    -0.246 OA
ENDBRANCH  14  23
TORSDOF 2
