REMARK  Name = ZINC05605042
REMARK  4 active torsions:
REMARK  status: ('A' for Active; 'I' for Inactive)
REMARK    1  A    between atoms: C_8  and  C_13
REMARK    2  A    between atoms: C_9  and  N_12
REMARK    3  A    between atoms: N_14  and  N_15
REMARK    4  A    between atoms: C_16  and  C_17
REMARK                            x       y       z     vdW  Elec       q    Type
REMARK                         _______ _______ _______ _____ _____    ______ ____
ROOT
ATOM      1  C   UNL     1       0.143   0.485   0.915  0.00  0.00    +0.139 C 
ATOM      2  N   UNL     1      -1.121   0.419   1.461  0.00  0.00    -0.221 N 
ATOM      3  H   UNL     1       0.741  -1.394   1.427  0.00  0.00    +0.157 HD
ATOM      4  H   UNL     1      -1.717   1.182   1.398  0.00  0.00    +0.176 HD
ATOM      5  N   UNL     1       1.003  -0.521   0.968  0.00  0.00    -0.384 N 
ATOM      6  H   UNL     1       1.934  -0.423   0.546  0.00  0.00    +0.157 HD
ENDROOT
BRANCH   1  14
ATOM      7  C   UNL     1      -0.294   6.041  -1.368  0.00  0.00    +0.002 A 
ATOM      8  C   UNL     1       1.017   6.141  -1.830  0.00  0.00    +0.002 A 
ATOM      9  C   UNL     1       1.898   5.117  -1.664  0.00  0.00    +0.031 A 
ATOM     10  C   UNL     1       1.485   3.939  -1.018  0.00  0.00    +0.112 A 
ATOM     11  C   UNL     1       0.150   3.837  -0.548  0.00  0.00    +0.092 A 
ATOM     12  C   UNL     1      -0.731   4.917  -0.738  0.00  0.00    +0.030 A 
ATOM     13  N   UNL     1      -0.256   2.720   0.062  0.00  0.00    -0.239 NA
ATOM     14  C   UNL     1       0.591   1.720   0.234  0.00  0.00    +0.144 A 
ATOM     15  C   UNL     1       1.920   1.820  -0.234  0.00  0.00    +0.167 A 
ATOM     16  N   UNL     1       2.332   2.917  -0.844  0.00  0.00    -0.115 N 
ATOM     17  O   UNL     1       3.665   3.012  -1.311  0.00  0.00    -0.162 OA
BRANCH  15  18
ATOM     18  N   UNL     1       2.797   0.761  -0.052  0.00  0.00    -0.340 N 
ATOM     19  H   UNL     1       2.463  -0.149  -0.046  0.00  0.00    +0.144 HD
ATOM     20  H   UNL     1       3.744   0.931   0.070  0.00  0.00    +0.144 HD
ENDBRANCH  15  18
ENDBRANCH   1  14
BRANCH   2  21
ATOM     21  N   UNL     1      -1.546  -0.750   2.106  0.00  0.00    -0.189 NA
ATOM     22  C   UNL     1      -2.736  -0.812   2.619  0.00  0.00    +0.138 C 
BRANCH  22  23
ATOM     23  C   UNL     1      -3.183  -2.043   3.298  0.00  0.00    -0.005 A 
ATOM     24  C   UNL     1      -2.330  -3.146   3.385  0.00  0.00    +0.011 A 
ATOM     25  C   UNL     1      -2.752  -4.292   4.026  0.00  0.00    +0.020 A 
ATOM     26  C   UNL     1      -4.023  -4.355   4.572  0.00  0.00    +0.041 A 
ATOM     27  C   UNL     1      -4.876  -3.267   4.485  0.00  0.00    +0.020 A 
ATOM     28  C   UNL     1      -4.464  -2.113   3.852  0.00  0.00    +0.011 A 
ATOM     29 CL   UNL     1      -4.550  -5.804   5.370  0.00  0.00    -0.084 Cl
ENDBRANCH  22  23
ENDBRANCH   2  21
TORSDOF 4
