REMARK  Name = ZINC13494535
REMARK  14 active torsions:
REMARK  status: ('A' for Active; 'I' for Inactive)
REMARK    1  A    between atoms: C_1  and  C_2
REMARK    2  A    between atoms: C_2  and  C_3
REMARK    3  A    between atoms: C_3  and  C_5
REMARK    4  A    between atoms: C_3  and  N_68
REMARK    5  A    between atoms: N_9  and  C_10
REMARK    6  A    between atoms: C_10  and  C_11
REMARK    7  A    between atoms: C_10  and  C_12
REMARK    8  A    between atoms: C_10  and  C_13
REMARK    9  A    between atoms: C_14  and  C_15
REMARK   10  A    between atoms: C_14  and  N_68
REMARK   11  A    between atoms: C_15  and  C_16
REMARK   12  A    between atoms: C_22  and  C_23
REMARK   13  A    between atoms: C_22  and  N_68
REMARK   14  A    between atoms: C_29  and  C_35
REMARK                            x       y       z     vdW  Elec       q    Type
REMARK                         _______ _______ _______ _____ _____    ______ ____
ROOT
ATOM      1  N   UNL     1      -1.760   0.987   1.797  0.00  0.00    +0.389 N 
ATOM      2  H   UNL     1      -1.812   2.011   1.743  0.00  0.00    -0.080 HD
ENDROOT
BRANCH   1   3
ATOM      3  C   UNL     1      -3.086   0.421   1.470  0.00  0.00    +0.003 C 
BRANCH   3   4
ATOM      4  C   UNL     1      -4.144   1.419   1.863  0.00  0.00    +0.139 A 
ATOM      5  N   UNL     1      -4.094   2.255   2.872  0.00  0.00    -0.115 NA
ATOM      6  N   UNL     1      -5.185   2.941   2.874  0.00  0.00    -0.023 NA
ATOM      7  N   UNL     1      -5.932   2.558   1.898  0.00  0.00    -0.043 NA
ATOM      8  N   UNL     1      -5.325   1.621   1.251  0.00  0.00    -0.226 N 
BRANCH   8   9
ATOM      9  C   UNL     1      -5.827   0.911   0.072  0.00  0.00    +0.059 C 
ATOM     10  C   UNL     1      -5.707  -0.597   0.296  0.00  0.00    +0.036 C 
ATOM     11  C   UNL     1      -7.295   1.278  -0.158  0.00  0.00    +0.036 C 
ATOM     12  C   UNL     1      -5.003   1.312  -1.153  0.00  0.00    +0.036 C 
ENDBRANCH   8   9
ENDBRANCH   3   4
BRANCH   3  14
ATOM     13  C   UNL     1      -2.351  -1.956   1.704  0.00  0.00    +0.002 C 
ATOM     14  C   UNL     1      -3.309  -0.887   2.232  0.00  0.00    -0.011 C 
ENDBRANCH   3  14
ENDBRANCH   1   3
BRANCH   1  15
ATOM     15  C   UNL     1      -1.369   0.598   3.168  0.00  0.00    -0.073 C 
BRANCH  15  16
ATOM     16  C   UNL     1      -2.270   1.331   4.165  0.00  0.00    +0.016 C 
BRANCH  16  17
ATOM     17  C   UNL     1      -1.772   1.087   5.566  0.00  0.00    -0.049 A 
ATOM     18  C   UNL     1      -2.169  -0.045   6.253  0.00  0.00    +0.003 A 
ATOM     19  C   UNL     1      -1.708  -0.271   7.537  0.00  0.00    +0.000 A 
ATOM     20  C   UNL     1      -0.859   0.640   8.137  0.00  0.00    +0.000 A 
ATOM     21  C   UNL     1      -0.466   1.774   7.451  0.00  0.00    +0.000 A 
ATOM     22  C   UNL     1      -0.922   1.998   6.166  0.00  0.00    +0.003 A 
ENDBRANCH  16  17
ENDBRANCH  15  16
ENDBRANCH   1  15
BRANCH   1  23
ATOM     23  C   UNL     1      -0.752   0.506   0.829  0.00  0.00    -0.037 C 
BRANCH  23  24
ATOM     24  C   UNL     1      -0.904   1.284  -0.453  0.00  0.00    +0.001 A 
ATOM     25  C   UNL     1      -0.188   2.420  -0.642  0.00  0.00    +0.017 A 
ATOM     26  C   UNL     1      -0.355   3.151  -1.900  0.00  0.00    -0.001 A 
ATOM     27  C   UNL     1       0.359   4.326  -2.155  0.00  0.00    +0.010 A 
ATOM     28  C   UNL     1       0.177   4.986  -3.336  0.00  0.00    +0.001 A 
ATOM     29  C   UNL     1      -0.711   4.502  -4.287  0.00  0.00    +0.005 A 
ATOM     30  C   UNL     1      -1.426   3.347  -4.057  0.00  0.00    -0.026 A 
ATOM     31  C   UNL     1      -1.257   2.657  -2.861  0.00  0.00    +0.052 A 
ATOM     32  N   UNL     1      -1.959   1.498  -2.605  0.00  0.00    -0.322 N 
ATOM     33  H   UNL     1      -2.581   1.159  -3.268  0.00  0.00    +0.169 HD
ATOM     34  C   UNL     1      -1.795   0.831  -1.449  0.00  0.00    +0.251 A 
ATOM     35  O   UNL     1      -2.432  -0.190  -1.257  0.00  0.00    -0.268 OA
ATOM     36  C   UNL     1      -2.388   2.833  -5.097  0.00  0.00    +0.046 C 
ENDBRANCH  23  24
ENDBRANCH   1  23
TORSDOF 9
