REMARK  Name = ZINC35701524
REMARK  7 active torsions:
REMARK  status: ('A' for Active; 'I' for Inactive)
REMARK    1  A    between atoms: C_1  and  N_2
REMARK    2  A    between atoms: N_2  and  C_3
REMARK    3  A    between atoms: N_2  and  C_9
REMARK    4  A    between atoms: C_3  and  C_4
REMARK    5  A    between atoms: C_9  and  C_11
REMARK    6  A    between atoms: C_9  and  C_13
REMARK    7  A    between atoms: C_11  and  N_12
REMARK                            x       y       z     vdW  Elec       q    Type
REMARK                         _______ _______ _______ _____ _____    ______ ____
ROOT
ATOM      1  C   UNL     1      -1.250  -0.692  -0.080  0.00  0.00    -0.055 C 
ENDROOT
BRANCH   1   2
ATOM      2  C   UNL     1      -2.263  -0.285   0.959  0.00  0.00    -0.059 A 
ATOM      3  C   UNL     1      -1.865  -0.079   2.267  0.00  0.00    +0.006 A 
ATOM      4  C   UNL     1      -2.791   0.292   3.223  0.00  0.00    +0.049 A 
ATOM      5  C   UNL     1      -4.122   0.460   2.873  0.00  0.00    +0.162 A 
ATOM      6  C   UNL     1      -4.522   0.256   1.557  0.00  0.00    +0.162 A 
ATOM      7  C   UNL     1      -3.587  -0.113   0.602  0.00  0.00    +0.051 A 
ATOM      8  O   UNL     1      -5.822   0.422   1.190  0.00  0.00    -0.485 OA
ATOM      9  C   UNL     1      -6.792   0.434   2.244  0.00  0.00    +0.270 C 
ATOM     10  C   UNL     1      -6.274   1.346   3.364  0.00  0.00    +0.270 C 
ATOM     11  O   UNL     1      -5.024   0.823   3.826  0.00  0.00    -0.485 OA
ENDBRANCH   1   2
BRANCH   1  13
ATOM     12  C   UNL     1      -0.272   1.489   0.121  0.00  0.00    -0.095 C 
ATOM     13  N   UNL     1       0.001   0.046   0.140  0.00  0.00    +0.386 N 
ATOM     14  H   UNL     1       0.390  -0.211   1.035  0.00  0.00    -0.081 HD
BRANCH  13  15
ATOM     15  C   UNL     1       0.959  -0.286  -0.923  0.00  0.00    -0.003 C 
BRANCH  15  16
ATOM     16  C   UNL     1       2.286   0.362  -0.624  0.00  0.00    +0.089 A 
ATOM     17  C   UNL     1       3.289  -0.189   0.083  0.00  0.00    +0.042 A 
ATOM     18  C   UNL     1       4.336   0.760   0.117  0.00  0.00    +0.041 A 
ATOM     19  C   UNL     1       3.910   1.835  -0.570  0.00  0.00    +0.195 A 
ATOM     20  O   UNL     1       2.670   1.586  -1.021  0.00  0.00    -0.470 OA
ENDBRANCH  15  16
ENDBRANCH  13  15
ENDBRANCH   1  13
BRANCH   1  21
ATOM     21  C   UNL     1      -0.982  -2.194   0.029  0.00  0.00    -0.098 C 
BRANCH  21  22
ATOM     22  N   UNL     1      -2.213  -2.935  -0.280  0.00  0.00    +0.377 N 
ATOM     23  H   UNL     1      -2.908  -2.740   0.425  0.00  0.00    -0.090 HD
ATOM     24  H   UNL     1      -2.560  -2.649  -1.183  0.00  0.00    -0.090 HD
ATOM     25  H   UNL     1      -2.016  -3.924  -0.293  0.00  0.00    -0.090 HD
ENDBRANCH  21  22
ENDBRANCH   1  21
TORSDOF 6
