REMARK  Name = ZINC22325577
REMARK  13 active torsions:
REMARK  status: ('A' for Active; 'I' for Inactive)
REMARK    1  A    between atoms: C_1  and  C_2
REMARK    2  A    between atoms: C_5  and  S_8
REMARK    3  A    between atoms: S_8  and  C_9
REMARK    4  A    between atoms: C_9  and  C_10
REMARK    5  A    between atoms: C_10  and  C_11
REMARK    6  A    between atoms: C_11  and  N_12
REMARK    7  A    between atoms: C_13  and  C_15
REMARK    8  A    between atoms: C_15  and  N_16
REMARK    9  A    between atoms: N_16  and  C_17
REMARK   10  A    between atoms: N_16  and  S_25
REMARK   11  A    between atoms: C_22  and  C_23
REMARK   12  A    between atoms: S_25  and  C_28
REMARK   13  A    between atoms: C_31  and  C_34
REMARK                            x       y       z     vdW  Elec       q    Type
REMARK                         _______ _______ _______ _____ _____    ______ ____
ROOT
ATOM      1  N   UNL     1      -2.021   2.058   1.208  0.00  0.00    -0.194 N 
ENDROOT
BRANCH   1   2
ATOM      2  C   UNL     1      -2.736   1.151   1.993  0.00  0.00    +0.056 A 
ATOM      3  C   UNL     1      -4.124   1.123   1.934  0.00  0.00    +0.025 A 
ATOM      4  C   UNL     1      -4.829   0.225   2.711  0.00  0.00    +0.003 A 
ATOM      5  C   UNL     1      -4.156  -0.645   3.548  0.00  0.00    +0.020 A 
ATOM      6  C   UNL     1      -2.774  -0.620   3.611  0.00  0.00    +0.046 A 
ATOM      7  C   UNL     1      -2.062   0.273   2.831  0.00  0.00    -0.010 A 
ATOM      8  C   UNL     1      -0.557   0.296   2.894  0.00  0.00    +0.047 C 
ATOM      9 CL   UNL     1      -1.933  -1.714   4.663  0.00  0.00    -0.083 Cl
ENDBRANCH   1   2
BRANCH   1  10
ATOM     10  S   UNL     1      -1.499   1.616  -0.300  0.00  0.00    +0.075 S 
ATOM     11  O   UNL     1      -1.180   2.818  -0.988  0.00  0.00    -0.150 OA
ATOM     12  O   UNL     1      -2.446   0.681  -0.799  0.00  0.00    -0.150 OA
BRANCH  10  13
ATOM     13  C   UNL     1       0.014   0.738  -0.091  0.00  0.00    +0.109 A 
ATOM     14  C   UNL     1       1.201   1.431   0.057  0.00  0.00    +0.029 A 
ATOM     15  C   UNL     1       2.389   0.742   0.213  0.00  0.00    +0.005 A 
ATOM     16  C   UNL     1       2.390  -0.640   0.224  0.00  0.00    -0.050 A 
ATOM     17  C   UNL     1       1.203  -1.334   0.077  0.00  0.00    +0.005 A 
ATOM     18  C   UNL     1       0.015  -0.645  -0.081  0.00  0.00    +0.029 A 
ATOM     19  C   UNL     1       3.685  -1.392   0.396  0.00  0.00    +0.044 C 
ENDBRANCH  10  13
ENDBRANCH   1  10
BRANCH   1  20
ATOM     20  C   UNL     1      -1.731   3.401   1.719  0.00  0.00    +0.227 C 
BRANCH  20  22
ATOM     21  N   UNL     1      -2.861   5.598   1.825  0.00  0.00    -0.314 N 
ATOM     22  C   UNL     1      -2.903   4.307   1.442  0.00  0.00    +0.232 C 
ATOM     23  O   UNL     1      -3.883   3.874   0.873  0.00  0.00    -0.274 OA
ATOM     24  H   UNL     1      -1.972   5.990   2.341  0.00  0.00    +0.149 HD
BRANCH  21  25
ATOM     25  C   UNL     1      -4.000   6.479   1.555  0.00  0.00    +0.105 C 
BRANCH  25  26
ATOM     26  C   UNL     1      -3.698   7.881   2.089  0.00  0.00    +0.030 C 
BRANCH  26  27
ATOM     27  C   UNL     1      -4.888   8.801   1.807  0.00  0.00    +0.076 C 
BRANCH  27  28
ATOM     28  S   UNL     1      -4.529  10.463   2.440  0.00  0.00    -0.125 S 
BRANCH  28  33
ATOM     29  C   UNL     1      -9.479  13.641   1.083  0.00  0.00    +0.044 C 
ATOM     30  C   UNL     1      -8.243  12.847   1.421  0.00  0.00    -0.050 A 
ATOM     31  C   UNL     1      -7.189  13.459   2.075  0.00  0.00    +0.004 A 
ATOM     32  C   UNL     1      -6.055  12.735   2.387  0.00  0.00    +0.015 A 
ATOM     33  C   UNL     1      -5.974  11.391   2.044  0.00  0.00    +0.008 A 
ATOM     34  C   UNL     1      -7.034  10.781   1.383  0.00  0.00    +0.015 A 
ATOM     35  C   UNL     1      -8.167  11.510   1.079  0.00  0.00    +0.004 A 
ENDBRANCH  28  33
ENDBRANCH  27  28
ENDBRANCH  26  27
ENDBRANCH  25  26
ENDBRANCH  21  25
ENDBRANCH  20  22
ENDBRANCH   1  20
TORSDOF 10
