REMARK  Name = ZINC67317432
REMARK  7 active torsions:
REMARK  status: ('A' for Active; 'I' for Inactive)
REMARK    1  A    between atoms: C_1  and  C_2
REMARK    2  A    between atoms: C_2  and  N_3
REMARK    3  A    between atoms: N_3  and  C_4
REMARK    4  A    between atoms: C_4  and  C_5
REMARK    5  A    between atoms: C_11  and  C_13
REMARK    6  A    between atoms: C_13  and  N_14
REMARK    7  A    between atoms: C_21  and  C_24
REMARK                            x       y       z     vdW  Elec       q    Type
REMARK                         _______ _______ _______ _____ _____    ______ ____
ROOT
ATOM      1  N   UNL     1      -2.159  -0.833   3.607  0.00  0.00    +0.386 N 
ATOM      2  C   UNL     1      -3.313   0.073   3.607  0.00  0.00    -0.073 C 
ATOM      3  C   UNL     1      -4.283  -0.331   4.720  0.00  0.00    +0.053 C 
ATOM      4  C   UNL     1      -3.563  -0.265   6.065  0.00  0.00    +0.201 C 
ATOM      5  C   UNL     1      -2.309  -1.137   6.034  0.00  0.00    +0.053 C 
ATOM      6  C   UNL     1      -1.419  -0.700   4.868  0.00  0.00    -0.073 C 
ATOM      7  N   UNL     1      -3.212   1.123   6.388  0.00  0.00    -0.286 N 
ATOM      8  C   UNL     1      -3.870   1.433   7.567  0.00  0.00    +0.186 C 
ATOM      9  N   UNL     1      -4.563   0.428   7.992  0.00  0.00    -0.065 NA
ATOM     10  O   UNL     1      -4.435  -0.681   7.120  0.00  0.00    -0.366 OA
ATOM     11  H   UNL     1      -2.632   1.708   5.877  0.00  0.00    +0.151 HD
ATOM     12  H   UNL     1      -2.481  -1.784   3.507  0.00  0.00    -0.081 HD
ENDROOT
BRANCH   8  13
ATOM     13  C   UNL     1      -3.789   2.744   8.251  0.00  0.00    +0.107 A 
ATOM     14  C   UNL     1      -4.489   2.948   9.439  0.00  0.00    +0.031 A 
ATOM     15  C   UNL     1      -4.403   4.179  10.067  0.00  0.00    +0.004 A 
ATOM     16  C   UNL     1      -3.620   5.166   9.486  0.00  0.00    +0.020 A 
ATOM     17  C   UNL     1      -2.952   4.894   8.305  0.00  0.00    +0.111 A 
ATOM     18  N   UNL     1      -3.046   3.713   7.731  0.00  0.00    -0.252 NA
ENDBRANCH   8  13
BRANCH   1  19
ATOM     19  C   UNL     1      -1.274  -0.497   2.484  0.00  0.00    +0.019 C 
BRANCH  19  21
ATOM     20  N   UNL     1      -1.372  -0.511   0.012  0.00  0.00    -0.299 N 
ATOM     21  C   UNL     1      -1.993  -0.751   1.184  0.00  0.00    +0.199 C 
ATOM     22  O   UNL     1      -3.131  -1.171   1.193  0.00  0.00    -0.278 OA
BRANCH  20  24
ATOM     23  C   UNL     1      -0.019   1.526   0.010  0.00  0.00    +0.024 C 
ATOM     24  C   UNL     1       0.002  -0.004   0.002  0.00  0.00    +0.104 C 
ENDBRANCH  20  24
BRANCH  20  25
ATOM     25  C   UNL     1      -2.072  -0.758  -1.251  0.00  0.00    +0.142 C 
BRANCH  25  26
ATOM     26  C   UNL     1      -1.820  -2.175  -1.696  0.00  0.00    -0.030 A 
ATOM     27  C   UNL     1      -0.734  -2.464  -2.502  0.00  0.00    +0.005 A 
ATOM     28  C   UNL     1      -0.503  -3.765  -2.910  0.00  0.00    +0.000 A 
ATOM     29  C   UNL     1      -1.357  -4.776  -2.512  0.00  0.00    +0.000 A 
ATOM     30  C   UNL     1      -2.442  -4.487  -1.706  0.00  0.00    +0.000 A 
ATOM     31  C   UNL     1      -2.671  -3.188  -1.294  0.00  0.00    +0.005 A 
ENDBRANCH  25  26
ENDBRANCH  20  25
ENDBRANCH  19  21
ENDBRANCH   1  19
TORSDOF 6
