REMARK  Name = ZINC64002954
REMARK  5 active torsions:
REMARK  status: ('A' for Active; 'I' for Inactive)
REMARK    1  A    between atoms: C_1  and  C_2
REMARK    2  A    between atoms: N_11  and  C_12
REMARK    3  A    between atoms: C_12  and  C_13
REMARK    4  A    between atoms: C_13  and  C_15
REMARK    5  A    between atoms: C_13  and  C_22
REMARK                            x       y       z     vdW  Elec       q    Type
REMARK                         _______ _______ _______ _____ _____    ______ ____
ROOT
ATOM      1  C   UNL     1       4.544  -6.838  -1.789  0.00  0.00    +0.066 C 
ENDROOT
BRANCH   1   2
ATOM      2  C   UNL     1       5.117  -8.039  -1.082  0.00  0.00    -0.033 C 
ATOM      3  C   UNL     1       4.745  -9.330  -1.240  0.00  0.00    -0.000 A 
ATOM      4  C   UNL     1       3.734  -9.977  -2.084  0.00  0.00    +0.010 A 
ATOM      5  C   UNL     1       3.590 -11.320  -2.022  0.00  0.00    +0.001 A 
ATOM      6  C   UNL     1       4.380 -12.108  -1.174  0.00  0.00    +0.002 A 
ATOM      7  C   UNL     1       5.330 -11.586  -0.369  0.00  0.00    +0.026 A 
ATOM      8  C   UNL     1       5.567 -10.184  -0.354  0.00  0.00    +0.043 A 
ATOM      9  N   UNL     1       6.415  -9.450   0.326  0.00  0.00    -0.380 N 
ATOM     10  C   UNL     1       6.230  -8.046  -0.058  0.00  0.00    +0.145 C 
ATOM     11  H   UNL     1       7.059  -9.780   0.972  0.00  0.00    +0.160 HD
ENDBRANCH   1   2
BRANCH   1  12
ATOM     12  C   UNL     1       5.632  -6.149  -2.572  0.00  0.00    -0.020 A 
ATOM     13  C   UNL     1       6.748  -5.658  -1.921  0.00  0.00    +0.006 A 
ATOM     14  C   UNL     1       7.746  -5.027  -2.639  0.00  0.00    +0.000 A 
ATOM     15  C   UNL     1       7.629  -4.886  -4.010  0.00  0.00    +0.001 A 
ATOM     16  C   UNL     1       6.513  -5.377  -4.662  0.00  0.00    +0.020 A 
ATOM     17  C   UNL     1       5.517  -6.014  -3.944  0.00  0.00    +0.045 A 
ATOM     18 CL   UNL     1       4.119  -6.636  -4.764  0.00  0.00    -0.083 Cl
ENDBRANCH   1  12
BRANCH   1  19
ATOM     19  C   UNL     1       3.966  -5.867  -0.758  0.00  0.00    +0.118 C 
BRANCH  19  29
ATOM     20  C   UNL     1      -0.019   1.526   0.010  0.00  0.00    +0.055 C 
ATOM     21  C   UNL     1       0.002  -0.004   0.002  0.00  0.00    +0.208 C 
ATOM     22  C   UNL     1       0.787  -0.541  -1.219  0.00  0.00    +0.122 C 
ATOM     23  C   UNL     1       1.507  -1.746  -0.643  0.00  0.00    +0.145 C 
ATOM     24  N   UNL     1       1.462  -1.668   0.642  0.00  0.00    -0.073 NA
ATOM     25  O   UNL     1       0.783  -0.516   1.101  0.00  0.00    -0.389 OA
ATOM     26  N   UNL     1       2.108  -2.754  -1.373  0.00  0.00    -0.255 N 
ATOM     27  C   UNL     1       2.717  -3.775  -0.737  0.00  0.00    +0.305 C 
ATOM     28  O   UNL     1       2.739  -3.808   0.478  0.00  0.00    -0.252 OA
ATOM     29  N   UNL     1       3.303  -4.758  -1.449  0.00  0.00    -0.298 N 
ATOM     30  H   UNL     1       2.091  -2.728  -2.342  0.00  0.00    +0.158 HD
ATOM     31  H   UNL     1       3.287  -4.731  -2.418  0.00  0.00    +0.150 HD
ENDBRANCH  19  29
ENDBRANCH   1  19
TORSDOF 4
