REMARK  Name = ZINC12659538
REMARK  7 active torsions:
REMARK  status: ('A' for Active; 'I' for Inactive)
REMARK    1  A    between atoms: C_1  and  C_2
REMARK    2  A    between atoms: C_18  and  C_20
REMARK    3  A    between atoms: C_20  and  N_79
REMARK    4  A    between atoms: C_23  and  C_26
REMARK    5  A    between atoms: C_26  and  C_27
REMARK    6  A    between atoms: C_26  and  C_33
REMARK    7  A    between atoms: C_26  and  O_39
REMARK                            x       y       z     vdW  Elec       q    Type
REMARK                         _______ _______ _______ _____ _____    ______ ____
ROOT
ATOM      1  C   UNL     1       0.402   2.841   0.271  0.00  0.00    -0.078 C 
ATOM      2  C   UNL     1      -0.447   2.987   1.536  0.00  0.00    -0.012 C 
ATOM      3  C   UNL     1      -1.764   2.228   1.352  0.00  0.00    +0.026 C 
ATOM      4  C   UNL     1      -2.490   2.775   0.120  0.00  0.00    -0.012 C 
ATOM      5  C   UNL     1      -1.582   2.635  -1.105  0.00  0.00    -0.078 C 
ATOM      6  N   UNL     1      -0.343   3.406  -0.874  0.00  0.00    +0.380 N 
ATOM      7  H   UNL     1      -0.591   4.380  -0.661  0.00  0.00    -0.082 HD
ENDROOT
BRANCH   6   8
ATOM      8  C   UNL     1       0.501   3.381  -2.086  0.00  0.00    -0.064 C 
BRANCH   8  23
ATOM      9  C   UNL     1      -1.007   6.055  -6.757  0.00  0.00    +0.011 C 
ATOM     10  C   UNL     1       0.331   5.389  -7.086  0.00  0.00    -0.023 C 
ATOM     11  C   UNL     1       0.804   5.839  -8.467  0.00  0.00    +0.007 C 
ATOM     12  C   UNL     1      -0.261   5.504  -9.514  0.00  0.00    +0.003 C 
ATOM     13  C   UNL     1      -0.446   3.985  -9.584  0.00  0.00    +0.037 C 
ATOM     14  C   UNL     1      -0.777   3.439  -8.204  0.00  0.00    +0.096 C 
ATOM     15  C   UNL     1       0.165   3.863  -7.076  0.00  0.00    +0.030 C 
ATOM     16  C   UNL     1      -0.428   3.458  -5.728  0.00  0.00    +0.014 C 
ATOM     17  C   UNL     1       0.523   3.819  -4.586  0.00  0.00    +0.042 C 
ATOM     18  C   UNL     1       0.925   5.305  -4.649  0.00  0.00    +0.181 C 
ATOM     19  C   UNL     1       1.365   5.755  -6.021  0.00  0.00    +0.052 C 
ATOM     20  O   UNL     1      -0.261   6.000  -4.168  0.00  0.00    -0.461 OA
ATOM     21  C   UNL     1      -0.746   5.286  -3.128  0.00  0.00    +0.309 C 
ATOM     22  O   UNL     1      -1.402   5.733  -2.218  0.00  0.00    -0.251 OA
ATOM     23  C   UNL     1      -0.335   3.834  -3.285  0.00  0.00    +0.088 C 
ATOM     24  C   UNL     1      -1.437   2.065  -8.108  0.00  0.00    +0.196 C 
ATOM     25  O   UNL     1      -2.161   3.280  -7.900  0.00  0.00    -0.368 OA
ENDBRANCH   8  23
ENDBRANCH   6   8
BRANCH   3  26
ATOM     26  C   UNL     1      -2.643   2.420   2.590  0.00  0.00    +0.119 C 
BRANCH  26  27
ATOM     27  C   UNL     1      -3.938   1.671   2.407  0.00  0.00    -0.011 A 
ATOM     28  C   UNL     1      -3.923   0.367   1.948  0.00  0.00    +0.007 A 
ATOM     29  C   UNL     1      -5.110  -0.322   1.785  0.00  0.00    +0.000 A 
ATOM     30  C   UNL     1      -6.313   0.296   2.071  0.00  0.00    +0.000 A 
ATOM     31  C   UNL     1      -6.328   1.602   2.525  0.00  0.00    +0.000 A 
ATOM     32  C   UNL     1      -5.140   2.289   2.693  0.00  0.00    +0.007 A 
ENDBRANCH  26  27
BRANCH  26  33
ATOM     33  C   UNL     1      -1.923   1.890   3.804  0.00  0.00    -0.011 A 
ATOM     34  C   UNL     1      -1.332   0.641   3.767  0.00  0.00    +0.007 A 
ATOM     35  C   UNL     1      -0.668   0.158   4.878  0.00  0.00    +0.000 A 
ATOM     36  C   UNL     1      -0.604   0.919   6.031  0.00  0.00    +0.000 A 
ATOM     37  C   UNL     1      -1.200   2.166   6.069  0.00  0.00    +0.000 A 
ATOM     38  C   UNL     1      -1.859   2.651   4.956  0.00  0.00    +0.007 A 
ENDBRANCH  26  33
BRANCH  26  39
ATOM     39  O   UNL     1      -2.918   3.811   2.768  0.00  0.00    -0.379 OA
ATOM     40  H   UNL     1      -2.129   4.355   2.892  0.00  0.00    +0.211 HD
ENDBRANCH  26  39
ENDBRANCH   3  26
TORSDOF 6
