REMARK  Name = ZINC61890379
REMARK  5 active torsions:
REMARK  status: ('A' for Active; 'I' for Inactive)
REMARK    1  A    between atoms: C_3  and  N_21
REMARK    2  A    between atoms: C_4  and  S_8
REMARK    3  A    between atoms: S_8  and  N_11
REMARK    4  A    between atoms: N_11  and  C_12
REMARK    5  A    between atoms: C_17  and  C_19
REMARK                            x       y       z     vdW  Elec       q    Type
REMARK                         _______ _______ _______ _____ _____    ______ ____
ROOT
ATOM      1  S   UNL     1       3.760  -0.946  -0.166  0.00  0.00    +0.061 S 
ATOM      2  O   UNL     1       4.493  -0.614   1.005  0.00  0.00    -0.153 OA
ATOM      3  O   UNL     1       3.316  -2.268  -0.437  0.00  0.00    -0.153 OA
ENDROOT
BRANCH   1   7
ATOM      4  C   UNL     1       0.074   1.683  -0.177  0.00  0.00    +0.017 A 
ATOM      5  C   UNL     1       0.322   0.834  -1.240  0.00  0.00    +0.036 A 
ATOM      6  C   UNL     1       1.447   0.032  -1.236  0.00  0.00    +0.152 A 
ATOM      7  C   UNL     1       2.326   0.077  -0.170  0.00  0.00    +0.136 A 
ATOM      8  C   UNL     1       2.080   0.926   0.893  0.00  0.00    +0.046 A 
ATOM      9  C   UNL     1       0.953   1.729   0.890  0.00  0.00    +0.020 A 
ATOM     10 BR   UNL     1       0.616   2.891   2.343  0.00  0.00    -0.050 Br
BRANCH   6  11
ATOM     11  N   UNL     1       1.711  -0.877  -2.374  0.00  0.00    +0.058 N 
ATOM     12  O   UNL     1       0.883  -1.012  -3.245  0.00  0.00    -0.126 OA
ATOM     13  O   UNL     1       2.754  -1.486  -2.433  0.00  0.00    -0.126 OA
ENDBRANCH   6  11
ENDBRANCH   1   7
BRANCH   1  14
ATOM     14  N   UNL     1       4.693  -0.487  -1.455  0.00  0.00    -0.186 NA
ATOM     15  H   UNL     1       4.856  -1.108  -2.182  0.00  0.00    +0.148 HD
BRANCH  14  16
ATOM     16  C   UNL     1       5.273   0.858  -1.497  0.00  0.00    +0.093 C 
ATOM     17  C   UNL     1       6.737   0.818  -1.013  0.00  0.00    +0.022 C 
ATOM     18  C   UNL     1       7.565   0.714  -2.318  0.00  0.00    +0.003 C 
ATOM     19  C   UNL     1       6.784   1.629  -3.293  0.00  0.00    +0.020 C 
ATOM     20  C   UNL     1       5.301   1.374  -2.947  0.00  0.00    +0.110 C 
BRANCH  20  21
ATOM     21  C   UNL     1       4.536   2.627  -3.051  0.00  0.00    +0.067 C 
ATOM     22  N   UNL     1       3.945   3.594  -3.132  0.00  0.00    -0.196 NA
ENDBRANCH  20  21
ENDBRANCH  14  16
ENDBRANCH   1  14
TORSDOF 5
