REMARK  Name = ZINC26936446
REMARK  6 active torsions:
REMARK  status: ('A' for Active; 'I' for Inactive)
REMARK    1  A    between atoms: C_1  and  C_2
REMARK    2  A    between atoms: C_2  and  C_4
REMARK    3  A    between atoms: C_2  and  N_19
REMARK    4  A    between atoms: N_6  and  C_7
REMARK    5  A    between atoms: C_15  and  C_16
REMARK    6  A    between atoms: C_16  and  C_18
REMARK                            x       y       z     vdW  Elec       q    Type
REMARK                         _______ _______ _______ _____ _____    ______ ____
ROOT
ATOM      1  C   UNL     1       0.679   1.931  -0.893  0.00  0.00    +0.204 C 
ATOM      2  O   UNL     1       1.674   1.245  -0.800  0.00  0.00    -0.277 OA
ATOM      3  N   UNL     1      -0.495   1.370  -1.244  0.00  0.00    -0.283 N 
ATOM      4  H   UNL     1      -1.385   2.001  -1.389  0.00  0.00    +0.155 HD
ENDROOT
BRANCH   3   5
ATOM      5  C   UNL     1      -0.582  -0.003  -1.424  0.00  0.00    +0.090 A 
ATOM      6  C   UNL     1       0.256  -1.032  -0.800  0.00  0.00    +0.042 A 
ATOM      7  C   UNL     1       1.324  -0.999   0.099  0.00  0.00    +0.013 A 
ATOM      8  C   UNL     1       1.909  -2.167   0.500  0.00  0.00    +0.001 A 
ATOM      9  C   UNL     1       1.448  -3.385   0.019  0.00  0.00    +0.004 A 
ATOM     10  C   UNL     1       0.395  -3.438  -0.868  0.00  0.00    +0.047 A 
ATOM     11  C   UNL     1      -0.216  -2.263  -1.290  0.00  0.00    +0.138 A 
ATOM     12  O   UNL     1      -1.240  -2.013  -2.130  0.00  0.00    -0.450 OA
ATOM     13  C   UNL     1      -1.481  -0.686  -2.224  0.00  0.00    +0.192 A 
BRANCH  13  14
ATOM     14  C   UNL     1      -2.485  -0.093  -3.011  0.00  0.00    +0.197 C 
ATOM     15  O   UNL     1      -2.552   1.117  -3.101  0.00  0.00    -0.289 OA
ATOM     16  C   UNL     1      -3.477  -0.959  -3.744  0.00  0.00    +0.095 C 
ENDBRANCH  13  14
ENDBRANCH   3   5
BRANCH   1  18
ATOM     17  C   UNL     1       0.418   3.671   0.854  0.00  0.00    -0.004 C 
ATOM     18  C   UNL     1       0.754   3.410  -0.616  0.00  0.00    +0.016 C 
BRANCH  18  19
ATOM     19  N   UNL     1       2.111   3.893  -0.901  0.00  0.00    +0.387 N 
ATOM     20  C   UNL     1       3.057   3.446   0.129  0.00  0.00    -0.073 C 
ATOM     21  C   UNL     1       4.424   4.089  -0.117  0.00  0.00    +0.046 C 
ATOM     22  C   UNL     1       4.923   3.695  -1.509  0.00  0.00    +0.167 C 
ATOM     23  C   UNL     1       3.898   4.122  -2.562  0.00  0.00    +0.046 C 
ATOM     24  C   UNL     1       2.547   3.477  -2.241  0.00  0.00    -0.073 C 
ATOM     25  O   UNL     1       6.178   4.344  -1.770  0.00  0.00    -0.346 OA
ATOM     26  C   UNL     1       7.183   3.365  -1.413  0.00  0.00    +0.191 C 
ATOM     27  C   UNL     1       6.507   2.044  -1.858  0.00  0.00    +0.191 C 
ATOM     28  O   UNL     1       5.114   2.276  -1.569  0.00  0.00    -0.346 OA
ATOM     29  H   UNL     1       2.092   4.993  -0.883  0.00  0.00    -0.081 HD
ENDBRANCH  18  19
ENDBRANCH   1  18
TORSDOF 4
