REMARK  Name = ZINC65132267
REMARK  8 active torsions:
REMARK  status: ('A' for Active; 'I' for Inactive)
REMARK    1  A    between atoms: C_1  and  C_2
REMARK    2  A    between atoms: C_2  and  C_3
REMARK    3  A    between atoms: C_3  and  N_4
REMARK    4  A    between atoms: C_5  and  C_7
REMARK    5  A    between atoms: C_17  and  S_20
REMARK    6  A    between atoms: S_20  and  C_21
REMARK    7  A    between atoms: C_21  and  C_22
REMARK    8  A    between atoms: N_24  and  C_25
REMARK                            x       y       z     vdW  Elec       q    Type
REMARK                         _______ _______ _______ _____ _____    ______ ____
ROOT
ATOM      1  C   UNL     1       1.411  -4.111  -2.218  0.00  0.00    +0.092 C 
ATOM      2  C   UNL     1       2.148  -4.605  -3.465  0.00  0.00    +0.016 C 
ATOM      3  C   UNL     1       2.209  -6.134  -3.451  0.00  0.00    +0.020 C 
ATOM      4  C   UNL     1       0.785  -6.698  -3.477  0.00  0.00    +0.106 C 
ATOM      5  N   UNL     1       0.025  -6.115  -2.362  0.00  0.00    -0.313 N 
ATOM      6  C   UNL     1      -0.022  -4.652  -2.228  0.00  0.00    +0.119 C 
ATOM      7  C   UNL     1      -0.638  -6.933  -1.450  0.00  0.00    +0.144 A 
ATOM      8  C   UNL     1      -0.588  -8.321  -1.590  0.00  0.00    +0.048 A 
ATOM      9  C   UNL     1      -1.262  -9.091  -0.659  0.00  0.00    +0.040 A 
ATOM     10  C   UNL     1      -1.949  -8.432   0.362  0.00  0.00    +0.120 A 
ATOM     11  N   UNL     1      -1.940  -7.110   0.415  0.00  0.00    -0.141 NA
ATOM     12  N   UNL     1      -1.311  -6.396  -0.446  0.00  0.00    -0.133 NA
ENDROOT
BRANCH   1  14
ATOM     13  N   UNL     1       0.777  -1.945  -1.207  0.00  0.00    -0.315 N 
ATOM     14  C   UNL     1       1.380  -2.605  -2.216  0.00  0.00    +0.218 C 
ATOM     15  O   UNL     1       1.898  -1.986  -3.121  0.00  0.00    -0.275 OA
ATOM     16  H   UNL     1       0.363  -2.439  -0.483  0.00  0.00    +0.149 HD
BRANCH  13  17
ATOM     17  C   UNL     1       0.747  -0.480  -1.205  0.00  0.00    +0.104 C 
BRANCH  17  19
ATOM     18  C   UNL     1      -0.023   1.543   0.043  0.00  0.00    +0.005 C 
ATOM     19  C   UNL     1       0.008   0.013   0.041  0.00  0.00    +0.015 C 
ENDBRANCH  17  19
ENDBRANCH  13  17
ENDBRANCH   1  14
BRANCH  10  20
ATOM     20  S   UNL     1      -2.826  -9.359   1.577  0.00  0.00    -0.095 S 
BRANCH  20  21
ATOM     21  C   UNL     1      -3.538  -8.094   2.665  0.00  0.00    +0.172 C 
BRANCH  21  22
ATOM     22  C   UNL     1      -4.325  -8.761   3.764  0.00  0.00    +0.227 C 
ATOM     23  O   UNL     1      -4.398  -9.971   3.808  0.00  0.00    -0.275 OA
ATOM     24  N   UNL     1      -4.947  -8.013   4.696  0.00  0.00    -0.284 N 
ATOM     25  H   UNL     1      -4.957  -7.046   4.615  0.00  0.00    +0.155 HD
BRANCH  24  26
ATOM     26  C   UNL     1      -5.578  -8.631   5.782  0.00  0.00    +0.047 A 
ATOM     27  C   UNL     1      -5.049  -9.794   6.325  0.00  0.00    +0.024 A 
ATOM     28  C   UNL     1      -5.674 -10.401   7.397  0.00  0.00    +0.002 A 
ATOM     29  C   UNL     1      -6.826  -9.852   7.929  0.00  0.00    +0.001 A 
ATOM     30  C   UNL     1      -7.357  -8.695   7.391  0.00  0.00    +0.017 A 
ATOM     31  C   UNL     1      -6.733  -8.079   6.322  0.00  0.00    +0.039 A 
ATOM     32 BR   UNL     1      -7.455  -6.491   5.591  0.00  0.00    -0.048 Br
ENDBRANCH  24  26
ENDBRANCH  21  22
ENDBRANCH  20  21
ENDBRANCH  10  20
TORSDOF 7
