REMARK  Name = ZINC07679665
REMARK  6 active torsions:
REMARK  status: ('A' for Active; 'I' for Inactive)
REMARK    1  A    between atoms: C_7  and  C_13
REMARK    2  A    between atoms: C_13  and  O_15
REMARK    3  A    between atoms: O_15  and  C_16
REMARK    4  A    between atoms: C_16  and  C_17
REMARK    5  A    between atoms: N_19  and  C_20
REMARK    6  A    between atoms: C_21  and  C_25
REMARK                            x       y       z     vdW  Elec       q    Type
REMARK                         _______ _______ _______ _____ _____    ______ ____
ROOT
ATOM      1  O   UNL     1      -1.175  -2.327   0.104  0.00  0.00    -0.452 OA
ENDROOT
BRANCH   1   2
ATOM      2  C   UNL     1       0.014  -2.947  -0.013  0.00  0.00    +0.340 C 
ATOM      3  O   UNL     1       0.061  -4.156  -0.112  0.00  0.00    -0.245 OA
BRANCH   2  10
ATOM      4  C   UNL     1      -0.017   1.362  -0.052  0.00  0.00    +0.001 A 
ATOM      5  C   UNL     1       1.169   2.083  -0.059  0.00  0.00    +0.002 A 
ATOM      6  C   UNL     1       2.385   1.435  -0.054  0.00  0.00    +0.026 A 
ATOM      7  C   UNL     1       2.428   0.043  -0.042  0.00  0.00    +0.050 A 
ATOM      8  C   UNL     1       1.224  -0.683  -0.035  0.00  0.00    +0.012 A 
ATOM      9  C   UNL     1       0.002  -0.004  -0.040  0.00  0.00    +0.011 A 
ATOM     10  C   UNL     1       1.266  -2.153  -0.022  0.00  0.00    +0.073 A 
ATOM     11  C   UNL     1       2.484  -2.771  -0.017  0.00  0.00    +0.085 A 
ATOM     12  C   UNL     1       3.701  -1.961  -0.026  0.00  0.00    +0.250 A 
ATOM     13  O   UNL     1       4.788  -2.510  -0.022  0.00  0.00    -0.268 OA
ATOM     14  N   UNL     1       3.638  -0.618  -0.038  0.00  0.00    -0.322 N 
ATOM     15  H   UNL     1       4.460  -0.104  -0.043  0.00  0.00    +0.169 HD
ENDBRANCH   2  10
ENDBRANCH   1   2
BRANCH   1  16
ATOM     16  C   UNL     1      -2.341  -3.154   0.105  0.00  0.00    +0.328 C 
BRANCH  16  17
ATOM     17  C   UNL     1      -3.569  -2.292   0.244  0.00  0.00    +0.255 C 
ATOM     18  O   UNL     1      -3.457  -1.087   0.333  0.00  0.00    -0.272 OA
ATOM     19  N   UNL     1      -4.791  -2.858   0.269  0.00  0.00    -0.277 N 
ATOM     20  H   UNL     1      -4.881  -3.822   0.198  0.00  0.00    +0.155 HD
BRANCH  19  21
ATOM     21  C   UNL     1      -5.921  -2.065   0.397  0.00  0.00    +0.084 A 
ATOM     22  C   UNL     1      -7.247  -2.470   0.446  0.00  0.00    +0.065 A 
ATOM     23  C   UNL     1      -8.237  -1.427   0.584  0.00  0.00    +0.022 A 
ATOM     24  C   UNL     1      -7.759  -0.170   0.649  0.00  0.00    +0.048 A 
ATOM     25  S   UNL     1      -5.998  -0.395   0.534  0.00  0.00    -0.081 S 
BRANCH  22  26
ATOM     26  C   UNL     1      -7.624  -3.885   0.362  0.00  0.00    +0.244 C 
ATOM     27  O   UNL     1      -6.764  -4.738   0.246  0.00  0.00    -0.270 OA
ATOM     28  N   UNL     1      -8.923  -4.240   0.413  0.00  0.00    -0.325 N 
ATOM     29  H   UNL     1      -9.609  -3.559   0.506  0.00  0.00    +0.145 HD
ATOM     30  H   UNL     1      -9.173  -5.175   0.358  0.00  0.00    +0.145 HD
ENDBRANCH  22  26
ENDBRANCH  19  21
ENDBRANCH  16  17
ENDBRANCH   1  16
TORSDOF 6
