REMARK  Name = ZINC09312699
REMARK  16 active torsions:
REMARK  status: ('A' for Active; 'I' for Inactive)
REMARK    1  A    between atoms: C_1  and  C_2
REMARK    2  A    between atoms: C_2  and  N_77
REMARK    3  A    between atoms: C_3  and  C_4
REMARK    4  A    between atoms: C_3  and  N_77
REMARK    5  A    between atoms: C_5  and  C_6
REMARK    6  A    between atoms: C_5  and  N_77
REMARK    7  A    between atoms: C_6  and  C_7
REMARK    8  A    between atoms: C_7  and  N_8
REMARK    9  A    between atoms: C_9  and  C_29
REMARK   10  A    between atoms: C_12  and  C_13
REMARK   11  A    between atoms: C_12  and  O_24
REMARK   12  A    between atoms: C_20  and  C_23
REMARK   13  A    between atoms: C_32  and  C_35
REMARK   14  A    between atoms: C_35  and  C_36
REMARK   15  A    between atoms: C_35  and  C_37
REMARK   16  A    between atoms: C_35  and  C_38
REMARK                            x       y       z     vdW  Elec       q    Type
REMARK                         _______ _______ _______ _____ _____    ______ ____
ROOT
ATOM      1  N   UNL     1      -3.438  -1.937  -0.638  0.00  0.00    -0.284 N 
ATOM      2  C   UNL     1      -2.367  -0.993  -0.308  0.00  0.00    +0.144 C 
ATOM      3  C   UNL     1      -1.063  -1.729  -0.514  0.00  0.00    +0.071 C 
ATOM      4  C   UNL     1       0.211  -1.229  -0.325  0.00  0.00    +0.133 C 
ATOM      5  C   UNL     1      -1.407  -3.023  -0.930  0.00  0.00    +0.249 C 
ATOM      6  O   UNL     1      -0.626  -3.920  -1.192  0.00  0.00    -0.282 OA
ATOM      7  C   UNL     1      -2.891  -3.111  -0.994  0.00  0.00    +0.288 C 
ATOM      8  O   UNL     1      -3.516  -4.099  -1.321  0.00  0.00    -0.266 OA
ENDROOT
BRANCH   4   9
ATOM      9  C   UNL     1       1.376  -2.118  -0.449  0.00  0.00    +0.017 A 
ATOM     10  C   UNL     1       1.396  -3.352   0.213  0.00  0.00    +0.015 A 
ATOM     11  C   UNL     1       2.482  -4.185   0.088  0.00  0.00    +0.046 A 
ATOM     12  C   UNL     1       3.579  -3.807  -0.689  0.00  0.00    +0.124 A 
ATOM     13  C   UNL     1       3.559  -2.573  -1.335  0.00  0.00    -0.002 A 
ATOM     14  C   UNL     1       2.478  -1.736  -1.226  0.00  0.00    +0.019 A 
ATOM     15  C   UNL     1       4.880  -2.436  -2.070  0.00  0.00    +0.083 C 
ATOM     16  C   UNL     1       5.729  -3.547  -1.408  0.00  0.00    +0.175 C 
ATOM     17  O   UNL     1       4.734  -4.476  -0.945  0.00  0.00    -0.488 OA
ATOM     18  C   UNL     1       6.536  -2.987  -0.235  0.00  0.00    +0.052 C 
ENDBRANCH   4   9
BRANCH   2  19
ATOM     19  C   UNL     1      -2.488  -0.551   1.128  0.00  0.00    -0.022 A 
ATOM     20  C   UNL     1      -2.868  -1.457   2.100  0.00  0.00    +0.006 A 
ATOM     21  C   UNL     1      -2.975  -1.053   3.418  0.00  0.00    +0.004 A 
ATOM     22  C   UNL     1      -2.713   0.260   3.761  0.00  0.00    -0.042 A 
ATOM     23  C   UNL     1      -2.338   1.168   2.788  0.00  0.00    +0.004 A 
ATOM     24  C   UNL     1      -2.226   0.762   1.471  0.00  0.00    +0.006 A 
BRANCH  22  25
ATOM     25  C   UNL     1      -2.834   0.702   5.197  0.00  0.00    -0.013 C 
ATOM     26  C   UNL     1      -3.883   1.811   5.302  0.00  0.00    +0.015 C 
ATOM     27  C   UNL     1      -3.260  -0.486   6.062  0.00  0.00    +0.015 C 
ATOM     28  C   UNL     1      -1.484   1.230   5.684  0.00  0.00    +0.015 C 
ENDBRANCH  22  25
ENDBRANCH   2  19
BRANCH   4  29
ATOM     29  O   UNL     1       0.387   0.076  -0.027  0.00  0.00    -0.506 OA
ATOM     30  H   UNL     1       1.363   0.266   0.076  0.00  0.00    +0.292 HD
ENDBRANCH   4  29
BRANCH   1  31
ATOM     31  C   UNL     1      -4.873  -1.649  -0.583  0.00  0.00    +0.107 C 
BRANCH  31  32
ATOM     32  C   UNL     1      -5.407  -1.982   0.811  0.00  0.00    +0.000 C 
BRANCH  32  33
ATOM     33  C   UNL     1      -6.906  -1.680   0.869  0.00  0.00    -0.077 C 
BRANCH  33  34
ATOM     34  N   UNL     1      -7.399  -1.989   2.227  0.00  0.00    +0.379 N 
ATOM     35  H   UNL     1      -6.971  -2.866   2.546  0.00  0.00    -0.082 HD
BRANCH  34  37
ATOM     36  C   UNL     1      -7.346  -1.349   4.588  0.00  0.00    -0.017 C 
ATOM     37  C   UNL     1      -7.025  -0.905   3.159  0.00  0.00    -0.082 C 
ENDBRANCH  34  37
BRANCH  34  38
ATOM     38  C   UNL     1      -8.868  -2.152   2.207  0.00  0.00    -0.082 C 
ATOM     39  C   UNL     1      -9.200  -3.532   1.634  0.00  0.00    -0.017 C 
ENDBRANCH  34  38
ENDBRANCH  33  34
ENDBRANCH  32  33
ENDBRANCH  31  32
ENDBRANCH   1  31
TORSDOF 10
