REMARK  Name = ZINC52788462
REMARK  4 active torsions:
REMARK  status: ('A' for Active; 'I' for Inactive)
REMARK    1  A    between atoms: C_1  and  S_2
REMARK    2  A    between atoms: S_2  and  C_5
REMARK    3  A    between atoms: C_5  and  C_6
REMARK    4  A    between atoms: C_8  and  C_11
REMARK                            x       y       z     vdW  Elec       q    Type
REMARK                         _______ _______ _______ _____ _____    ______ ____
ROOT
ATOM      1  C   UNL     1       2.650  -5.035  -1.221  0.00  0.00    +0.044 A 
ATOM      2  C   UNL     1       3.831  -4.819  -0.510  0.00  0.00    +0.013 A 
ATOM      3  C   UNL     1       4.654  -5.882  -0.200  0.00  0.00    +0.003 A 
ATOM      4  C   UNL     1       4.311  -7.161  -0.594  0.00  0.00    +0.023 A 
ATOM      5  C   UNL     1       3.136  -7.387  -1.304  0.00  0.00    +0.031 A 
ATOM      6  C   UNL     1       2.298  -6.330  -1.614  0.00  0.00    -0.014 A 
ATOM      7  C   UNL     1       1.011  -6.539  -2.366  0.00  0.00    +0.039 C 
ATOM      8  C   UNL     1       1.043  -7.865  -3.125  0.00  0.00    +0.023 C 
ATOM      9  C   UNL     1       1.450  -8.982  -2.155  0.00  0.00    +0.102 C 
ATOM     10  N   UNL     1       2.818  -8.693  -1.695  0.00  0.00    -0.344 N 
ATOM     11  H   UNL     1       3.484  -9.396  -1.652  0.00  0.00    +0.146 HD
ENDROOT
BRANCH   1  14
ATOM     12  C   UNL     1       0.984  -1.879  -1.702  0.00  0.00    +0.193 A 
ATOM     13  N   UNL     1       1.983  -2.637  -1.246  0.00  0.00    -0.190 NA
ATOM     14  C   UNL     1       1.769  -3.897  -1.554  0.00  0.00    +0.259 A 
ATOM     15  O   UNL     1       0.606  -3.967  -2.227  0.00  0.00    -0.333 OA
ATOM     16  N   UNL     1       0.113  -2.638  -2.305  0.00  0.00    -0.059 NA
BRANCH  12  17
ATOM     17  C   UNL     1       0.877  -0.385  -1.541  0.00  0.00    +0.245 C 
BRANCH  17  19
ATOM     18  C   UNL     1      -0.022   1.810   0.012  0.00  0.00    +0.194 C 
ATOM     19  S   UNL     1       0.002  -0.004   0.002  0.00  0.00    -0.027 S 
ATOM     20  O   UNL     1       0.798  -0.449   1.092  0.00  0.00    -0.174 OA
ATOM     21  O   UNL     1      -1.335  -0.471  -0.113  0.00  0.00    -0.174 OA
ENDBRANCH  17  19
ENDBRANCH  12  17
ENDBRANCH   1  14
TORSDOF 3
