REMARK  Name = ZINC00956160
REMARK  9 active torsions:
REMARK  status: ('A' for Active; 'I' for Inactive)
REMARK    1  A    between atoms: C_1  and  C_2
REMARK    2  A    between atoms: N_7  and  C_9
REMARK    3  A    between atoms: C_9  and  C_10
REMARK    4  A    between atoms: C_11  and  O_34
REMARK    5  A    between atoms: C_17  and  C_30
REMARK    6  A    between atoms: C_18  and  O_21
REMARK    7  A    between atoms: O_21  and  C_22
REMARK    8  A    between atoms: C_25  and  O_28
REMARK    9  A    between atoms: O_28  and  C_29
REMARK                            x       y       z     vdW  Elec       q    Type
REMARK                         _______ _______ _______ _____ _____    ______ ____
ROOT
ATOM      1  C   UNL     1       1.529  -3.708   2.684  0.00  0.00    +0.020 A 
ATOM      2  C   UNL     1       0.417  -4.204   3.344  0.00  0.00    +0.122 A 
ATOM      3  C   UNL     1       0.199  -5.577   3.433  0.00  0.00    +0.046 A 
ATOM      4  C   UNL     1       1.082  -6.455   2.871  0.00  0.00    +0.019 A 
ATOM      5  C   UNL     1       2.208  -5.971   2.203  0.00  0.00    +0.068 A 
ATOM      6  C   UNL     1       2.432  -4.586   2.102  0.00  0.00    +0.144 A 
ATOM      7  O   UNL     1       3.521  -4.130   1.450  0.00  0.00    -0.447 OA
ATOM      8  C   UNL     1       4.411  -4.951   0.878  0.00  0.00    +0.254 A 
ATOM      9  C   UNL     1       4.290  -6.293   0.909  0.00  0.00    +0.222 A 
ATOM     10  C   UNL     1       3.184  -6.884   1.583  0.00  0.00    +0.235 A 
ATOM     11  O   UNL     1       3.042  -8.094   1.633  0.00  0.00    -0.283 OA
ENDROOT
BRANCH   8  12
ATOM     12  C   UNL     1       5.598  -4.349   0.170  0.00  0.00    +0.454 C 
ATOM     13  F   UNL     1       6.466  -5.368  -0.234  0.00  0.00    -0.163 F 
ATOM     14  F   UNL     1       5.160  -3.637  -0.952  0.00  0.00    -0.163 F 
ATOM     15  F   UNL     1       6.269  -3.482   1.039  0.00  0.00    -0.163 F 
ENDBRANCH   8  12
BRANCH   2  16
ATOM     16  O   UNL     1      -0.469  -3.344   3.909  0.00  0.00    -0.506 OA
ATOM     17  H   UNL     1      -1.184  -3.071   3.317  0.00  0.00    +0.292 HD
ENDBRANCH   2  16
BRANCH   1  18
ATOM     18  C   UNL     1       1.754  -2.221   2.594  0.00  0.00    -0.036 C 
BRANCH  18  24
ATOM     19  C   UNL     1       0.585   1.843   0.127  0.00  0.00    +0.005 C 
ATOM     20  C   UNL     1       0.467   0.318   0.147  0.00  0.00    -0.031 C 
ATOM     21  C   UNL     1       1.084  -0.260  -1.130  0.00  0.00    -0.001 C 
ATOM     22  C   UNL     1       1.031  -1.789  -1.064  0.00  0.00    -0.018 C 
ATOM     23  C   UNL     1       1.756  -2.265   0.197  0.00  0.00    -0.078 C 
ATOM     24  N   UNL     1       1.104  -1.700   1.384  0.00  0.00    +0.383 N 
ATOM     25  C   UNL     1       1.212  -0.236   1.364  0.00  0.00    -0.075 C 
ATOM     26  H   UNL     1       0.130  -1.963   1.389  0.00  0.00    -0.081 HD
ENDBRANCH  18  24
ENDBRANCH   1  18
BRANCH   9  27
ATOM     27  O   UNL     1       5.226  -7.079   0.309  0.00  0.00    -0.448 OA
BRANCH  27  28
ATOM     28  C   UNL     1       4.849  -7.804  -0.777  0.00  0.00    +0.129 A 
ATOM     29  C   UNL     1       3.581  -7.640  -1.315  0.00  0.00    +0.050 A 
ATOM     30  C   UNL     1       3.199  -8.377  -2.419  0.00  0.00    +0.049 A 
ATOM     31  C   UNL     1       4.082  -9.282  -2.989  0.00  0.00    +0.120 A 
ATOM     32  C   UNL     1       5.350  -9.447  -2.451  0.00  0.00    +0.049 A 
ATOM     33  C   UNL     1       5.735  -8.705  -1.351  0.00  0.00    +0.050 A 
BRANCH  31  34
ATOM     34  O   UNL     1       3.705 -10.008  -4.075  0.00  0.00    -0.495 OA
ATOM     35  C   UNL     1       4.665 -10.921  -4.611  0.00  0.00    +0.277 C 
ENDBRANCH  31  34
ENDBRANCH  27  28
ENDBRANCH   9  27
TORSDOF 7
