REMARK  Name = ZINC13260415
REMARK  12 active torsions:
REMARK  status: ('A' for Active; 'I' for Inactive)
REMARK    1  A    between atoms: C_1  and  C_2
REMARK    2  A    between atoms: C_2  and  C_3
REMARK    3  A    between atoms: C_2  and  C_4
REMARK    4  A    between atoms: C_4  and  C_5
REMARK    5  A    between atoms: C_5  and  N_6
REMARK    6  A    between atoms: N_6  and  C_7
REMARK    7  A    between atoms: C_8  and  N_23
REMARK    8  A    between atoms: N_9  and  C_16
REMARK    9  A    between atoms: C_16  and  C_17
REMARK   10  A    between atoms: C_24  and  C_26
REMARK   11  A    between atoms: C_27  and  C_28
REMARK   12  A    between atoms: C_31  and  C_34
REMARK                            x       y       z     vdW  Elec       q    Type
REMARK                         _______ _______ _______ _____ _____    ______ ____
ROOT
ATOM      1  N   UNL     1      -6.347   7.384   0.095  0.00  0.00    -0.261 N 
ATOM      2  C   UNL     1      -6.342   6.037   0.138  0.00  0.00    +0.244 C 
ATOM      3  O   UNL     1      -7.378   5.431   0.342  0.00  0.00    -0.270 OA
ENDROOT
BRANCH   1   4
ATOM      4  C   UNL     1      -7.564   8.088   0.194  0.00  0.00    +0.140 A 
ATOM      5  C   UNL     1      -8.548   7.926  -0.760  0.00  0.00    +0.128 A 
ATOM      6  N   UNL     1      -9.727   8.624  -0.634  0.00  0.00    -0.276 N 
ATOM      7  C   UNL     1      -9.915   9.461   0.402  0.00  0.00    +0.331 A 
ATOM      8  O   UNL     1     -10.962  10.072   0.493  0.00  0.00    -0.246 OA
ATOM      9  N   UNL     1      -8.965   9.635   1.339  0.00  0.00    -0.273 N 
ATOM     10  H   UNL     1      -9.130  10.264   2.099  0.00  0.00    +0.173 HD
ATOM     11  C   UNL     1      -7.794   8.973   1.264  0.00  0.00    +0.277 A 
ATOM     12  O   UNL     1      -6.941   9.138   2.119  0.00  0.00    -0.266 OA
BRANCH   5  13
ATOM     13  N   UNL     1      -8.355   7.074  -1.821  0.00  0.00    -0.343 N 
ATOM     14  H   UNL     1      -7.492   6.651  -1.952  0.00  0.00    +0.144 HD
ATOM     15  H   UNL     1      -9.081   6.897  -2.439  0.00  0.00    +0.144 HD
ENDBRANCH   5  13
BRANCH   6  16
ATOM     16  C   UNL     1     -10.782   8.459  -1.637  0.00  0.00    +0.163 C 
BRANCH  16  17
ATOM     17  C   UNL     1     -10.588   9.466  -2.741  0.00  0.00    -0.028 A 
ATOM     18  C   UNL     1     -11.190  10.708  -2.656  0.00  0.00    +0.005 A 
ATOM     19  C   UNL     1     -11.008  11.634  -3.666  0.00  0.00    +0.000 A 
ATOM     20  C   UNL     1     -10.233  11.315  -4.766  0.00  0.00    +0.000 A 
ATOM     21  C   UNL     1      -9.635  10.072  -4.852  0.00  0.00    +0.000 A 
ATOM     22  C   UNL     1      -9.813   9.147  -3.840  0.00  0.00    +0.005 A 
ENDBRANCH  16  17
ENDBRANCH   6  16
ENDBRANCH   1   4
BRANCH   2  23
ATOM     23  C   UNL     1      -5.089   5.301  -0.060  0.00  0.00    +0.068 C 
ATOM     24  C   UNL     1      -5.084   3.955  -0.017  0.00  0.00    +0.013 C 
BRANCH  24  25
ATOM     25  C   UNL     1      -3.826   3.216  -0.217  0.00  0.00    -0.025 A 
ATOM     26  C   UNL     1      -3.821   1.818  -0.172  0.00  0.00    +0.009 A 
ATOM     27  C   UNL     1      -2.644   1.129  -0.358  0.00  0.00    +0.016 A 
ATOM     28  C   UNL     1      -1.456   1.825  -0.592  0.00  0.00    +0.063 A 
ATOM     29  C   UNL     1      -1.459   3.222  -0.632  0.00  0.00    +0.016 A 
ATOM     30  C   UNL     1      -2.636   3.913  -0.451  0.00  0.00    +0.009 A 
BRANCH  28  31
ATOM     31  C   UNL     1      -0.193   1.084  -0.792  0.00  0.00    +0.387 C 
ATOM     32  O   UNL     1      -0.189  -0.130  -0.754  0.00  0.00    -0.241 OA
ATOM     33  O   UNL     1       0.952   1.754  -1.024  0.00  0.00    -0.241 OA
ENDBRANCH  28  31
ENDBRANCH  24  25
ENDBRANCH   2  23
BRANCH   1  34
ATOM     34  C   UNL     1      -5.087   8.116  -0.055  0.00  0.00    +0.114 C 
BRANCH  34  35
ATOM     35  C   UNL     1      -4.734   8.226  -1.540  0.00  0.00    +0.022 C 
BRANCH  35  37
ATOM     36  C   UNL     1      -2.281   8.183  -1.068  0.00  0.00    +0.007 C 
ATOM     37  C   UNL     1      -3.418   8.991  -1.696  0.00  0.00    -0.016 C 
ATOM     38  C   UNL     1      -3.129   9.209  -3.183  0.00  0.00    +0.007 C 
ENDBRANCH  35  37
ENDBRANCH  34  35
ENDBRANCH   1  34
TORSDOF 10
