REMARK  Name = ZINC12565111
REMARK  13 active torsions:
REMARK  status: ('A' for Active; 'I' for Inactive)
REMARK    1  A    between atoms: C_1  and  C_2
REMARK    2  A    between atoms: C_5  and  N_8
REMARK    3  A    between atoms: N_8  and  S_9
REMARK    4  A    between atoms: S_9  and  C_12
REMARK    5  A    between atoms: C_15  and  N_21
REMARK    6  A    between atoms: C_16  and  N_18
REMARK    7  A    between atoms: N_21  and  C_22
REMARK    8  A    between atoms: C_22  and  C_23
REMARK    9  A    between atoms: C_23  and  C_25
REMARK   10  A    between atoms: C_23  and  N_28
REMARK   11  A    between atoms: C_25  and  C_26
REMARK   12  A    between atoms: C_25  and  C_27
REMARK   13  A    between atoms: N_31  and  C_34
REMARK                            x       y       z     vdW  Elec       q    Type
REMARK                         _______ _______ _______ _____ _____    ______ ____
ROOT
ATOM      1  C   UNL     1       4.372  -3.836   2.774  0.00  0.00    +0.108 A 
ATOM      2  C   UNL     1       4.424  -2.546   3.271  0.00  0.00    +0.030 A 
ATOM      3  C   UNL     1       4.169  -2.308   4.607  0.00  0.00    +0.027 A 
ATOM      4  C   UNL     1       3.860  -3.367   5.452  0.00  0.00    +0.058 A 
ATOM      5  C   UNL     1       3.809  -4.661   4.950  0.00  0.00    +0.149 A 
ATOM      6  C   UNL     1       4.060  -4.890   3.611  0.00  0.00    +0.063 A 
ENDROOT
BRANCH   1   7
ATOM      7  S   UNL     1       4.698  -4.134   1.068  0.00  0.00    +0.059 S 
ATOM      8  O   UNL     1       5.115  -5.488   0.965  0.00  0.00    -0.153 OA
ATOM      9  O   UNL     1       5.500  -3.053   0.613  0.00  0.00    -0.153 OA
BRANCH   7  10
ATOM     10  N   UNL     1       3.253  -4.022   0.267  0.00  0.00    -0.187 NA
ATOM     11  H   UNL     1       2.877  -4.804  -0.167  0.00  0.00    +0.148 HD
BRANCH  10  16
ATOM     12  C   UNL     1      -0.682   0.124  -0.127  0.00  0.00    +0.007 C 
ATOM     13  C   UNL     1       0.060  -1.213  -0.071  0.00  0.00    -0.014 C 
ATOM     14  C   UNL     1       1.096  -1.269  -1.195  0.00  0.00    +0.005 C 
ATOM     15  C   UNL     1       1.838  -2.606  -1.138  0.00  0.00    +0.020 C 
ATOM     16  C   UNL     1       2.543  -2.741   0.212  0.00  0.00    +0.077 C 
ATOM     17  C   UNL     1       1.507  -2.685   1.337  0.00  0.00    +0.020 C 
ATOM     18  C   UNL     1       0.765  -1.348   1.280  0.00  0.00    +0.005 C 
ENDBRANCH  10  16
ENDBRANCH   7  10
ENDBRANCH   1   7
BRANCH   5  19
ATOM     19  N   UNL     1       3.480  -5.791   5.847  0.00  0.00    +0.058 N 
ATOM     20  O   UNL     1       3.896  -5.803   6.982  0.00  0.00    -0.126 OA
ATOM     21  O   UNL     1       2.797  -6.703   5.444  0.00  0.00    -0.126 OA
ENDBRANCH   5  19
BRANCH   4  22
ATOM     22  N   UNL     1       3.602  -3.130   6.804  0.00  0.00    -0.341 N 
ATOM     23  H   UNL     1       3.318  -3.859   7.379  0.00  0.00    +0.146 HD
BRANCH  22  24
ATOM     24  C   UNL     1       3.760  -1.782   7.355  0.00  0.00    +0.120 C 
BRANCH  24  25
ATOM     25  C   UNL     1       3.534  -1.820   8.868  0.00  0.00    +0.076 C 
BRANCH  25  26
ATOM     26  N   UNL     1       2.218  -2.407   9.152  0.00  0.00    -0.301 NA
ATOM     27  C   UNL     1       1.146  -1.421   8.952  0.00  0.00    +0.066 C 
ATOM     28  C   UNL     1      -0.209  -2.087   9.200  0.00  0.00    -0.064 C 
ATOM     29  N   UNL     1      -0.253  -2.612  10.571  0.00  0.00    +0.379 N 
ATOM     30  C   UNL     1       0.806  -3.613  10.748  0.00  0.00    -0.064 C 
ATOM     31  C   UNL     1       2.170  -2.960  10.513  0.00  0.00    +0.066 C 
ATOM     32  C   UNL     1      -1.561  -3.235  10.814  0.00  0.00    -0.096 C 
ATOM     33  H   UNL     1      -0.115  -1.856  11.225  0.00  0.00    -0.082 HD
ENDBRANCH  25  26
BRANCH  25  34
ATOM     34  C   UNL     1       3.589  -0.397   9.427  0.00  0.00    +0.001 C 
ATOM     35  C   UNL     1       3.503  -0.445  10.954  0.00  0.00    +0.009 C 
ATOM     36  C   UNL     1       4.904   0.264   9.011  0.00  0.00    +0.009 C 
ENDBRANCH  25  34
ENDBRANCH  24  25
ENDBRANCH  22  24
ENDBRANCH   4  22
TORSDOF 9
