REMARK  Name = ZINC02918206
REMARK  7 active torsions:
REMARK  status: ('A' for Active; 'I' for Inactive)
REMARK    1  A    between atoms: C_1  and  C_2
REMARK    2  A    between atoms: C_2  and  O_3
REMARK    3  A    between atoms: O_3  and  C_4
REMARK    4  A    between atoms: C_7  and  C_11
REMARK    5  A    between atoms: C_14  and  C_22
REMARK    6  A    between atoms: C_27  and  O_28
REMARK    7  A    between atoms: O_28  and  C_29
REMARK                            x       y       z     vdW  Elec       q    Type
REMARK                         _______ _______ _______ _____ _____    ______ ____
ROOT
ATOM      1  C   UNL     1       1.109  -6.041  -1.846  0.00  0.00    +0.106 C 
ATOM      2  C   UNL     1       0.042  -6.525  -2.835  0.00  0.00    +0.059 C 
ATOM      3  C   UNL     1       0.121  -8.050  -2.979  0.00  0.00    +0.148 C 
ATOM      4  N   UNL     1       1.512  -8.428  -3.217  0.00  0.00    -0.206 N 
ATOM      5  C   UNL     1       2.580  -7.637  -2.942  0.00  0.00    +0.236 A 
ATOM      6  N   UNL     1       3.650  -8.296  -3.286  0.00  0.00    -0.092 NA
ATOM      7  N   UNL     1       3.329  -9.452  -3.759  0.00  0.00    -0.021 NA
ATOM      8  N   UNL     1       2.045  -9.603  -3.748  0.00  0.00    -0.042 NA
ATOM      9  N   UNL     1       2.442  -6.372  -2.386  0.00  0.00    -0.305 N 
ATOM     10  H   UNL     1       3.178  -5.741  -2.356  0.00  0.00    +0.150 HD
ENDROOT
BRANCH   1  14
ATOM     11  C   UNL     1       0.777  -1.810  -1.336  0.00  0.00    +0.139 A 
ATOM     12  C   UNL     1       0.243  -2.669  -0.387  0.00  0.00    +0.047 A 
ATOM     13  C   UNL     1       0.351  -4.036  -0.554  0.00  0.00    +0.009 A 
ATOM     14  C   UNL     1       0.992  -4.549  -1.667  0.00  0.00    -0.026 A 
ATOM     15  C   UNL     1       1.525  -3.696  -2.615  0.00  0.00    +0.029 A 
ATOM     16  C   UNL     1       1.414  -2.327  -2.455  0.00  0.00    +0.083 A 
ATOM     17 CL   UNL     1       2.078  -1.257  -3.650  0.00  0.00    -0.080 Cl
BRANCH  11  18
ATOM     18  O   UNL     1       0.671  -0.465  -1.174  0.00  0.00    -0.491 OA
BRANCH  18  20
ATOM     19  C   UNL     1      -0.019   1.526   0.010  0.00  0.00    +0.048 C 
ATOM     20  C   UNL     1       0.002  -0.004   0.002  0.00  0.00    +0.226 C 
ENDBRANCH  18  20
ENDBRANCH  11  18
ENDBRANCH   1  14
BRANCH   3  21
ATOM     21  C   UNL     1      -0.732  -8.494  -4.139  0.00  0.00    +0.019 A 
ATOM     22  C   UNL     1      -0.462  -8.031  -5.412  0.00  0.00    +0.009 A 
ATOM     23  C   UNL     1      -1.244  -8.437  -6.477  0.00  0.00    +0.001 A 
ATOM     24  C   UNL     1      -2.299  -9.307  -6.271  0.00  0.00    +0.004 A 
ATOM     25  C   UNL     1      -2.572  -9.774  -5.000  0.00  0.00    +0.046 A 
ATOM     26  C   UNL     1      -1.785  -9.372  -3.930  0.00  0.00    +0.132 A 
BRANCH  26  27
ATOM     27  O   UNL     1      -2.049  -9.834  -2.680  0.00  0.00    -0.434 OA
BRANCH  27  28
ATOM     28  C   UNL     1      -3.149 -10.735  -2.540  0.00  0.00    +0.541 C 
ATOM     29  F   UNL     1      -4.324 -10.105  -2.964  0.00  0.00    -0.166 F 
ATOM     30  F   UNL     1      -2.922 -11.873  -3.320  0.00  0.00    -0.166 F 
ENDBRANCH  27  28
ENDBRANCH  26  27
ENDBRANCH   3  21
TORSDOF 6
