REMARK  Name = ZINC06949983
REMARK  7 active torsions:
REMARK  status: ('A' for Active; 'I' for Inactive)
REMARK    1  A    between atoms: C_1  and  C_2
REMARK    2  A    between atoms: C_8  and  N_10
REMARK    3  A    between atoms: C_11  and  C_13
REMARK    4  A    between atoms: C_16  and  C_19
REMARK    5  A    between atoms: C_19  and  N_20
REMARK    6  A    between atoms: N_20  and  S_21
REMARK    7  A    between atoms: S_21  and  C_24
REMARK                            x       y       z     vdW  Elec       q    Type
REMARK                         _______ _______ _______ _____ _____    ______ ____
ROOT
ATOM      1  C   UNL     1       0.033   0.579   4.842  0.00  0.00    +0.075 C 
ATOM      2  C   UNL     1      -0.539   1.976   4.589  0.00  0.00    +0.013 C 
ATOM      3  C   UNL     1      -1.256   2.469   5.848  0.00  0.00    +0.005 C 
ATOM      4  C   UNL     1      -0.262   2.527   7.010  0.00  0.00    +0.005 C 
ATOM      5  C   UNL     1       0.310   1.131   7.263  0.00  0.00    +0.005 C 
ATOM      6  C   UNL     1       1.026   0.638   6.004  0.00  0.00    +0.013 C 
ENDROOT
BRANCH   1   8
ATOM      7  N   UNL     1       0.056  -0.038   2.447  0.00  0.00    -0.312 N 
ATOM      8  C   UNL     1       0.738   0.093   3.602  0.00  0.00    +0.216 C 
ATOM      9  O   UNL     1       1.919  -0.179   3.644  0.00  0.00    -0.276 OA
ATOM     10  H   UNL     1      -0.888   0.180   2.413  0.00  0.00    +0.149 HD
BRANCH   7  17
ATOM     11  C   UNL     1      -0.019   1.526   0.010  0.00  0.00    +0.009 C 
ATOM     12  C   UNL     1       0.002  -0.004   0.002  0.00  0.00    +0.006 C 
ATOM     13  C   UNL     1       0.718  -0.497  -1.257  0.00  0.00    +0.005 C 
ATOM     14  C   UNL     1       0.739  -2.027  -1.265  0.00  0.00    +0.000 C 
ATOM     15  C   UNL     1       1.479  -2.534  -0.026  0.00  0.00    +0.002 C 
ATOM     16  C   UNL     1       0.763  -2.041   1.233  0.00  0.00    +0.022 C 
ATOM     17  C   UNL     1       0.742  -0.511   1.242  0.00  0.00    +0.076 C 
ENDBRANCH   7  17
ENDBRANCH   1   8
BRANCH   4  18
ATOM     18  C   UNL     1      -0.978   3.021   8.269  0.00  0.00    +0.109 C 
BRANCH  18  19
ATOM     19  N   UNL     1      -0.004   3.191   9.350  0.00  0.00    -0.190 NA
ATOM     20  H   UNL     1       0.879   2.797   9.273  0.00  0.00    +0.148 HD
BRANCH  19  21
ATOM     21  S   UNL     1      -0.411   4.055  10.703  0.00  0.00    +0.058 S 
ATOM     22  O   UNL     1       0.719   4.017  11.564  0.00  0.00    -0.153 OA
ATOM     23  O   UNL     1      -0.982   5.275  10.249  0.00  0.00    -0.153 OA
BRANCH  21  24
ATOM     24  C   UNL     1      -1.697   3.171  11.519  0.00  0.00    +0.105 A 
ATOM     25  C   UNL     1      -3.019   3.425  11.203  0.00  0.00    +0.031 A 
ATOM     26  C   UNL     1      -4.029   2.731  11.842  0.00  0.00    +0.040 A 
ATOM     27  C   UNL     1      -3.716   1.781  12.800  0.00  0.00    +0.124 A 
ATOM     28  C   UNL     1      -2.393   1.528  13.116  0.00  0.00    +0.040 A 
ATOM     29  C   UNL     1      -1.384   2.219  12.471  0.00  0.00    +0.031 A 
ATOM     30  F   UNL     1      -4.703   1.103  13.426  0.00  0.00    -0.205 F 
ENDBRANCH  21  24
ENDBRANCH  19  21
ENDBRANCH  18  19
ENDBRANCH   4  18
TORSDOF 6
