REMARK  Name = ZINC34719082
REMARK  14 active torsions:
REMARK  status: ('A' for Active; 'I' for Inactive)
REMARK    1  A    between atoms: C_1  and  C_2
REMARK    2  A    between atoms: C_2  and  C_3
REMARK    3  A    between atoms: C_3  and  C_4
REMARK    4  A    between atoms: C_4  and  C_5
REMARK    5  A    between atoms: C_5  and  C_6
REMARK    6  A    between atoms: C_6  and  C_7
REMARK    7  A    between atoms: N_9  and  C_10
REMARK    8  A    between atoms: N_9  and  C_17
REMARK    9  A    between atoms: C_10  and  C_11
REMARK   10  A    between atoms: C_17  and  C_18
REMARK   11  A    between atoms: N_20  and  C_21
REMARK   12  A    between atoms: N_20  and  C_28
REMARK   13  A    between atoms: C_21  and  C_22
REMARK   14  A    between atoms: C_28  and  C_29
REMARK                            x       y       z     vdW  Elec       q    Type
REMARK                         _______ _______ _______ _____ _____    ______ ____
ROOT
ATOM      1  C   UNL     1      -5.844  -6.480   0.023  0.00  0.00    +0.203 C 
ENDROOT
BRANCH   1   4
ATOM      2  C   UNL     1      -4.241  -4.644   0.018  0.00  0.00    +0.216 C 
ATOM      3  O   UNL     1      -5.173  -3.869   0.031  0.00  0.00    -0.276 OA
ATOM      4  N   UNL     1      -4.469  -5.973   0.013  0.00  0.00    -0.290 N 
BRANCH   2   5
ATOM      5  C   UNL     1      -2.827  -4.123   0.007  0.00  0.00    +0.096 C 
BRANCH   5   6
ATOM      6  C   UNL     1      -2.848  -2.593   0.015  0.00  0.00    +0.009 C 
BRANCH   6   7
ATOM      7  C   UNL     1      -1.413  -2.063   0.004  0.00  0.00    +0.000 C 
BRANCH   7   8
ATOM      8  C   UNL     1      -1.433  -0.534   0.013  0.00  0.00    -0.000 C 
BRANCH   8  10
ATOM      9  C   UNL     1      -0.019   1.526   0.010  0.00  0.00    +0.004 C 
ATOM     10  C   UNL     1       0.002  -0.004   0.002  0.00  0.00    -0.003 C 
ENDBRANCH   8  10
ENDBRANCH   7   8
ENDBRANCH   6   7
ENDBRANCH   5   6
ENDBRANCH   2   5
BRANCH   4  11
ATOM     11  C   UNL     1      -3.343  -6.910  -0.003  0.00  0.00    +0.139 C 
BRANCH  11  12
ATOM     12  C   UNL     1      -2.937  -7.243   1.434  0.00  0.00    +0.136 C 
ATOM     13  C   UNL     1      -1.724  -8.207   1.440  0.00  0.00    +0.035 C 
ATOM     14  C   UNL     1      -1.107  -7.896   2.831  0.00  0.00    +0.031 C 
ATOM     15  C   UNL     1      -1.397  -6.387   2.988  0.00  0.00    +0.160 C 
ATOM     16  O   UNL     1      -2.483  -6.061   2.111  0.00  0.00    -0.375 OA
ENDBRANCH  11  12
ENDBRANCH   4  11
ENDBRANCH   1   4
BRANCH   1  17
ATOM     17  C   UNL     1      -6.329  -6.646  -1.394  0.00  0.00    +0.234 C 
ATOM     18  O   UNL     1      -5.598  -6.368  -2.321  0.00  0.00    -0.274 OA
ATOM     19  N   UNL     1      -7.574  -7.104  -1.631  0.00  0.00    -0.291 N 
BRANCH  19  20
ATOM     20  C   UNL     1      -8.045  -7.265  -3.009  0.00  0.00    +0.143 C 
BRANCH  20  21
ATOM     21  C   UNL     1      -7.715  -8.653  -3.493  0.00  0.00    -0.030 A 
ATOM     22  C   UNL     1      -6.506  -8.899  -4.117  0.00  0.00    +0.005 A 
ATOM     23  C   UNL     1      -6.204 -10.172  -4.561  0.00  0.00    +0.000 A 
ATOM     24  C   UNL     1      -7.109 -11.201  -4.381  0.00  0.00    +0.000 A 
ATOM     25  C   UNL     1      -8.318 -10.956  -3.756  0.00  0.00    +0.000 A 
ATOM     26  C   UNL     1      -8.619  -9.683  -3.308  0.00  0.00    +0.005 A 
ENDBRANCH  20  21
ENDBRANCH  19  20
BRANCH  19  27
ATOM     27  C   UNL     1      -8.457  -7.439  -0.511  0.00  0.00    +0.150 C 
BRANCH  27  28
ATOM     28  C   UNL     1      -9.251  -6.221  -0.115  0.00  0.00    +0.007 A 
ATOM     29  C   UNL     1     -10.461  -5.807  -0.565  0.00  0.00    +0.013 A 
ATOM     30  C   UNL     1     -11.005  -4.645  -0.053  0.00  0.00    +0.008 A 
ATOM     31  C   UNL     1     -10.312  -3.952   0.885  0.00  0.00    +0.045 A 
ATOM     32  S   UNL     1      -8.846  -4.953   1.075  0.00  0.00    -0.100 S 
ENDBRANCH  27  28
ENDBRANCH  19  27
ENDBRANCH   1  17
TORSDOF 13
