REMARK  Name = ZINC13466918
REMARK  6 active torsions:
REMARK  status: ('A' for Active; 'I' for Inactive)
REMARK    1  A    between atoms: C_1  and  C_2
REMARK    2  A    between atoms: C_11  and  C_32
REMARK    3  A    between atoms: C_11  and  O_33
REMARK    4  A    between atoms: C_12  and  C_31
REMARK    5  A    between atoms: C_17  and  C_30
REMARK    6  A    between atoms: C_20  and  C_21
REMARK                            x       y       z     vdW  Elec       q    Type
REMARK                         _______ _______ _______ _____ _____    ______ ____
ROOT
ATOM      1  C   UNL     1      -0.515   1.781   0.746  0.00  0.00    +0.012 C 
ATOM      2  C   UNL     1      -0.224   0.271   0.635  0.00  0.00    -0.019 C 
ATOM      3  C   UNL     1       0.762   0.050  -0.509  0.00  0.00    +0.008 C 
ATOM      4  C   UNL     1       2.110   0.694  -0.178  0.00  0.00    +0.005 C 
ATOM      5  C   UNL     1       2.670   0.065   1.095  0.00  0.00    -0.004 C 
ATOM      6  C   UNL     1       4.081   0.526   1.375  0.00  0.00    +0.001 C 
ATOM      7  C   UNL     1       4.807  -0.450   2.324  0.00  0.00    +0.007 C 
ATOM      8  C   UNL     1       5.976   0.375   2.901  0.00  0.00    +0.035 C 
ATOM      9  C   UNL     1       5.615   1.857   2.707  0.00  0.00    +0.069 C 
ATOM     10  C   UNL     1       4.202   1.891   2.062  0.00  0.00    -0.000 C 
ATOM     11  C   UNL     1       3.198   2.037   3.203  0.00  0.00    +0.010 C 
ATOM     12  C   UNL     1       1.773   1.732   2.719  0.00  0.00    +0.005 C 
ATOM     13  C   UNL     1       1.725   0.282   2.270  0.00  0.00    -0.001 C 
ATOM     14  C   UNL     1       0.327  -0.253   1.949  0.00  0.00    -0.019 C 
ATOM     15  C   UNL     1       0.499  -1.784   1.885  0.00  0.00    +0.046 C 
ATOM     16  C   UNL     1      -0.729  -2.466   1.378  0.00  0.00    -0.004 C 
ATOM     17  C   UNL     1      -0.950  -3.759   1.712  0.00  0.00    +0.015 C 
ATOM     18  C   UNL     1      -1.660  -1.811   0.566  0.00  0.00    +0.160 C 
ATOM     19  O   UNL     1      -2.576  -2.457   0.093  0.00  0.00    -0.292 OA
ATOM     20  C   UNL     1      -1.577  -0.349   0.278  0.00  0.00    +0.086 C 
ATOM     21  C   UNL     1      -0.638   0.076   3.099  0.00  0.00    +0.012 C 
ATOM     22  C   UNL     1       4.100   3.052   1.065  0.00  0.00    +0.014 C 
ATOM     23  C   UNL     1       6.630   2.525   1.773  0.00  0.00    +0.042 C 
ENDROOT
BRANCH  17  24
ATOM     24  C   UNL     1       0.083  -4.519   2.432  0.00  0.00    -0.025 A 
ATOM     25  C   UNL     1       1.437  -4.311   2.145  0.00  0.00    +0.008 A 
ATOM     26  C   UNL     1       2.399  -5.023   2.829  0.00  0.00    +0.001 A 
ATOM     27  C   UNL     1       2.029  -5.950   3.788  0.00  0.00    +0.000 A 
ATOM     28  C   UNL     1       0.691  -6.166   4.073  0.00  0.00    +0.001 A 
ATOM     29  C   UNL     1      -0.283  -5.457   3.403  0.00  0.00    +0.008 A 
ENDBRANCH  17  24
BRANCH   9  30
ATOM     30  O   UNL     1       5.601   2.531   3.967  0.00  0.00    -0.388 OA
ATOM     31  H   UNL     1       6.457   2.542   4.417  0.00  0.00    +0.210 HD
ENDBRANCH   9  30
TORSDOF 2
