REMARK  Name = ZINC36308954
REMARK  17 active torsions:
REMARK  status: ('A' for Active; 'I' for Inactive)
REMARK    1  A    between atoms: C_1  and  C_2
REMARK    2  A    between atoms: C_2  and  C_3
REMARK    3  A    between atoms: C_2  and  O_4
REMARK    4  A    between atoms: O_4  and  C_5
REMARK    5  A    between atoms: C_5  and  C_6
REMARK    6  A    between atoms: C_6  and  C_8
REMARK    7  A    between atoms: C_6  and  O_36
REMARK    8  A    between atoms: C_8  and  N_9
REMARK    9  A    between atoms: N_9  and  C_10
REMARK   10  A    between atoms: N_9  and  C_13
REMARK   11  A    between atoms: C_10  and  C_11
REMARK   12  A    between atoms: C_13  and  C_14
REMARK   13  A    between atoms: C_24  and  C_26
REMARK   14  A    between atoms: C_26  and  O_27
REMARK   15  A    between atoms: O_27  and  C_28
REMARK   16  A    between atoms: C_32  and  O_34
REMARK   17  A    between atoms: O_34  and  C_35
REMARK                            x       y       z     vdW  Elec       q    Type
REMARK                         _______ _______ _______ _____ _____    ______ ____
ROOT
ATOM      1  C   UNL     1      -7.169  -3.203  -3.378  0.00  0.00    +0.200 C 
ATOM      2  O   UNL     1      -7.655  -3.288  -2.270  0.00  0.00    -0.278 OA
ATOM      3  N   UNL     1      -7.832  -3.695  -4.444  0.00  0.00    -0.292 N 
ATOM      4  C   UNL     1      -7.250  -3.603  -5.791  0.00  0.00    +0.113 C 
ATOM      5  C   UNL     1      -6.970  -5.027  -6.294  0.00  0.00    +0.061 C 
ATOM      6  C   UNL     1      -8.138  -5.894  -5.952  0.00  0.00    -0.004 A 
ATOM      7  C   UNL     1      -9.134  -5.642  -5.059  0.00  0.00    -0.014 A 
ATOM      8  C   UNL     1     -10.111  -6.625  -4.918  0.00  0.00    +0.013 A 
ATOM      9  C   UNL     1     -10.042  -7.759  -5.653  0.00  0.00    +0.046 A 
ATOM     10  S   UNL     1      -8.556  -7.488  -6.607  0.00  0.00    -0.101 S 
ATOM     11  C   UNL     1      -9.143  -4.336  -4.274  0.00  0.00    +0.144 C 
ENDROOT
BRANCH   1  12
ATOM     12  C   UNL     1      -5.825  -2.547  -3.563  0.00  0.00    +0.019 C 
BRANCH  12  13
ATOM     13  N   UNL     1      -5.315  -2.098  -2.261  0.00  0.00    +0.389 N 
ATOM     14  H   UNL     1      -6.002  -1.507  -1.817  0.00  0.00    -0.081 HD
BRANCH  13  15
ATOM     15  C   UNL     1      -4.071  -1.343  -2.456  0.00  0.00    -0.044 C 
BRANCH  15  16
ATOM     16  C   UNL     1      -4.379  -0.028  -3.174  0.00  0.00    +0.124 C 
BRANCH  16  17
ATOM     17  O   UNL     1      -4.784  -0.302  -4.517  0.00  0.00    -0.391 OA
ATOM     18  H   UNL     1      -4.117  -0.764  -5.042  0.00  0.00    +0.210 HD
ENDBRANCH  16  17
BRANCH  16  19
ATOM     19  C   UNL     1      -3.127   0.851  -3.188  0.00  0.00    +0.189 C 
BRANCH  19  20
ATOM     20  O   UNL     1      -3.445   2.124  -3.755  0.00  0.00    -0.375 OA
BRANCH  20  22
ATOM     21  C   UNL     1      -1.609   2.849  -5.148  0.00  0.00    +0.037 C 
ATOM     22  C   UNL     1      -2.339   3.026  -3.815  0.00  0.00    +0.112 C 
ATOM     23  C   UNL     1      -2.847   4.465  -3.699  0.00  0.00    +0.037 C 
ENDBRANCH  20  22
ENDBRANCH  19  20
ENDBRANCH  16  19
ENDBRANCH  15  16
ENDBRANCH  13  15
BRANCH  13  24
ATOM     24  C   UNL     1      -5.051  -3.266  -1.409  0.00  0.00    -0.051 C 
BRANCH  24  25
ATOM     25  C   UNL     1      -4.662  -2.804  -0.029  0.00  0.00    -0.053 C 
ATOM     26  C   UNL     1      -5.314  -3.244   1.018  0.00  0.00    +0.002 C 
ENDBRANCH  24  25
ENDBRANCH  13  24
ENDBRANCH  12  13
ENDBRANCH   1  12
BRANCH  11  27
ATOM     27  C   UNL     1     -10.242  -3.419  -4.815  0.00  0.00    +0.256 C 
BRANCH  27  28
ATOM     28  O   UNL     1     -10.080  -3.263  -6.226  0.00  0.00    -0.490 OA
BRANCH  28  29
ATOM     29  C   UNL     1     -10.981  -2.473  -6.867  0.00  0.00    +0.124 A 
ATOM     30  C   UNL     1     -11.997  -1.856  -6.150  0.00  0.00    +0.046 A 
ATOM     31  C   UNL     1     -12.913  -1.052  -6.801  0.00  0.00    +0.007 A 
ATOM     32  C   UNL     1     -12.822  -0.861  -8.166  0.00  0.00    +0.046 A 
ATOM     33  C   UNL     1     -11.808  -1.476  -8.887  0.00  0.00    +0.124 A 
ATOM     34  C   UNL     1     -10.884  -2.278  -8.236  0.00  0.00    +0.091 A 
BRANCH  33  35
ATOM     35  O   UNL     1     -11.719  -1.288 -10.230  0.00  0.00    -0.495 OA
ATOM     36  C   UNL     1     -12.702  -0.445 -10.834  0.00  0.00    +0.277 C 
ENDBRANCH  33  35
ENDBRANCH  28  29
ENDBRANCH  27  28
ENDBRANCH  11  27
TORSDOF 14
