REMARK  Name = ZINC03311899
REMARK  9 active torsions:
REMARK  status: ('A' for Active; 'I' for Inactive)
REMARK    1  A    between atoms: C_3  and  C_19
REMARK    2  A    between atoms: C_5  and  N_7
REMARK    3  A    between atoms: N_7  and  S_8
REMARK    4  A    between atoms: S_8  and  C_11
REMARK    5  A    between atoms: C_19  and  O_21
REMARK    6  A    between atoms: O_21  and  C_22
REMARK    7  A    between atoms: C_22  and  C_23
REMARK    8  A    between atoms: C_23  and  C_25
REMARK    9  A    between atoms: C_28  and  N_31
REMARK                            x       y       z     vdW  Elec       q    Type
REMARK                         _______ _______ _______ _____ _____    ______ ____
ROOT
ATOM      1  C   UNL     1       0.893  -2.074   0.838  0.00  0.00    +0.003 A 
ATOM      2  C   UNL     1       0.053  -2.781   0.002  0.00  0.00    +0.015 A 
ATOM      3  C   UNL     1      -0.823  -2.099  -0.845  0.00  0.00    +0.061 A 
ATOM      4  C   UNL     1      -0.850  -0.704  -0.839  0.00  0.00    +0.039 A 
ATOM      5  C   UNL     1       0.002  -0.004   0.002  0.00  0.00    +0.049 A 
ATOM      6  C   UNL     1       0.871  -0.692   0.841  0.00  0.00    +0.024 A 
ENDROOT
BRANCH   5   7
ATOM      7  N   UNL     1      -0.017   1.393   0.010  0.00  0.00    -0.216 N 
ATOM      8  H   UNL     1      -0.863   1.866   0.016  0.00  0.00    +0.174 HD
BRANCH   7   9
ATOM      9  S   UNL     1       1.406   2.240   0.001  0.00  0.00    +0.072 S 
ATOM     10  O   UNL     1       1.058   3.618  -0.016  0.00  0.00    -0.150 OA
ATOM     11  O   UNL     1       2.223   1.673   1.015  0.00  0.00    -0.150 OA
BRANCH   9  12
ATOM     12  C   UNL     1       2.203   1.904  -1.534  0.00  0.00    +0.111 A 
ATOM     13  C   UNL     1       3.080   0.840  -1.639  0.00  0.00    +0.032 A 
ATOM     14  C   UNL     1       3.702   0.571  -2.843  0.00  0.00    +0.043 A 
ATOM     15  C   UNL     1       3.456   1.373  -3.944  0.00  0.00    +0.159 A 
ATOM     16  C   UNL     1       2.581   2.444  -3.838  0.00  0.00    +0.160 A 
ATOM     17  C   UNL     1       1.955   2.707  -2.631  0.00  0.00    +0.070 A 
ATOM     18  F   UNL     1       2.339   3.228  -4.911  0.00  0.00    -0.202 F 
ATOM     19  F   UNL     1       4.067   1.114  -5.120  0.00  0.00    -0.202 F 
ENDBRANCH   9  12
ENDBRANCH   7   9
ENDBRANCH   5   7
BRANCH   3  20
ATOM     20  C   UNL     1      -1.724  -2.853  -1.742  0.00  0.00    +0.340 C 
ATOM     21  O   UNL     1      -2.486  -2.259  -2.478  0.00  0.00    -0.245 OA
BRANCH  20  22
ATOM     22  O   UNL     1      -1.700  -4.200  -1.743  0.00  0.00    -0.453 OA
BRANCH  22  23
ATOM     23  C   UNL     1      -2.613  -4.875  -2.649  0.00  0.00    +0.311 C 
BRANCH  23  24
ATOM     24  C   UNL     1      -2.446  -6.366  -2.512  0.00  0.00    +0.200 C 
ATOM     25  O   UNL     1      -1.638  -6.816  -1.728  0.00  0.00    -0.288 OA
BRANCH  24  26
ATOM     26  C   UNL     1      -3.263  -7.276  -3.330  0.00  0.00    +0.021 A 
ATOM     27  C   UNL     1      -4.200  -6.761  -4.231  0.00  0.00    +0.014 A 
ATOM     28  C   UNL     1      -4.959  -7.620  -4.998  0.00  0.00    +0.033 A 
ATOM     29  C   UNL     1      -4.803  -8.990  -4.869  0.00  0.00    +0.126 A 
ATOM     30  C   UNL     1      -3.881  -9.507  -3.975  0.00  0.00    +0.033 A 
ATOM     31  C   UNL     1      -3.111  -8.661  -3.205  0.00  0.00    +0.014 A 
BRANCH  29  32
ATOM     32  N   UNL     1      -5.625  -9.905  -5.691  0.00  0.00    +0.056 N 
ATOM     33  O   UNL     1      -5.490 -11.111  -5.580  0.00  0.00    -0.126 OA
ATOM     34  O   UNL     1      -6.437  -9.453  -6.478  0.00  0.00    -0.126 OA
ENDBRANCH  29  32
ENDBRANCH  24  26
ENDBRANCH  23  24
ENDBRANCH  22  23
ENDBRANCH  20  22
ENDBRANCH   3  20
TORSDOF 9
