REMARK  Name = ZINC13995374
REMARK  8 active torsions:
REMARK  status: ('A' for Active; 'I' for Inactive)
REMARK    1  A    between atoms: C_1  and  C_2
REMARK    2  A    between atoms: C_2  and  O_3
REMARK    3  A    between atoms: O_3  and  C_4
REMARK    4  A    between atoms: C_6  and  C_11
REMARK    5  A    between atoms: C_9  and  O_10
REMARK    6  A    between atoms: C_14  and  C_32
REMARK    7  A    between atoms: N_16  and  C_25
REMARK    8  A    between atoms: C_21  and  C_24
REMARK                            x       y       z     vdW  Elec       q    Type
REMARK                         _______ _______ _______ _____ _____    ______ ____
ROOT
ATOM      1  C   UNL     1       0.172  -5.389  -0.024  0.00  0.00    +0.112 C 
ATOM      2  C   UNL     1      -1.191  -5.910  -0.366  0.00  0.00    +0.027 C 
ATOM      3  C   UNL     1      -2.110  -5.156  -1.034  0.00  0.00    +0.027 C 
ATOM      4  N   UNL     1      -3.247  -5.880  -1.199  0.00  0.00    -0.262 N 
ATOM      5  N   UNL     1      -3.051  -7.134  -0.617  0.00  0.00    -0.206 N 
ATOM      6  C   UNL     1      -1.762  -7.161  -0.099  0.00  0.00    +0.141 C 
ATOM      7  N   UNL     1      -1.292  -8.227   0.500  0.00  0.00    -0.163 NA
ATOM      8  C   UNL     1      -0.190  -8.571   1.056  0.00  0.00    +0.251 C 
ATOM      9  O   UNL     1      -0.149  -9.722   1.448  0.00  0.00    -0.272 OA
ATOM     10  C   UNL     1       1.037  -7.784   1.295  0.00  0.00    +0.132 C 
ATOM     11  S   UNL     1       1.433  -6.667  -0.057  0.00  0.00    -0.135 S 
ATOM     12  C   UNL     1       0.854  -6.964   2.574  0.00  0.00    +0.029 C 
ATOM     13  C   UNL     1      -1.898  -3.743  -1.513  0.00  0.00    +0.062 C 
ATOM     14  H   UNL     1      -4.055  -5.579  -1.644  0.00  0.00    +0.170 HD
ENDROOT
BRANCH   5  15
ATOM     15  C   UNL     1      -3.984  -8.174  -0.563  0.00  0.00    +0.055 A 
ATOM     16  C   UNL     1      -4.215  -8.840   0.634  0.00  0.00    +0.028 A 
ATOM     17  C   UNL     1      -5.137  -9.867   0.684  0.00  0.00    +0.040 A 
ATOM     18  C   UNL     1      -5.831 -10.234  -0.457  0.00  0.00    +0.124 A 
ATOM     19  C   UNL     1      -5.602  -9.571  -1.651  0.00  0.00    +0.040 A 
ATOM     20  C   UNL     1      -4.686  -8.539  -1.705  0.00  0.00    +0.028 A 
ATOM     21  F   UNL     1      -6.732 -11.239  -0.405  0.00  0.00    -0.205 F 
ENDBRANCH   5  15
BRANCH   1  24
ATOM     22  C   UNL     1       1.155  -2.044  -1.480  0.00  0.00    +0.162 A 
ATOM     23  C   UNL     1       0.813  -3.033  -0.572  0.00  0.00    +0.054 A 
ATOM     24  C   UNL     1       0.543  -4.314  -1.014  0.00  0.00    -0.026 A 
ATOM     25  C   UNL     1       0.614  -4.613  -2.362  0.00  0.00    +0.009 A 
ATOM     26  C   UNL     1       0.954  -3.631  -3.274  0.00  0.00    +0.049 A 
ATOM     27  C   UNL     1       1.220  -2.343  -2.838  0.00  0.00    +0.158 A 
BRANCH  27  28
ATOM     28  O   UNL     1       1.549  -1.375  -3.734  0.00  0.00    -0.503 OA
ATOM     29  H   UNL     1       2.498  -1.304  -3.906  0.00  0.00    +0.292 HD
ENDBRANCH  27  28
BRANCH  22  30
ATOM     30  O   UNL     1       1.420  -0.782  -1.047  0.00  0.00    -0.489 OA
BRANCH  30  32
ATOM     31  C   UNL     1       1.663   0.917   0.654  0.00  0.00    +0.048 C 
ATOM     32  C   UNL     1       1.334  -0.548   0.360  0.00  0.00    +0.226 C 
ENDBRANCH  30  32
ENDBRANCH  22  30
ENDBRANCH   1  24
TORSDOF 5
