REMARK  Name = ZINC39707768
REMARK  5 active torsions:
REMARK  status: ('A' for Active; 'I' for Inactive)
REMARK    1  A    between atoms: C_1  and  C_2
REMARK    2  A    between atoms: C_2  and  C_4
REMARK    3  A    between atoms: C_2  and  S_14
REMARK    4  A    between atoms: N_6  and  C_7
REMARK    5  A    between atoms: S_14  and  C_15
REMARK                            x       y       z     vdW  Elec       q    Type
REMARK                         _______ _______ _______ _____ _____    ______ ____
ROOT
ATOM      1  S   UNL     1      -1.698  -0.627   0.019  0.00  0.00    -0.072 S 
ENDROOT
BRANCH   1   2
ATOM      2  C   UNL     1      -2.332  -0.095   1.575  0.00  0.00    +0.208 C 
ATOM      3  N   UNL     1      -1.542   0.597   2.360  0.00  0.00    -0.227 NA
ATOM      4  C   UNL     1      -2.101   1.103   3.612  0.00  0.00    +0.252 C 
ATOM      5  C   UNL     1      -3.204   0.133   4.010  0.00  0.00    +0.117 C 
ATOM      6  C   UNL     1      -2.974  -0.166   5.319  0.00  0.00    +0.025 A 
ATOM      7  C   UNL     1      -3.709  -0.919   6.267  0.00  0.00    +0.012 A 
ATOM      8  C   UNL     1      -3.181  -1.041   7.514  0.00  0.00    +0.001 A 
ATOM      9  C   UNL     1      -1.968  -0.472   7.914  0.00  0.00    +0.002 A 
ATOM     10  C   UNL     1      -1.184   0.275   7.092  0.00  0.00    +0.026 A 
ATOM     11  C   UNL     1      -1.679   0.467   5.719  0.00  0.00    +0.046 A 
ATOM     12  N   UNL     1      -1.169   1.136   4.730  0.00  0.00    -0.358 N 
ATOM     13  N   UNL     1      -4.061  -0.351   3.106  0.00  0.00    -0.147 NA
ATOM     14  N   UNL     1      -3.611  -0.420   1.889  0.00  0.00    -0.122 NA
ATOM     15  H   UNL     1      -0.308   1.583   4.735  0.00  0.00    +0.162 HD
ENDBRANCH   1   2
BRANCH   1  17
ATOM     16  C   UNL     1      -0.020   1.532  -0.003  0.00  0.00    +0.029 C 
ATOM     17  C   UNL     1       0.003   0.002   0.000  0.00  0.00    +0.137 C 
BRANCH  17  18
ATOM     18  C   UNL     1       0.707  -0.492  -1.237  0.00  0.00    +0.230 C 
ATOM     19  O   UNL     1       0.066  -0.791  -2.222  0.00  0.00    -0.274 OA
ATOM     20  N   UNL     1       2.051  -0.601  -1.250  0.00  0.00    -0.285 N 
ATOM     21  H   UNL     1       2.569  -0.298  -0.487  0.00  0.00    +0.155 HD
BRANCH  20  22
ATOM     22  C   UNL     1       2.698  -1.150  -2.362  0.00  0.00    +0.033 A 
ATOM     23  C   UNL     1       3.837  -1.925  -2.191  0.00  0.00    +0.024 A 
ATOM     24  C   UNL     1       4.474  -2.466  -3.291  0.00  0.00    +0.017 A 
ATOM     25  C   UNL     1       3.977  -2.237  -4.562  0.00  0.00    +0.018 A 
ATOM     26  C   UNL     1       2.842  -1.465  -4.735  0.00  0.00    +0.017 A 
ATOM     27  C   UNL     1       2.199  -0.925  -3.638  0.00  0.00    +0.024 A 
ATOM     28 BR   UNL     1       4.852  -2.979  -6.065  0.00  0.00    -0.050 Br
ENDBRANCH  20  22
ENDBRANCH  17  18
ENDBRANCH   1  17
TORSDOF 4
