REMARK  Name = ZINC22303939
REMARK  5 active torsions:
REMARK  status: ('A' for Active; 'I' for Inactive)
REMARK    1  A    between atoms: C_1  and  C_2
REMARK    2  A    between atoms: C_3  and  C_18
REMARK    3  A    between atoms: C_4  and  C_10
REMARK    4  A    between atoms: N_20  and  C_21
REMARK    5  A    between atoms: C_25  and  N_27
REMARK                            x       y       z     vdW  Elec       q    Type
REMARK                         _______ _______ _______ _____ _____    ______ ____
ROOT
ATOM      1  C   UNL     1      -3.241   0.723   1.608  0.00  0.00    +0.061 C 
ATOM      2  C   UNL     1      -2.160   1.000   0.595  0.00  0.00    +0.017 C 
ATOM      3  C   UNL     1      -0.873   1.050   0.994  0.00  0.00    +0.056 C 
ATOM      4  C   UNL     1       0.182   1.331  -0.056  0.00  0.00    +0.142 C 
ATOM      5  N   UNL     1      -0.288   1.527  -1.438  0.00  0.00    -0.315 N 
ATOM      6  C   UNL     1      -1.611   1.446  -1.682  0.00  0.00    +0.135 C 
ATOM      7  S   UNL     1      -2.172   1.671  -3.284  0.00  0.00    -0.019 S 
ATOM      8  N   UNL     1      -2.500   1.196  -0.713  0.00  0.00    -0.300 N 
ATOM      9  H   UNL     1       0.435   1.733  -2.241  0.00  0.00    +0.149 HD
ATOM     10  H   UNL     1      -3.556   1.151  -1.020  0.00  0.00    +0.154 HD
ENDROOT
BRANCH   4  11
ATOM     11  C   UNL     1       0.933   2.570   0.359  0.00  0.00    +0.014 A 
ATOM     12  C   UNL     1       0.393   3.421   1.304  0.00  0.00    +0.024 A 
ATOM     13  C   UNL     1       1.083   4.558   1.686  0.00  0.00    +0.018 A 
ATOM     14  C   UNL     1       2.313   4.844   1.121  0.00  0.00    +0.018 A 
ATOM     15  C   UNL     1       2.854   3.994   0.176  0.00  0.00    +0.040 A 
ATOM     16  C   UNL     1       2.167   2.852  -0.202  0.00  0.00    +0.129 A 
ATOM     17  F   UNL     1       2.698   2.018  -1.123  0.00  0.00    -0.205 F 
ATOM     18 BR   UNL     1       0.343   5.722   2.980  0.00  0.00    -0.050 Br
ENDBRANCH   4  11
BRANCH   3  19
ATOM     19  C   UNL     1      -0.520   0.846   2.351  0.00  0.00    +0.248 C 
ATOM     20  O   UNL     1      -1.389   0.730   3.195  0.00  0.00    -0.270 OA
ATOM     21  N   UNL     1       0.778   0.781   2.707  0.00  0.00    -0.282 N 
ATOM     22  H   UNL     1       1.563   0.978   1.962  0.00  0.00    +0.155 HD
BRANCH  21  23
ATOM     23  C   UNL     1       1.128   0.464   4.023  0.00  0.00    +0.036 A 
ATOM     24  C   UNL     1       0.357   0.931   5.080  0.00  0.00    +0.023 A 
ATOM     25  C   UNL     1       0.702   0.613   6.378  0.00  0.00    +0.004 A 
ATOM     26  C   UNL     1       1.819  -0.164   6.628  0.00  0.00    +0.033 A 
ATOM     27  C   UNL     1       2.591  -0.627   5.578  0.00  0.00    +0.128 A 
ATOM     28  C   UNL     1       2.249  -0.315   4.277  0.00  0.00    +0.056 A 
BRANCH  27  29
ATOM     29  N   UNL     1       3.786  -1.457   5.850  0.00  0.00    +0.056 N 
ATOM     30  O   UNL     1       4.467  -1.865   4.926  0.00  0.00    -0.126 OA
ATOM     31  O   UNL     1       4.089  -1.732   6.997  0.00  0.00    -0.126 OA
ENDBRANCH  27  29
ENDBRANCH  21  23
ENDBRANCH   3  19
TORSDOF 4
