REMARK  Name = ZINC63012606
REMARK  2 active torsions:
REMARK  status: ('A' for Active; 'I' for Inactive)
REMARK    1  A    between atoms: N_8  and  C_12
REMARK    2  A    between atoms: C_13  and  N_20
REMARK                            x       y       z     vdW  Elec       q    Type
REMARK                         _______ _______ _______ _____ _____    ______ ____
ROOT
ATOM      1  C   UNL     1      -0.017   1.377   0.010  0.00  0.00    +0.001 A 
ATOM      2  C   UNL     1       1.176   2.077   0.002  0.00  0.00    +0.004 A 
ATOM      3  C   UNL     1       2.375   1.400   0.003  0.00  0.00    +0.046 A 
ATOM      4  C   UNL     1       2.404   0.004   0.003  0.00  0.00    +0.125 A 
ATOM      5  C   UNL     1       1.205  -0.688  -0.017  0.00  0.00    +0.011 A 
ATOM      6  C   UNL     1       0.002  -0.004   0.002  0.00  0.00    +0.009 A 
ATOM      7  C   UNL     1       1.188  -2.189  -0.099  0.00  0.00    +0.144 C 
ATOM      8  N   UNL     1       2.118  -2.748   0.883  0.00  0.00    -0.319 N 
ATOM      9  C   UNL     1       3.504  -2.954   0.472  0.00  0.00    +0.146 C 
ATOM     10  C   UNL     1       3.836  -1.855  -0.559  0.00  0.00    +0.248 C 
ATOM     11  O   UNL     1       3.633  -0.580   0.047  0.00  0.00    -0.490 OA
ENDROOT
BRANCH   8  12
ATOM     12  C   UNL     1       1.692  -3.076   2.177  0.00  0.00    +0.090 A 
ATOM     13  C   UNL     1       1.750  -2.125   3.194  0.00  0.00    +0.049 A 
ATOM     14  C   UNL     1       1.327  -2.454   4.473  0.00  0.00    +0.027 A 
ATOM     15  C   UNL     1       0.849  -3.724   4.739  0.00  0.00    +0.043 A 
ATOM     16  C   UNL     1       0.791  -4.671   3.731  0.00  0.00    +0.160 A 
ATOM     17  C   UNL     1       1.206  -4.348   2.449  0.00  0.00    +0.181 A 
ATOM     18  F   UNL     1       1.142  -5.271   1.465  0.00  0.00    -0.200 F 
ATOM     19  F   UNL     1       0.323  -5.910   3.997  0.00  0.00    -0.202 F 
BRANCH  13  20
ATOM     20  N   UNL     1       2.235  -0.838   2.925  0.00  0.00    -0.356 N 
ATOM     21  H   UNL     1       2.531  -0.609   2.030  0.00  0.00    +0.142 HD
ATOM     22  H   UNL     1       2.276  -0.176   3.633  0.00  0.00    +0.142 HD
ENDBRANCH  13  20
ENDBRANCH   8  12
TORSDOF 2
