REMARK  Name = ZINC40138449
REMARK  10 active torsions:
REMARK  status: ('A' for Active; 'I' for Inactive)
REMARK    1  A    between atoms: C_1  and  C_2
REMARK    2  A    between atoms: C_6  and  O_8
REMARK    3  A    between atoms: O_8  and  C_9
REMARK    4  A    between atoms: C_9  and  C_10
REMARK    5  A    between atoms: C_10  and  C_11
REMARK    6  A    between atoms: C_11  and  N_12
REMARK    7  A    between atoms: C_16  and  C_33
REMARK    8  A    between atoms: N_20  and  N_21
REMARK    9  A    between atoms: C_22  and  C_24
REMARK   10  A    between atoms: C_27  and  O_30
REMARK                            x       y       z     vdW  Elec       q    Type
REMARK                         _______ _______ _______ _____ _____    ______ ____
ROOT
ATOM      1  N   UNL     1       0.116  -6.893   4.943  0.00  0.00    -0.265 N 
ATOM      2  C   UNL     1       1.273  -7.177   5.661  0.00  0.00    +0.046 A 
ATOM      3  C   UNL     1       2.618  -7.022   5.345  0.00  0.00    +0.024 A 
ATOM      4  C   UNL     1       3.590  -7.390   6.254  0.00  0.00    +0.005 A 
ATOM      5  C   UNL     1       3.240  -7.915   7.486  0.00  0.00    -0.050 A 
ATOM      6  C   UNL     1       1.910  -8.077   7.817  0.00  0.00    +0.015 A 
ATOM      7  C   UNL     1       0.923  -7.709   6.909  0.00  0.00    +0.029 A 
ATOM      8  C   UNL     1      -0.557  -7.750   6.947  0.00  0.00    +0.153 C 
ATOM      9  N   UNL     1      -1.319  -8.174   7.926  0.00  0.00    -0.174 NA
ATOM     10  C   UNL     1      -0.987  -7.201   5.645  0.00  0.00    +0.271 C 
ATOM     11  O   UNL     1      -2.136  -7.057   5.273  0.00  0.00    -0.268 OA
ATOM     12  C   UNL     1       4.313  -8.312   8.467  0.00  0.00    +0.044 C 
ENDROOT
BRANCH   9  13
ATOM     13  N   UNL     1      -2.713  -8.141   7.792  0.00  0.00    -0.202 N 
ATOM     14  C   UNL     1      -3.497  -8.578   8.798  0.00  0.00    +0.263 C 
ATOM     15  O   UNL     1      -2.994  -9.001   9.821  0.00  0.00    -0.268 OA
ATOM     16  H   UNL     1      -3.115  -7.804   6.976  0.00  0.00    +0.178 HD
BRANCH  14  17
ATOM     17  C   UNL     1      -4.965  -8.543   8.658  0.00  0.00    +0.039 A 
ATOM     18  C   UNL     1      -5.545  -8.063   7.481  0.00  0.00    +0.016 A 
ATOM     19  C   UNL     1      -6.916  -8.033   7.354  0.00  0.00    +0.046 A 
ATOM     20  C   UNL     1      -7.722  -8.478   8.395  0.00  0.00    +0.117 A 
ATOM     21  C   UNL     1      -7.149  -8.955   9.568  0.00  0.00    +0.046 A 
ATOM     22  C   UNL     1      -5.779  -8.996   9.700  0.00  0.00    +0.016 A 
BRANCH  20  23
ATOM     23  O   UNL     1      -9.073  -8.445   8.266  0.00  0.00    -0.507 OA
ATOM     24  H   UNL     1      -9.451  -9.252   7.890  0.00  0.00    +0.292 HD
ENDBRANCH  20  23
ENDBRANCH  14  17
ENDBRANCH   9  13
BRANCH   1  25
ATOM     25  C   UNL     1       0.103  -6.324   3.593  0.00  0.00    +0.117 C 
BRANCH  25  26
ATOM     26  C   UNL     1       0.083  -4.796   3.683  0.00  0.00    +0.060 C 
BRANCH  26  27
ATOM     27  C   UNL     1       0.069  -4.202   2.274  0.00  0.00    +0.230 C 
BRANCH  27  28
ATOM     28  O   UNL     1       0.050  -2.776   2.358  0.00  0.00    -0.492 OA
BRANCH  28  34
ATOM     29  C   UNL     1      -0.018   1.503   0.010  0.00  0.00    +0.044 C 
ATOM     30  C   UNL     1       0.002  -0.004   0.002  0.00  0.00    -0.047 A 
ATOM     31  C   UNL     1       0.006  -0.688  -1.200  0.00  0.00    +0.003 A 
ATOM     32  C   UNL     1       0.024  -2.071  -1.211  0.00  0.00    +0.004 A 
ATOM     33  C   UNL     1       0.039  -2.772  -0.020  0.00  0.00    +0.045 A 
ATOM     34  C   UNL     1       0.035  -2.088   1.186  0.00  0.00    +0.121 A 
ATOM     35  C   UNL     1       0.023  -0.700   1.195  0.00  0.00    +0.049 A 
ENDBRANCH  28  34
ENDBRANCH  27  28
ENDBRANCH  26  27
ENDBRANCH  25  26
ENDBRANCH   1  25
TORSDOF 8
