REMARK  Name = ZINC42495531
REMARK  4 active torsions:
REMARK  status: ('A' for Active; 'I' for Inactive)
REMARK    1  A    between atoms: C_1  and  N_2
REMARK    2  A    between atoms: N_2  and  C_3
REMARK    3  A    between atoms: C_3  and  C_4
REMARK    4  A    between atoms: C_13  and  C_16
REMARK                            x       y       z     vdW  Elec       q    Type
REMARK                         _______ _______ _______ _____ _____    ______ ____
ROOT
ATOM      1  C   UNL     1      -0.018   1.461   0.010  0.00  0.00    +0.130 C 
ATOM      2  N   UNL     1       0.002  -0.004   0.002  0.00  0.00    -0.319 N 
ATOM      3  C   UNL     1       0.000  -0.689  -1.200  0.00  0.00    +0.098 A 
ATOM      4  C   UNL     1       0.013  -2.084  -1.196  0.00  0.00    +0.042 A 
ATOM      5  C   UNL     1       0.011  -2.759  -2.385  0.00  0.00    +0.020 A 
ATOM      6  C   UNL     1      -0.004  -2.015  -3.578  0.00  0.00    +0.079 A 
ATOM      7  C   UNL     1      -0.017  -0.619  -3.506  0.00  0.00    +0.099 A 
ATOM      8  N   UNL     1      -0.020  -0.010  -2.339  0.00  0.00    -0.349 N 
ATOM      9  H   UNL     1      -0.033   0.959  -2.312  0.00  0.00    +0.167 HD
ENDROOT
BRANCH   6  10
ATOM     10  C   UNL     1      -0.007  -2.696  -4.883  0.00  0.00    +0.388 C 
ATOM     11  O   UNL     1       0.005  -3.918  -4.935  0.00  0.00    -0.241 OA
ATOM     12  O   UNL     1      -0.020  -2.039  -5.915  0.00  0.00    -0.241 OA
ENDBRANCH   6  10
BRANCH   2  13
ATOM     13  C   UNL     1       0.024  -0.743   1.267  0.00  0.00    +0.109 C 
BRANCH  13  14
ATOM     14  C   UNL     1      -1.411  -1.020   1.720  0.00  0.00    +0.006 C 
ATOM     15  C   UNL     1      -2.110   0.303   2.038  0.00  0.00    +0.005 C 
ATOM     16  C   UNL     1      -3.544   0.026   2.491  0.00  0.00    +0.000 C 
ATOM     17  C   UNL     1      -3.522  -0.852   3.744  0.00  0.00    +0.000 C 
ATOM     18  C   UNL     1      -2.823  -2.175   3.427  0.00  0.00    +0.000 C 
ATOM     19  C   UNL     1      -1.389  -1.898   2.973  0.00  0.00    +0.005 C 
ENDBRANCH  13  14
ENDBRANCH   2  13
TORSDOF 3
