REMARK  Name = ZINC20167760
REMARK  13 active torsions:
REMARK  status: ('A' for Active; 'I' for Inactive)
REMARK    1  A    between atoms: C_1  and  C_2
REMARK    2  A    between atoms: C_2  and  O_3
REMARK    3  A    between atoms: O_3  and  C_4
REMARK    4  A    between atoms: C_4  and  C_6
REMARK    5  A    between atoms: C_6  and  S_7
REMARK    6  A    between atoms: S_7  and  C_8
REMARK    7  A    between atoms: C_11  and  C_17
REMARK    8  A    between atoms: N_12  and  C_13
REMARK    9  A    between atoms: C_13  and  C_14
REMARK   10  A    between atoms: C_14  and  O_15
REMARK   11  A    between atoms: O_15  and  C_16
REMARK   12  A    between atoms: N_22  and  S_24
REMARK   13  A    between atoms: S_24  and  C_27
REMARK                            x       y       z     vdW  Elec       q    Type
REMARK                         _______ _______ _______ _____ _____    ______ ____
ROOT
ATOM      1  C   UNL     1       1.672  -3.612   4.325  0.00  0.00    +0.192 A 
ATOM      2  N   UNL     1       0.494  -4.011   3.902  0.00  0.00    -0.122 NA
ATOM      3  N   UNL     1       0.202  -3.416   2.801  0.00  0.00    -0.133 NA
ATOM      4  C   UNL     1       1.166  -2.610   2.457  0.00  0.00    +0.139 A 
ATOM      5  N   UNL     1       2.139  -2.710   3.413  0.00  0.00    -0.304 N 
ENDROOT
BRANCH   4   6
ATOM      6  C   UNL     1       1.205  -1.735   1.231  0.00  0.00    +0.073 C 
ATOM      7  C   UNL     1       1.108  -2.607  -0.023  0.00  0.00    +0.014 C 
ATOM      8  C   UNL     1       1.180  -1.722  -1.269  0.00  0.00    +0.018 C 
ATOM      9  C   UNL     1      -0.006  -0.746  -1.266  0.00  0.00    +0.109 C 
ATOM     10  N   UNL     1       0.002  -0.004   0.002  0.00  0.00    -0.176 NA
ATOM     11  C   UNL     1       0.024  -0.759   1.262  0.00  0.00    +0.120 C 
BRANCH  10  12
ATOM     12  S   UNL     1      -0.020   1.652   0.011  0.00  0.00    +0.061 S 
ATOM     13  O   UNL     1      -0.589   2.057  -1.227  0.00  0.00    -0.153 OA
ATOM     14  O   UNL     1      -0.565   2.044   1.264  0.00  0.00    -0.153 OA
BRANCH  12  15
ATOM     15  C   UNL     1       1.655   2.196  -0.002  0.00  0.00    +0.105 A 
ATOM     16  C   UNL     1       2.323   2.408   1.190  0.00  0.00    +0.028 A 
ATOM     17  C   UNL     1       3.639   2.830   1.180  0.00  0.00    +0.002 A 
ATOM     18  C   UNL     1       4.285   3.049  -0.022  0.00  0.00    +0.000 A 
ATOM     19  C   UNL     1       3.616   2.842  -1.214  0.00  0.00    +0.002 A 
ATOM     20  C   UNL     1       2.301   2.415  -1.204  0.00  0.00    +0.028 A 
ENDBRANCH  12  15
ENDBRANCH  10  12
ENDBRANCH   4   6
BRANCH   1  21
ATOM     21  S   UNL     1       2.495  -4.146   5.788  0.00  0.00    -0.075 S 
BRANCH  21  22
ATOM     22  C   UNL     1       1.271  -5.314   6.430  0.00  0.00    +0.197 C 
BRANCH  22  23
ATOM     23  C   UNL     1       1.775  -5.914   7.717  0.00  0.00    +0.317 C 
ATOM     24  O   UNL     1       2.852  -5.585   8.155  0.00  0.00    -0.250 OA
BRANCH  23  25
ATOM     25  O   UNL     1       1.027  -6.813   8.377  0.00  0.00    -0.464 OA
BRANCH  25  27
ATOM     26  C   UNL     1       0.590  -8.350  10.214  0.00  0.00    +0.048 C 
ATOM     27  C   UNL     1       1.576  -7.349   9.610  0.00  0.00    +0.229 C 
ENDBRANCH  25  27
ENDBRANCH  23  25
ENDBRANCH  22  23
ENDBRANCH  21  22
ENDBRANCH   1  21
BRANCH   5  28
ATOM     28  C   UNL     1       3.417  -1.995   3.452  0.00  0.00    +0.153 C 
BRANCH  28  29
ATOM     29  C   UNL     1       3.241  -0.677   4.209  0.00  0.00    +0.181 C 
BRANCH  29  30
ATOM     30  O   UNL     1       4.488   0.021   4.247  0.00  0.00    -0.381 OA
ATOM     31  C   UNL     1       4.433   1.272   4.936  0.00  0.00    +0.194 C 
ENDBRANCH  29  30
ENDBRANCH  28  29
ENDBRANCH   5  28
TORSDOF 11
