REMARK  Name = ZINC02210897
REMARK  10 active torsions:
REMARK  status: ('A' for Active; 'I' for Inactive)
REMARK    1  A    between atoms: C_1  and  C_2
REMARK    2  A    between atoms: C_4  and  C_37
REMARK    3  A    between atoms: C_5  and  O_36
REMARK    4  A    between atoms: C_6  and  C_8
REMARK    5  A    between atoms: N_16  and  C_28
REMARK    6  A    between atoms: C_17  and  C_19
REMARK    7  A    between atoms: C_22  and  O_27
REMARK    8  A    between atoms: C_23  and  O_25
REMARK    9  A    between atoms: O_25  and  C_26
REMARK   10  A    between atoms: C_28  and  C_29
REMARK                            x       y       z     vdW  Elec       q    Type
REMARK                         _______ _______ _______ _____ _____    ______ ____
ROOT
ATOM      1  C   UNL     1      -0.095  -2.875   1.996  0.00  0.00    +0.102 A 
ATOM      2  C   UNL     1       0.044  -2.413   3.309  0.00  0.00    +0.035 A 
ATOM      3  C   UNL     1       0.472  -3.500   4.047  0.00  0.00    +0.126 A 
ATOM      4  N   UNL     1       0.569  -4.541   3.168  0.00  0.00    -0.272 N 
ATOM      5  H   UNL     1       0.848  -5.441   3.399  0.00  0.00    +0.189 HD
ATOM      6  N   UNL     1       0.231  -4.152   1.990  0.00  0.00    -0.173 NA
ATOM      7  C   UNL     1       0.638  -3.081   5.443  0.00  0.00    +0.266 C 
ATOM      8  O   UNL     1       1.005  -3.807   6.348  0.00  0.00    -0.268 OA
ATOM      9  N   UNL     1       0.327  -1.779   5.581  0.00  0.00    -0.281 N 
ATOM     10  C   UNL     1      -0.068  -1.258   4.266  0.00  0.00    +0.142 C 
ENDROOT
BRANCH   1  16
ATOM     11  C   UNL     1      -1.870   1.388   0.099  0.00  0.00    +0.044 C 
ATOM     12  C   UNL     1      -1.388  -0.027  -0.091  0.00  0.00    -0.049 A 
ATOM     13  C   UNL     1      -1.356  -0.580  -1.359  0.00  0.00    +0.010 A 
ATOM     14  C   UNL     1      -0.915  -1.877  -1.543  0.00  0.00    -0.008 A 
ATOM     15  C   UNL     1      -0.503  -2.631  -0.456  0.00  0.00    +0.129 A 
ATOM     16  C   UNL     1      -0.534  -2.075   0.826  0.00  0.00    +0.044 A 
ATOM     17  C   UNL     1      -0.974  -0.765   0.999  0.00  0.00    +0.017 A 
ATOM     18  C   UNL     1      -0.883  -2.472  -2.927  0.00  0.00    +0.047 C 
BRANCH  15  19
ATOM     19  O   UNL     1      -0.070  -3.906  -0.635  0.00  0.00    -0.506 OA
ATOM     20  H   UNL     1       0.880  -3.980  -0.796  0.00  0.00    +0.292 HD
ENDBRANCH  15  19
ENDBRANCH   1  16
BRANCH  10  21
ATOM     21  C   UNL     1       0.861  -0.147   3.849  0.00  0.00    -0.019 A 
ATOM     22  C   UNL     1       0.345   1.024   3.326  0.00  0.00    +0.009 A 
ATOM     23  C   UNL     1       1.192   2.046   2.941  0.00  0.00    +0.049 A 
ATOM     24  C   UNL     1       2.563   1.898   3.081  0.00  0.00    +0.158 A 
ATOM     25  C   UNL     1       3.083   0.720   3.608  0.00  0.00    +0.162 A 
ATOM     26  C   UNL     1       2.227  -0.299   3.995  0.00  0.00    +0.055 A 
BRANCH  25  27
ATOM     27  O   UNL     1       4.428   0.570   3.747  0.00  0.00    -0.491 OA
ATOM     28  C   UNL     1       4.895  -0.702   4.200  0.00  0.00    +0.277 C 
ENDBRANCH  25  27
BRANCH  24  29
ATOM     29  O   UNL     1       3.399   2.902   2.703  0.00  0.00    -0.503 OA
ATOM     30  H   UNL     1       3.595   3.537   3.406  0.00  0.00    +0.292 HD
ENDBRANCH  24  29
ENDBRANCH  10  21
BRANCH   9  31
ATOM     31  C   UNL     1       0.374  -1.013   6.829  0.00  0.00    +0.145 C 
BRANCH  31  32
ATOM     32  C   UNL     1      -1.003  -0.959   7.438  0.00  0.00    -0.012 A 
ATOM     33  C   UNL     1      -1.827   0.123   7.188  0.00  0.00    +0.006 A 
ATOM     34  C   UNL     1      -3.091   0.173   7.746  0.00  0.00    +0.000 A 
ATOM     35  C   UNL     1      -3.531  -0.859   8.554  0.00  0.00    +0.001 A 
ATOM     36  C   UNL     1      -2.709  -1.941   8.805  0.00  0.00    +0.020 A 
ATOM     37  C   UNL     1      -1.446  -1.994   8.242  0.00  0.00    +0.046 A 
ATOM     38 CL   UNL     1      -0.414  -3.356   8.550  0.00  0.00    -0.083 Cl
ENDBRANCH  31  32
ENDBRANCH   9  31
TORSDOF 7
