REMARK  Name = ZINC63254364
REMARK  6 active torsions:
REMARK  status: ('A' for Active; 'I' for Inactive)
REMARK    1  A    between atoms: C_1  and  N_2
REMARK    2  A    between atoms: C_3  and  C_5
REMARK    3  A    between atoms: C_8  and  N_11
REMARK    4  A    between atoms: C_12  and  C_14
REMARK    5  A    between atoms: C_14  and  N_15
REMARK    6  A    between atoms: N_18  and  C_19
REMARK                            x       y       z     vdW  Elec       q    Type
REMARK                         _______ _______ _______ _____ _____    ______ ____
ROOT
ATOM      1  N   UNL     1      -0.736  -4.276   3.443  0.00  0.00    -0.311 N 
ATOM      2  C   UNL     1      -0.613  -4.958   4.599  0.00  0.00    +0.230 C 
ATOM      3  O   UNL     1       0.066  -5.962   4.641  0.00  0.00    -0.274 OA
ATOM      4  H   UNL     1      -1.278  -3.473   3.409  0.00  0.00    +0.149 HD
ENDROOT
BRANCH   1   8
ATOM      5  C   UNL     1       0.625  -2.182   0.995  0.00  0.00    +0.075 C 
ATOM      6  C   UNL     1      -0.811  -2.712   1.006  0.00  0.00    +0.014 C 
ATOM      7  C   UNL     1      -0.790  -4.242   0.998  0.00  0.00    +0.023 C 
ATOM      8  C   UNL     1      -0.050  -4.748   2.237  0.00  0.00    +0.073 C 
ATOM      9  C   UNL     1       1.386  -4.219   2.226  0.00  0.00    +0.023 C 
ATOM     10  C   UNL     1       1.365  -2.689   2.235  0.00  0.00    +0.014 C 
BRANCH   5  13
ATOM     11  C   UNL     1      -0.018   1.461   0.010  0.00  0.00    +0.128 C 
ATOM     12  N   UNL     1       0.002  -0.004   0.002  0.00  0.00    -0.318 N 
ATOM     13  C   UNL     1       0.604  -0.675   1.004  0.00  0.00    +0.216 C 
ATOM     14  O   UNL     1       1.130  -0.067   1.911  0.00  0.00    -0.276 OA
ATOM     15  H   UNL     1      -0.418  -0.491  -0.724  0.00  0.00    +0.148 HD
ENDBRANCH   5  13
ENDBRANCH   1   8
BRANCH   2  16
ATOM     16  C   UNL     1      -1.318  -4.472   5.839  0.00  0.00    +0.201 C 
BRANCH  16  17
ATOM     17  N   UNL     1      -1.028  -5.378   6.952  0.00  0.00    -0.291 N 
ATOM     18  C   UNL     1      -1.555  -5.140   8.170  0.00  0.00    +0.300 C 
ATOM     19  O   UNL     1      -2.272  -4.174   8.343  0.00  0.00    -0.253 OA
ATOM     20  N   UNL     1      -1.288  -5.974   9.194  0.00  0.00    -0.297 N 
ATOM     21  H   UNL     1      -0.456  -6.149   6.814  0.00  0.00    +0.151 HD
ATOM     22  H   UNL     1      -0.716  -6.745   9.056  0.00  0.00    +0.151 HD
BRANCH  20  23
ATOM     23  C   UNL     1      -1.862  -5.715  10.518  0.00  0.00    +0.074 C 
ATOM     24  C   UNL     1      -0.969  -4.732  11.277  0.00  0.00    +0.022 C 
ATOM     25  C   UNL     1      -1.568  -4.462  12.659  0.00  0.00    +0.002 C 
ATOM     26  C   UNL     1      -1.661  -5.775  13.440  0.00  0.00    +0.000 C 
ATOM     27  C   UNL     1      -2.554  -6.758  12.680  0.00  0.00    +0.002 C 
ATOM     28  C   UNL     1      -1.955  -7.028  11.298  0.00  0.00    +0.022 C 
ENDBRANCH  20  23
ENDBRANCH  16  17
ENDBRANCH   2  16
TORSDOF 5
