REMARK  Name = ZINC64006936
REMARK  8 active torsions:
REMARK  status: ('A' for Active; 'I' for Inactive)
REMARK    1  A    between atoms: C_1  and  C_2
REMARK    2  A    between atoms: C_3  and  C_8
REMARK    3  A    between atoms: C_4  and  C_7
REMARK    4  A    between atoms: C_8  and  C_9
REMARK    5  A    between atoms: C_24  and  C_26
REMARK    6  A    between atoms: C_26  and  C_27
REMARK    7  A    between atoms: C_27  and  C_28
REMARK    8  A    between atoms: C_27  and  C_29
REMARK                            x       y       z     vdW  Elec       q    Type
REMARK                         _______ _______ _______ _____ _____    ______ ____
ROOT
ATOM      1  C   UNL     1       1.411  -0.170  -3.054  0.00  0.00    +0.220 C 
ATOM      2  O   UNL     1       2.340  -0.406  -2.311  0.00  0.00    -0.275 OA
ATOM      3  N   UNL     1       1.645   0.252  -4.312  0.00  0.00    -0.296 N 
ATOM      4  C   UNL     1       0.516   0.541  -5.203  0.00  0.00    +0.112 C 
ATOM      5  C   UNL     1       0.609   1.998  -5.692  0.00  0.00    +0.052 C 
ATOM      6  C   UNL     1       2.043   2.227  -6.101  0.00  0.00    -0.035 C 
ATOM      7  C   UNL     1       2.571   2.705  -7.221  0.00  0.00    -0.001 A 
ATOM      8  C   UNL     1       1.954   3.286  -8.424  0.00  0.00    +0.010 A 
ATOM      9  C   UNL     1       2.808   3.663  -9.413  0.00  0.00    +0.001 A 
ATOM     10  C   UNL     1       4.196   3.522  -9.325  0.00  0.00    +0.002 A 
ATOM     11  C   UNL     1       4.849   3.006  -8.253  0.00  0.00    +0.026 A 
ATOM     12  C   UNL     1       4.059   2.582  -7.146  0.00  0.00    +0.043 A 
ATOM     13  N   UNL     1       4.416   2.081  -6.000  0.00  0.00    -0.376 N 
ATOM     14  C   UNL     1       3.215   1.883  -5.188  0.00  0.00    +0.127 C 
ATOM     15  C   UNL     1       3.031   0.424  -4.776  0.00  0.00    +0.103 C 
ATOM     16  H   UNL     1       5.324   1.873  -5.730  0.00  0.00    +0.160 HD
ENDROOT
BRANCH   1  17
ATOM     17  C   UNL     1      -0.005  -0.348  -2.571  0.00  0.00    +0.136 C 
BRANCH  17  20
ATOM     18  C   UNL     1      -0.018   1.503   0.010  0.00  0.00    +0.069 C 
ATOM     19  C   UNL     1       0.002  -0.004   0.002  0.00  0.00    +0.084 A 
ATOM     20  C   UNL     1       0.008  -0.824  -1.141  0.00  0.00    +0.026 A 
ATOM     21  C   UNL     1       0.027  -2.108  -0.735  0.00  0.00    +0.138 A 
ATOM     22  O   UNL     1       0.034  -2.119   0.606  0.00  0.00    -0.359 OA
ATOM     23  N   UNL     1       0.023  -0.775   1.052  0.00  0.00    -0.083 NA
ATOM     24  C   UNL     1       0.039  -3.320  -1.631  0.00  0.00    +0.089 C 
ENDBRANCH  17  20
ENDBRANCH   1  17
BRANCH  15  25
ATOM     25  C   UNL     1       3.292  -0.487  -5.978  0.00  0.00    +0.028 C 
BRANCH  25  26
ATOM     26  C   UNL     1       3.194  -1.950  -5.540  0.00  0.00    -0.015 C 
ATOM     27  C   UNL     1       3.331  -2.858  -6.763  0.00  0.00    +0.007 C 
ATOM     28  C   UNL     1       4.314  -2.260  -4.545  0.00  0.00    +0.007 C 
ENDBRANCH  25  26
ENDBRANCH  15  25
TORSDOF 4
