REMARK  Name = ZINC65178845
REMARK  9 active torsions:
REMARK  status: ('A' for Active; 'I' for Inactive)
REMARK    1  A    between atoms: C_1  and  C_2
REMARK    2  A    between atoms: C_2  and  C_3
REMARK    3  A    between atoms: C_2  and  C_4
REMARK    4  A    between atoms: C_4  and  N_5
REMARK    5  A    between atoms: N_8  and  N_9
REMARK    6  A    between atoms: C_10  and  C_12
REMARK    7  A    between atoms: C_12  and  C_13
REMARK    8  A    between atoms: C_12  and  O_19
REMARK    9  A    between atoms: O_19  and  C_20
REMARK                            x       y       z     vdW  Elec       q    Type
REMARK                         _______ _______ _______ _____ _____    ______ ____
ROOT
ATOM      1  N   UNL     1       4.828   0.432  -0.954  0.00  0.00    -0.230 N 
ATOM      2  C   UNL     1       6.109   0.850  -0.911  0.00  0.00    +0.274 C 
ATOM      3  O   UNL     1       6.912   0.426  -1.714  0.00  0.00    -0.270 OA
ATOM      4  H   UNL     1       4.185   0.772  -0.311  0.00  0.00    +0.173 HD
ENDROOT
BRANCH   1   8
ATOM      5  N   UNL     1       2.251  -0.438  -1.076  0.00  0.00    -0.298 N 
ATOM      6  C   UNL     1       3.144  -0.910  -1.968  0.00  0.00    +0.316 C 
ATOM      7  O   UNL     1       2.795  -1.713  -2.812  0.00  0.00    -0.251 OA
ATOM      8  N   UNL     1       4.425  -0.492  -1.926  0.00  0.00    -0.218 N 
ATOM      9  H   UNL     1       2.530   0.202  -0.403  0.00  0.00    +0.150 HD
ATOM     10  H   UNL     1       5.068  -0.832  -2.568  0.00  0.00    +0.174 HD
BRANCH   5  11
ATOM     11  C   UNL     1       0.859  -0.893  -1.122  0.00  0.00    +0.108 C 
BRANCH  11  13
ATOM     12  C   UNL     1       0.006   1.297  -0.273  0.00  0.00    +0.009 C 
ATOM     13  C   UNL     1       0.062  -0.209  -0.009  0.00  0.00    -0.000 C 
ATOM     14  C   UNL     1      -1.359  -0.775   0.022  0.00  0.00    +0.009 C 
ENDBRANCH  11  13
ENDBRANCH   5  11
ENDBRANCH   1   8
BRANCH   2  15
ATOM     15  C   UNL     1       6.542   1.845   0.134  0.00  0.00    +0.290 C 
BRANCH  15  16
ATOM     16  C   UNL     1       6.416   1.224   1.502  0.00  0.00    +0.002 A 
ATOM     17  C   UNL     1       7.445   0.452   2.008  0.00  0.00    +0.008 A 
ATOM     18  C   UNL     1       7.330  -0.117   3.262  0.00  0.00    +0.000 A 
ATOM     19  C   UNL     1       6.186   0.085   4.010  0.00  0.00    +0.000 A 
ATOM     20  C   UNL     1       5.157   0.858   3.505  0.00  0.00    +0.000 A 
ATOM     21  C   UNL     1       5.274   1.431   2.252  0.00  0.00    +0.008 A 
ENDBRANCH  15  16
BRANCH  15  22
ATOM     22  O   UNL     1       7.902   2.217  -0.097  0.00  0.00    -0.475 OA
BRANCH  22  23
ATOM     23  C   UNL     1       8.303   3.423   0.384  0.00  0.00    +0.122 A 
ATOM     24  C   UNL     1       9.574   3.899   0.096  0.00  0.00    +0.046 A 
ATOM     25  C   UNL     1       9.978   5.126   0.585  0.00  0.00    +0.004 A 
ATOM     26  C   UNL     1       9.117   5.880   1.362  0.00  0.00    +0.000 A 
ATOM     27  C   UNL     1       7.850   5.407   1.651  0.00  0.00    +0.004 A 
ATOM     28  C   UNL     1       7.439   4.184   1.159  0.00  0.00    +0.046 A 
ENDBRANCH  22  23
ENDBRANCH  15  22
ENDBRANCH   2  15
TORSDOF 7
