REMARK  Name = ZINC02803521
REMARK  9 active torsions:
REMARK  status: ('A' for Active; 'I' for Inactive)
REMARK    1  A    between atoms: C_1  and  C_2
REMARK    2  A    between atoms: C_2  and  N_3
REMARK    3  A    between atoms: C_5  and  S_9
REMARK    4  A    between atoms: C_6  and  C_8
REMARK    5  A    between atoms: S_9  and  N_12
REMARK    6  A    between atoms: N_15  and  S_18
REMARK    7  A    between atoms: S_18  and  C_21
REMARK    8  A    between atoms: C_22  and  C_28
REMARK    9  A    between atoms: C_26  and  C_27
REMARK                            x       y       z     vdW  Elec       q    Type
REMARK                         _______ _______ _______ _____ _____    ______ ____
ROOT
ATOM      1  N   UNL     1       1.937  -1.524  -4.075  0.00  0.00    -0.174 NA
ATOM      2  C   UNL     1       2.937  -0.574  -3.570  0.00  0.00    +0.126 C 
ATOM      3  C   UNL     1       3.445  -1.071  -2.211  0.00  0.00    +0.126 C 
ATOM      4  N   UNL     1       2.287  -1.395  -1.367  0.00  0.00    -0.174 NA
ATOM      5  C   UNL     1       1.289  -2.350  -1.869  0.00  0.00    +0.126 C 
ATOM      6  C   UNL     1       0.778  -1.848  -3.230  0.00  0.00    +0.126 C 
ENDROOT
BRANCH   1   7
ATOM      7  S   UNL     1       2.112  -2.219  -5.568  0.00  0.00    +0.064 S 
ATOM      8  O   UNL     1       3.507  -2.276  -5.828  0.00  0.00    -0.153 OA
ATOM      9  O   UNL     1       1.287  -3.377  -5.576  0.00  0.00    -0.153 OA
BRANCH   7  12
ATOM     10  N   UNL     1       1.222   0.298  -8.407  0.00  0.00    -0.270 N 
ATOM     11  C   UNL     1       2.104  -0.459  -7.722  0.00  0.00    +0.137 A 
ATOM     12  C   UNL     1       1.425  -1.103  -6.745  0.00  0.00    +0.146 A 
ATOM     13  C   UNL     1       0.080  -0.731  -6.840  0.00  0.00    +0.086 A 
ATOM     14  N   UNL     1      -0.042   0.114  -7.831  0.00  0.00    -0.174 NA
ATOM     15  C   UNL     1      -1.036  -1.216  -5.950  0.00  0.00    +0.069 C 
BRANCH  10  17
ATOM     16  C   UNL     1       0.638   0.779 -10.732  0.00  0.00    +0.029 C 
ATOM     17  C   UNL     1       1.531   1.161  -9.550  0.00  0.00    +0.140 C 
ENDBRANCH  10  17
ENDBRANCH   7  12
ENDBRANCH   1   7
BRANCH   4  18
ATOM     18  S   UNL     1       2.112  -0.701   0.126  0.00  0.00    +0.064 S 
ATOM     19  O   UNL     1       3.413  -0.320   0.552  0.00  0.00    -0.153 OA
ATOM     20  O   UNL     1       1.288  -1.574   0.886  0.00  0.00    -0.153 OA
BRANCH  18  21
ATOM     21  C   UNL     1       1.198   0.789  -0.095  0.00  0.00    +0.148 A 
ATOM     22  C   UNL     1      -0.148   0.912  -0.048  0.00  0.00    +0.060 A 
ATOM     23  N   UNL     1      -0.451   2.208  -0.266  0.00  0.00    -0.280 N 
ATOM     24  H   UNL     1      -1.370   2.602  -0.290  0.00  0.00    +0.189 HD
ATOM     25  N   UNL     1       0.749   2.906  -0.453  0.00  0.00    -0.177 NA
ATOM     26  C   UNL     1       1.737   2.055  -0.350  0.00  0.00    +0.086 A 
ATOM     27  C   UNL     1       3.202   2.381  -0.484  0.00  0.00    +0.069 C 
ATOM     28  C   UNL     1      -1.133  -0.201   0.203  0.00  0.00    +0.067 C 
ENDBRANCH  18  21
ENDBRANCH   4  18
TORSDOF 5
