REMARK  Name = ZINC67262672
REMARK  5 active torsions:
REMARK  status: ('A' for Active; 'I' for Inactive)
REMARK    1  A    between atoms: N_7  and  C_12
REMARK    2  A    between atoms: C_12  and  C_13
REMARK    3  A    between atoms: N_15  and  C_16
REMARK    4  A    between atoms: C_19  and  C_22
REMARK    5  A    between atoms: C_22  and  N_23
REMARK                            x       y       z     vdW  Elec       q    Type
REMARK                         _______ _______ _______ _____ _____    ______ ____
ROOT
ATOM      1  C   UNL     1       0.034  -2.839  -2.011  0.00  0.00    +0.235 C 
ATOM      2  O   UNL     1       0.985  -2.401  -2.623  0.00  0.00    -0.274 OA
ATOM      3  N   UNL     1      -0.992  -3.406  -2.676  0.00  0.00    -0.284 N 
ATOM      4  H   UNL     1      -1.786  -3.686  -2.195  0.00  0.00    +0.155 HD
ENDROOT
BRANCH   3   5
ATOM      5  C   UNL     1      -0.911  -3.592  -4.061  0.00  0.00    +0.033 A 
ATOM      6  C   UNL     1      -2.048  -3.465  -4.848  0.00  0.00    +0.023 A 
ATOM      7  C   UNL     1      -1.964  -3.649  -6.214  0.00  0.00    +0.007 A 
ATOM      8  C   UNL     1      -0.750  -3.960  -6.798  0.00  0.00    -0.030 A 
ATOM      9  C   UNL     1       0.384  -4.088  -6.017  0.00  0.00    +0.007 A 
ATOM     10  C   UNL     1       0.308  -3.899  -4.651  0.00  0.00    +0.023 A 
BRANCH   8  11
ATOM     11  C   UNL     1      -0.662  -4.160  -8.290  0.00  0.00    +0.141 C 
BRANCH  11  12
ATOM     12  N   UNL     1      -0.369  -2.880  -8.938  0.00  0.00    -0.295 N 
ATOM     13  C   UNL     1      -0.244  -2.816 -10.278  0.00  0.00    +0.297 C 
ATOM     14  O   UNL     1      -0.376  -3.821 -10.950  0.00  0.00    -0.253 OA
ATOM     15  N   UNL     1       0.026  -1.638 -10.875  0.00  0.00    -0.313 N 
ATOM     16  H   UNL     1      -0.264  -2.078  -8.402  0.00  0.00    +0.151 HD
ATOM     17  H   UNL     1       0.131  -0.836 -10.339  0.00  0.00    +0.146 HD
ATOM     18  H   UNL     1       0.115  -1.592 -11.839  0.00  0.00    +0.146 HD
ENDBRANCH  11  12
ENDBRANCH   8  11
ENDBRANCH   3   5
BRANCH   1  19
ATOM     19  C   UNL     1      -0.002  -2.748  -0.507  0.00  0.00    +0.209 C 
BRANCH  19  26
ATOM     20  C   UNL     1       3.343  -5.072   0.263  0.00  0.00    +0.002 A 
ATOM     21  C   UNL     1       4.333  -4.627   1.121  0.00  0.00    +0.001 A 
ATOM     22  C   UNL     1       4.297  -3.331   1.600  0.00  0.00    +0.016 A 
ATOM     23  C   UNL     1       3.270  -2.483   1.221  0.00  0.00    +0.030 A 
ATOM     24  C   UNL     1       2.267  -2.926   0.358  0.00  0.00    +0.050 A 
ATOM     25  C   UNL     1       2.316  -4.231  -0.118  0.00  0.00    +0.024 A 
ATOM     26  N   UNL     1       1.219  -2.095  -0.029  0.00  0.00    -0.261 N 
ATOM     27  C   UNL     1       1.220  -0.764  -0.006  0.00  0.00    +0.230 C 
ATOM     28  O   UNL     1       0.226  -0.184  -0.388  0.00  0.00    -0.274 OA
ATOM     29  C   UNL     1       2.387   0.059   0.467  0.00  0.00    +0.170 C 
ATOM     30  S   UNL     1       3.216  -0.824   1.822  0.00  0.00    -0.114 S 
ENDBRANCH  19  26
ENDBRANCH   1  19
TORSDOF 5
