REMARK  Name = ZINC14031699
REMARK  9 active torsions:
REMARK  status: ('A' for Active; 'I' for Inactive)
REMARK    1  A    between atoms: C_1  and  C_2
REMARK    2  A    between atoms: C_2  and  C_4
REMARK    3  A    between atoms: C_2  and  O_25
REMARK    4  A    between atoms: N_6  and  N_7
REMARK    5  A    between atoms: N_7  and  C_8
REMARK    6  A    between atoms: C_8  and  N_10
REMARK    7  A    between atoms: C_11  and  C_13
REMARK    8  A    between atoms: C_16  and  C_19
REMARK    9  A    between atoms: O_25  and  C_26
REMARK                            x       y       z     vdW  Elec       q    Type
REMARK                         _______ _______ _______ _____ _____    ______ ____
ROOT
ATOM      1  N   UNL     1      -2.458   8.738   0.332  0.00  0.00    -0.245 N 
ATOM      2  H   UNL     1      -2.534   9.693   0.180  0.00  0.00    +0.172 HD
ENDROOT
BRANCH   1   5
ATOM      3  C   UNL     1      -4.825   8.507   0.238  0.00  0.00    +0.270 C 
ATOM      4  O   UNL     1      -4.920   9.701   0.048  0.00  0.00    -0.270 OA
ATOM      5  N   UNL     1      -3.611   7.944   0.392  0.00  0.00    -0.232 N 
ATOM      6  H   UNL     1      -3.534   6.989   0.545  0.00  0.00    +0.173 HD
BRANCH   3   8
ATOM      7  C   UNL     1      -6.010   6.589  -0.794  0.00  0.00    +0.062 C 
ATOM      8  C   UNL     1      -6.065   7.653   0.303  0.00  0.00    +0.257 C 
BRANCH   8   9
ATOM      9  O   UNL     1      -7.219   8.474   0.113  0.00  0.00    -0.480 OA
BRANCH   9  10
ATOM     10  C   UNL     1      -8.390   8.023   0.633  0.00  0.00    +0.122 A 
ATOM     11  C   UNL     1      -8.442   6.753   1.216  0.00  0.00    +0.046 A 
ATOM     12  C   UNL     1      -9.599   6.273   1.746  0.00  0.00    +0.012 A 
ATOM     13  C   UNL     1     -10.762   7.062   1.709  0.00  0.00    -0.018 A 
ATOM     14  C   UNL     1     -11.975   6.598   2.247  0.00  0.00    +0.008 A 
ATOM     15  C   UNL     1     -13.082   7.388   2.195  0.00  0.00    +0.001 A 
ATOM     16  C   UNL     1     -13.033   8.654   1.614  0.00  0.00    +0.001 A 
ATOM     17  C   UNL     1     -11.877   9.137   1.083  0.00  0.00    +0.008 A 
ATOM     18  C   UNL     1     -10.713   8.349   1.119  0.00  0.00    -0.014 A 
ATOM     19  C   UNL     1      -9.500   8.817   0.586  0.00  0.00    +0.054 A 
ENDBRANCH   9  10
ENDBRANCH   8   9
ENDBRANCH   3   8
ENDBRANCH   1   5
BRANCH   1  20
ATOM     20  C   UNL     1      -1.243   8.175   0.486  0.00  0.00    +0.153 C 
ATOM     21  S   UNL     1       0.166   9.145   0.412  0.00  0.00    -0.017 S 
BRANCH  20  22
ATOM     22  N   UNL     1      -1.137   6.848   0.698  0.00  0.00    -0.263 N 
ATOM     23  C   UNL     1       0.078   6.285   0.852  0.00  0.00    +0.250 C 
ATOM     24  O   UNL     1       1.078   6.974   0.799  0.00  0.00    -0.270 OA
ATOM     25  H   UNL     1      -1.935   6.298   0.739  0.00  0.00    +0.157 HD
BRANCH  23  26
ATOM     26  C   UNL     1       0.194   4.832   1.084  0.00  0.00    +0.037 A 
ATOM     27  C   UNL     1       1.453   4.247   1.243  0.00  0.00    +0.013 A 
ATOM     28  C   UNL     1       1.560   2.892   1.459  0.00  0.00    +0.009 A 
ATOM     29  C   UNL     1       0.411   2.102   1.518  0.00  0.00    -0.018 A 
ATOM     30  C   UNL     1      -0.846   2.683   1.354  0.00  0.00    +0.009 A 
ATOM     31  C   UNL     1      -0.956   4.039   1.143  0.00  0.00    +0.013 A 
BRANCH  29  32
ATOM     32  C   UNL     1       0.528   0.642   1.750  0.00  0.00    -0.018 A 
ATOM     33  C   UNL     1       1.783   0.056   1.904  0.00  0.00    +0.008 A 
ATOM     34  C   UNL     1       1.885  -1.303   2.124  0.00  0.00    +0.001 A 
ATOM     35  C   UNL     1       0.745  -2.084   2.183  0.00  0.00    +0.000 A 
ATOM     36  C   UNL     1      -0.503  -1.509   2.026  0.00  0.00    +0.001 A 
ATOM     37  C   UNL     1      -0.618  -0.151   1.810  0.00  0.00    +0.008 A 
ENDBRANCH  29  32
ENDBRANCH  23  26
ENDBRANCH  20  22
ENDBRANCH   1  20
TORSDOF 8
