REMARK  Name = ZINC49350838
REMARK  5 active torsions:
REMARK  status: ('A' for Active; 'I' for Inactive)
REMARK    1  A    between atoms: C_1  and  C_2
REMARK    2  A    between atoms: C_5  and  C_7
REMARK    3  A    between atoms: C_8  and  C_14
REMARK    4  A    between atoms: C_9  and  N_13
REMARK    5  A    between atoms: N_10  and  C_12
REMARK                            x       y       z     vdW  Elec       q    Type
REMARK                         _______ _______ _______ _____ _____    ______ ____
ROOT
ATOM      1  C   UNL     1       1.434  -1.989   0.869  0.00  0.00    +0.076 A 
ATOM      2  C   UNL     1       2.808  -2.221   1.077  0.00  0.00    +0.045 A 
ATOM      3  C   UNL     1       3.071  -3.518   0.672  0.00  0.00    +0.122 A 
ATOM      4  N   UNL     1       1.905  -4.046   0.238  0.00  0.00    -0.253 N 
ATOM      5  N   UNL     1       0.905  -3.077   0.377  0.00  0.00    -0.174 NA
ATOM      6  C   UNL     1       1.719  -5.403  -0.283  0.00  0.00    +0.174 C 
ENDROOT
BRANCH   2   7
ATOM      7  C   UNL     1       3.789  -1.255   1.627  0.00  0.00    -0.007 A 
ATOM      8  C   UNL     1       4.092  -0.090   0.925  0.00  0.00    +0.047 A 
ATOM      9  C   UNL     1       5.007   0.808   1.442  0.00  0.00    +0.127 A 
ATOM     10  C   UNL     1       5.623   0.551   2.656  0.00  0.00    +0.076 A 
ATOM     11  C   UNL     1       5.325  -0.605   3.357  0.00  0.00    +0.127 A 
ATOM     12  C   UNL     1       4.407  -1.506   2.851  0.00  0.00    +0.047 A 
ATOM     13  F   UNL     1       5.929  -0.851   4.540  0.00  0.00    -0.205 F 
ATOM     14  F   UNL     1       5.302   1.938   0.762  0.00  0.00    -0.205 F 
ENDBRANCH   2   7
BRANCH   1  18
ATOM     15  C   UNL     1      -0.019   1.526   0.010  0.00  0.00    +0.008 C 
ATOM     16  C   UNL     1       0.002  -0.004   0.002  0.00  0.00    -0.004 C 
ATOM     17  C   UNL     1      -0.828  -0.728   1.065  0.00  0.00    +0.014 C 
ATOM     18  C   UNL     1       0.700  -0.708   1.168  0.00  0.00    +0.043 C 
ENDBRANCH   1  18
BRANCH   3  19
ATOM     19  N   UNL     1       4.303  -4.157   0.705  0.00  0.00    -0.343 N 
ATOM     20  H   UNL     1       5.084  -3.687   1.037  0.00  0.00    +0.144 HD
ATOM     21  H   UNL     1       4.383  -5.073   0.397  0.00  0.00    +0.144 HD
ENDBRANCH   3  19
TORSDOF 3
