REMARK  Name = ZINC08445911
REMARK  5 active torsions:
REMARK  status: ('A' for Active; 'I' for Inactive)
REMARK    1  A    between atoms: C_6  and  C_7
REMARK    2  A    between atoms: C_7  and  C_9
REMARK    3  A    between atoms: C_13  and  N_14
REMARK    4  A    between atoms: C_15  and  C_17
REMARK    5  A    between atoms: C_17  and  N_53
REMARK                            x       y       z     vdW  Elec       q    Type
REMARK                         _______ _______ _______ _____ _____    ______ ____
ROOT
ATOM      1  C   UNL     1      -0.080   1.445   0.019  0.00  0.00    +0.054 A 
ATOM      2  C   UNL     1       1.200   2.134   0.067  0.00  0.00    -0.024 A 
ATOM      3  C   UNL     1       1.127   3.482   0.108  0.00  0.00    -0.005 A 
ATOM      4  S   UNL     1      -0.606   3.844   0.083  0.00  0.00    -0.077 S 
ATOM      5  C   UNL     1      -1.229   2.228   0.014  0.00  0.00    +0.083 A 
ATOM      6  C   UNL     1       2.271   4.447   0.163  0.00  0.00    +0.043 C 
ATOM      7  C   UNL     1       3.540   3.671   0.543  0.00  0.00    +0.005 C 
ATOM      8  C   UNL     1       3.633   2.418  -0.332  0.00  0.00    +0.005 C 
ATOM      9  C   UNL     1       2.546   1.420   0.072  0.00  0.00    +0.037 C 
ENDROOT
BRANCH   5  10
ATOM     10  N   UNL     1      -2.551   1.816  -0.033  0.00  0.00    -0.281 N 
ATOM     11  C   UNL     1      -3.537   2.728  -0.142  0.00  0.00    +0.201 C 
ATOM     12  O   UNL     1      -3.268   3.909  -0.199  0.00  0.00    -0.278 OA
ATOM     13  H   UNL     1      -2.766   0.872   0.012  0.00  0.00    +0.155 HD
BRANCH  11  14
ATOM     14  C   UNL     1      -4.975   2.280  -0.193  0.00  0.00    +0.019 C 
BRANCH  14  20
ATOM     15  C   UNL     1      -5.781   4.286   0.896  0.00  0.00    -0.078 C 
ATOM     16  C   UNL     1      -6.587   5.569   0.681  0.00  0.00    -0.019 C 
ATOM     17  C   UNL     1      -8.042   5.205   0.372  0.00  0.00    -0.004 C 
ATOM     18  C   UNL     1      -8.083   4.299  -0.862  0.00  0.00    -0.019 C 
ATOM     19  C   UNL     1      -7.233   3.053  -0.602  0.00  0.00    -0.078 C 
ATOM     20  N   UNL     1      -5.840   3.470  -0.335  0.00  0.00    +0.385 N 
ATOM     21  H   UNL     1      -5.504   4.034  -1.125  0.00  0.00    -0.081 HD
ENDBRANCH  14  20
ENDBRANCH  11  14
ENDBRANCH   5  10
BRANCH   1  22
ATOM     22  C   UNL     1      -0.155  -0.016  -0.030  0.00  0.00    +0.196 C 
ATOM     23  O   UNL     1      -0.252  -0.586  -1.101  0.00  0.00    -0.287 OA
BRANCH  22  29
ATOM     24  C   UNL     1      -0.108  -0.149   2.458  0.00  0.00    +0.013 A 
ATOM     25  C   UNL     1      -0.075  -0.886   3.623  0.00  0.00    +0.016 A 
ATOM     26  C   UNL     1      -0.036  -2.269   3.570  0.00  0.00    +0.018 A 
ATOM     27  C   UNL     1      -0.035  -2.921   2.348  0.00  0.00    +0.016 A 
ATOM     28  C   UNL     1      -0.074  -2.195   1.176  0.00  0.00    +0.013 A 
ATOM     29  C   UNL     1      -0.113  -0.801   1.223  0.00  0.00    +0.022 A 
ATOM     30 BR   UNL     1       0.017  -3.272   5.172  0.00  0.00    -0.050 Br
ENDBRANCH  22  29
ENDBRANCH   1  22
TORSDOF 5
