REMARK  Name = ZINC08850514
REMARK  7 active torsions:
REMARK  status: ('A' for Active; 'I' for Inactive)
REMARK    1  A    between atoms: C_1  and  C_2
REMARK    2  A    between atoms: C_3  and  C_14
REMARK    3  A    between atoms: N_5  and  C_7
REMARK    4  A    between atoms: C_14  and  N_15
REMARK    5  A    between atoms: C_16  and  C_18
REMARK    6  A    between atoms: N_20  and  C_21
REMARK    7  A    between atoms: C_21  and  C_22
REMARK                            x       y       z     vdW  Elec       q    Type
REMARK                         _______ _______ _______ _____ _____    ______ ____
ROOT
ATOM      1  C   UNL     1       2.395   6.809   0.901  0.00  0.00    +0.145 C 
ENDROOT
BRANCH   1   4
ATOM      2  C   UNL     1      -0.216   6.762  -0.891  0.00  0.00    +0.068 C 
ATOM      3  C   UNL     1       0.534   5.554  -0.392  0.00  0.00    +0.066 A 
ATOM      4  C   UNL     1       1.688   5.577   0.399  0.00  0.00    +0.029 A 
ATOM      5  C   UNL     1       2.054   4.295   0.639  0.00  0.00    +0.138 A 
ATOM      6  N   UNL     1       1.161   3.488   0.010  0.00  0.00    -0.221 N 
ATOM      7  N   UNL     1       0.218   4.306  -0.626  0.00  0.00    -0.170 NA
ATOM      8 CL   UNL     1       3.419   3.777   1.579  0.00  0.00    -0.062 Cl
BRANCH   6   9
ATOM      9  C   UNL     1       1.177   2.086   0.002  0.00  0.00    +0.067 A 
ATOM     10  C   UNL     1      -0.017   1.377   0.010  0.00  0.00    +0.028 A 
ATOM     11  C   UNL     1       0.002  -0.004   0.002  0.00  0.00    +0.002 A 
ATOM     12  C   UNL     1       1.208  -0.680  -0.014  0.00  0.00    +0.000 A 
ATOM     13  C   UNL     1       2.398   0.023  -0.021  0.00  0.00    +0.002 A 
ATOM     14  C   UNL     1       2.386   1.404  -0.012  0.00  0.00    +0.028 A 
ENDBRANCH   6   9
ENDBRANCH   1   4
BRANCH   1  15
ATOM     15  N   UNL     1       1.843   7.193   2.202  0.00  0.00    -0.303 N 
ATOM     16  C   UNL     1       2.325   8.274   2.846  0.00  0.00    +0.299 C 
ATOM     17  O   UNL     1       3.217   8.930   2.348  0.00  0.00    -0.265 OA
ATOM     18  H   UNL     1       1.130   6.669   2.600  0.00  0.00    +0.149 HD
BRANCH  16  19
ATOM     19  C   UNL     1       1.762   8.666   4.174  0.00  0.00    +0.299 C 
ATOM     20  O   UNL     1       0.871   8.011   4.672  0.00  0.00    -0.265 OA
ATOM     21  N   UNL     1       2.245   9.747   4.818  0.00  0.00    -0.303 N 
ATOM     22  H   UNL     1       2.957  10.271   4.420  0.00  0.00    +0.149 HD
BRANCH  21  23
ATOM     23  C   UNL     1       1.693  10.131   6.120  0.00  0.00    +0.147 C 
BRANCH  23  24
ATOM     24  C   UNL     1       2.400  11.364   6.622  0.00  0.00    +0.007 A 
ATOM     25  C   UNL     1       2.089  12.668   6.420  0.00  0.00    +0.013 A 
ATOM     26  C   UNL     1       2.888  13.643   6.987  0.00  0.00    +0.008 A 
ATOM     27  C   UNL     1       3.965  13.266   7.720  0.00  0.00    +0.045 A 
ATOM     28  S   UNL     1       3.868  11.486   7.630  0.00  0.00    -0.100 S 
ENDBRANCH  23  24
ENDBRANCH  21  23
ENDBRANCH  16  19
ENDBRANCH   1  15
TORSDOF 6
