REMARK  Name = ZINC31297240
REMARK  7 active torsions:
REMARK  status: ('A' for Active; 'I' for Inactive)
REMARK    1  A    between atoms: C_6  and  C_7
REMARK    2  A    between atoms: C_7  and  C_9
REMARK    3  A    between atoms: C_7  and  O_27
REMARK    4  A    between atoms: C_9  and  N_10
REMARK    5  A    between atoms: C_11  and  C_13
REMARK    6  A    between atoms: C_13  and  C_14
REMARK    7  A    between atoms: C_14  and  N_15
REMARK                            x       y       z     vdW  Elec       q    Type
REMARK                         _______ _______ _______ _____ _____    ______ ____
ROOT
ATOM      1  N   UNL     1      -4.280   0.080  -1.413  0.00  0.00    -0.312 N 
ATOM      2  C   UNL     1      -4.917  -0.173  -2.574  0.00  0.00    +0.215 C 
ATOM      3  O   UNL     1      -4.448   0.222  -3.621  0.00  0.00    -0.276 OA
ATOM      4  H   UNL     1      -4.705  -0.279  -0.464  0.00  0.00    +0.149 HD
ENDROOT
BRANCH   1   5
ATOM      5  C   UNL     1      -3.022   0.831  -1.415  0.00  0.00    +0.140 C 
BRANCH   5   6
ATOM      6  C   UNL     1      -2.513   0.977   0.020  0.00  0.00    +0.162 C 
BRANCH   6  12
ATOM      7  C   UNL     1      -0.013   1.076   0.008  0.00  0.00    +0.009 A 
ATOM      8  C   UNL     1       1.176   1.783   0.000  0.00  0.00    +0.041 A 
ATOM      9  C   UNL     1       1.158   3.166   0.007  0.00  0.00    +0.158 A 
ATOM     10  C   UNL     1      -0.053   3.842   0.022  0.00  0.00    +0.159 A 
ATOM     11  C   UNL     1      -1.240   3.132   0.030  0.00  0.00    +0.047 A 
ATOM     12  C   UNL     1      -1.219   1.750   0.017  0.00  0.00    -0.015 A 
ATOM     13  F   UNL     1      -0.073   5.193   0.029  0.00  0.00    -0.202 F 
ATOM     14  F   UNL     1       2.318   3.857   0.001  0.00  0.00    -0.202 F 
ENDBRANCH   6  12
BRANCH   6  15
ATOM     15  O   UNL     1      -3.484   1.676   0.801  0.00  0.00    -0.386 OA
ATOM     16  H   UNL     1      -4.496   1.262   0.919  0.00  0.00    +0.210 HD
ENDBRANCH   6  15
ENDBRANCH   5   6
ENDBRANCH   1   5
BRANCH   2  17
ATOM     17  C   UNL     1      -6.210  -0.946  -2.572  0.00  0.00    +0.115 C 
BRANCH  17  18
ATOM     18  C   UNL     1      -6.720  -1.092  -4.007  0.00  0.00    +0.127 C 
BRANCH  18  19
ATOM     19  N   UNL     1      -7.977  -1.843  -4.005  0.00  0.00    -0.224 N 
ATOM     20  C   UNL     1      -9.198  -1.278  -3.898  0.00  0.00    +0.247 C 
ATOM     21  O   UNL     1      -9.453  -0.098  -3.791  0.00  0.00    -0.273 OA
ATOM     22  C   UNL     1     -10.180  -2.426  -3.942  0.00  0.00    +0.113 C 
ATOM     23  C   UNL     1     -11.106  -2.288  -5.145  0.00  0.00    +0.035 C 
ATOM     24  C   UNL     1     -12.073  -3.474  -5.187  0.00  0.00    +0.003 C 
ATOM     25  C   UNL     1     -12.890  -3.510  -3.894  0.00  0.00    +0.000 C 
ATOM     26  C   UNL     1     -11.949  -3.674  -2.699  0.00  0.00    +0.003 C 
ATOM     27  C   UNL     1     -10.982  -2.489  -2.647  0.00  0.00    +0.035 C 
ATOM     28  N   UNL     1      -9.330  -3.616  -4.080  0.00  0.00    -0.285 N 
ATOM     29  C   UNL     1      -8.059  -3.175  -4.113  0.00  0.00    +0.309 C 
ATOM     30  O   UNL     1      -7.093  -3.904  -4.226  0.00  0.00    -0.252 OA
ATOM     31  H   UNL     1      -9.788  -4.615  -4.133  0.00  0.00    +0.151 HD
ENDBRANCH  18  19
ENDBRANCH  17  18
ENDBRANCH   2  17
TORSDOF 7
