REMARK  Name = ZINC36342106
REMARK  15 active torsions:
REMARK  status: ('A' for Active; 'I' for Inactive)
REMARK    1  A    between atoms: C_1  and  C_2
REMARK    2  A    between atoms: C_3  and  C_21
REMARK    3  A    between atoms: C_4  and  O_13
REMARK    4  A    between atoms: N_5  and  C_7
REMARK    5  A    between atoms: O_13  and  C_14
REMARK    6  A    between atoms: C_21  and  N_22
REMARK    7  A    between atoms: N_22  and  C_23
REMARK    8  A    between atoms: N_22  and  C_30
REMARK    9  A    between atoms: C_23  and  C_24
REMARK   10  A    between atoms: C_30  and  C_31
REMARK   11  A    between atoms: C_31  and  C_33
REMARK   12  A    between atoms: C_31  and  O_38
REMARK   13  A    between atoms: C_33  and  O_34
REMARK   14  A    between atoms: O_34  and  C_35
REMARK   15  A    between atoms: C_35  and  C_36
REMARK                            x       y       z     vdW  Elec       q    Type
REMARK                         _______ _______ _______ _____ _____    ______ ____
ROOT
ATOM      1  C   UNL     1      -0.604   1.566   0.461  0.00  0.00    +0.068 C 
ATOM      2  C   UNL     1      -0.272   0.096   0.448  0.00  0.00    +0.065 A 
ATOM      3  C   UNL     1      -0.097  -0.692  -0.693  0.00  0.00    +0.021 A 
ATOM      4  C   UNL     1       0.190  -1.958  -0.286  0.00  0.00    +0.225 A 
ATOM      5  N   UNL     1       0.193  -1.959   1.074  0.00  0.00    -0.200 N 
ATOM      6  N   UNL     1      -0.094  -0.657   1.504  0.00  0.00    -0.168 NA
ENDROOT
BRANCH   5   7
ATOM      7  C   UNL     1       0.444  -3.064   1.898  0.00  0.00    +0.069 A 
ATOM      8  C   UNL     1      -0.066  -4.311   1.564  0.00  0.00    +0.028 A 
ATOM      9  C   UNL     1       0.183  -5.399   2.378  0.00  0.00    +0.002 A 
ATOM     10  C   UNL     1       0.939  -5.246   3.526  0.00  0.00    +0.000 A 
ATOM     11  C   UNL     1       1.448  -4.005   3.861  0.00  0.00    +0.002 A 
ATOM     12  C   UNL     1       1.208  -2.916   3.048  0.00  0.00    +0.028 A 
ENDBRANCH   5   7
BRANCH   4  13
ATOM     13  O   UNL     1       0.429  -3.025  -1.091  0.00  0.00    -0.438 OA
BRANCH  13  14
ATOM     14  C   UNL     1      -0.635  -3.761  -1.506  0.00  0.00    +0.131 A 
ATOM     15  C   UNL     1      -1.925  -3.350  -1.203  0.00  0.00    +0.049 A 
ATOM     16  C   UNL     1      -3.006  -4.100  -1.626  0.00  0.00    +0.042 A 
ATOM     17  C   UNL     1      -2.802  -5.261  -2.352  0.00  0.00    +0.124 A 
ATOM     18  C   UNL     1      -1.515  -5.673  -2.655  0.00  0.00    +0.042 A 
ATOM     19  C   UNL     1      -0.433  -4.923  -2.238  0.00  0.00    +0.049 A 
ATOM     20  F   UNL     1      -3.859  -5.994  -2.764  0.00  0.00    -0.205 F 
ENDBRANCH  13  14
ENDBRANCH   4  13
BRANCH   3  21
ATOM     21  C   UNL     1      -0.207  -0.223  -2.121  0.00  0.00    -0.036 C 
BRANCH  21  22
ATOM     22  N   UNL     1       1.109   0.235  -2.588  0.00  0.00    +0.386 N 
ATOM     23  H   UNL     1       1.472   0.925  -1.948  0.00  0.00    -0.081 HD
BRANCH  22  24
ATOM     24  C   UNL     1       2.030  -0.907  -2.652  0.00  0.00    -0.046 C 
BRANCH  24  25
ATOM     25  C   UNL     1       1.527  -1.912  -3.690  0.00  0.00    +0.102 C 
ATOM     26  C   UNL     1       2.381  -3.196  -3.634  0.00  0.00    +0.032 C 
ATOM     27  C   UNL     1       2.516  -3.569  -5.135  0.00  0.00    +0.030 C 
ATOM     28  C   UNL     1       2.563  -2.162  -5.784  0.00  0.00    +0.160 C 
ATOM     29  O   UNL     1       1.659  -1.359  -5.005  0.00  0.00    -0.378 OA
ENDBRANCH  24  25
ENDBRANCH  22  24
BRANCH  22  30
ATOM     30  C   UNL     1       0.973   0.830  -3.925  0.00  0.00    -0.044 C 
BRANCH  30  31
ATOM     31  C   UNL     1       2.341   1.321  -4.405  0.00  0.00    +0.124 C 
BRANCH  31  32
ATOM     32  O   UNL     1       2.851   2.286  -3.483  0.00  0.00    -0.391 OA
ATOM     33  H   UNL     1       2.289   3.066  -3.379  0.00  0.00    +0.210 HD
ENDBRANCH  31  32
BRANCH  31  34
ATOM     34  C   UNL     1       2.196   1.961  -5.787  0.00  0.00    +0.189 C 
BRANCH  34  35
ATOM     35  O   UNL     1       3.487   2.314  -6.286  0.00  0.00    -0.373 OA
BRANCH  35  36
ATOM     36  C   UNL     1       3.465   2.924  -7.578  0.00  0.00    +0.186 C 
BRANCH  36  37
ATOM     37  C   UNL     1       4.872   3.253  -8.004  0.00  0.00    -0.007 C 
ATOM     38  C   UNL     1       5.271   2.974  -9.220  0.00  0.00    +0.006 C 
ENDBRANCH  36  37
ENDBRANCH  35  36
ENDBRANCH  34  35
ENDBRANCH  31  34
ENDBRANCH  30  31
ENDBRANCH  22  30
ENDBRANCH  21  22
ENDBRANCH   3  21
TORSDOF 14
