REMARK  Name = ZINC12573566
REMARK  13 active torsions:
REMARK  status: ('A' for Active; 'I' for Inactive)
REMARK    1  A    between atoms: C_1  and  C_2
REMARK    2  A    between atoms: C_5  and  C_32
REMARK    3  A    between atoms: C_6  and  N_8
REMARK    4  A    between atoms: C_9  and  C_11
REMARK    5  A    between atoms: C_11  and  C_12
REMARK    6  A    between atoms: C_12  and  C_13
REMARK    7  A    between atoms: N_15  and  N_16
REMARK    8  A    between atoms: N_16  and  C_17
REMARK    9  A    between atoms: C_17  and  N_19
REMARK   10  A    between atoms: C_20  and  C_22
REMARK   11  A    between atoms: C_22  and  O_23
REMARK   12  A    between atoms: O_23  and  C_24
REMARK   13  A    between atoms: C_28  and  C_30
REMARK                            x       y       z     vdW  Elec       q    Type
REMARK                         _______ _______ _______ _____ _____    ______ ____
ROOT
ATOM      1  C   UNL     1      -2.285  -5.873  -0.036  0.00  0.00    +0.230 C 
ATOM      2  O   UNL     1      -3.423  -6.293  -0.034  0.00  0.00    -0.274 OA
ATOM      3  N   UNL     1      -2.057  -4.545  -0.034  0.00  0.00    -0.235 N 
ATOM      4  H   UNL     1      -1.147  -4.209  -0.036  0.00  0.00    +0.173 HD
ENDROOT
BRANCH   3   5
ATOM      5  N   UNL     1      -3.135  -3.649  -0.030  0.00  0.00    -0.246 N 
ATOM      6  H   UNL     1      -4.045  -3.985  -0.029  0.00  0.00    +0.172 HD
BRANCH   5   7
ATOM      7  C   UNL     1      -2.906  -2.321  -0.029  0.00  0.00    +0.153 C 
ATOM      8  S   UNL     1      -4.223  -1.226  -0.024  0.00  0.00    -0.017 S 
BRANCH   7   9
ATOM      9  N   UNL     1      -1.642  -1.854  -0.031  0.00  0.00    -0.264 N 
ATOM     10  C   UNL     1      -1.414  -0.526  -0.029  0.00  0.00    +0.256 C 
ATOM     11  O   UNL     1      -2.346   0.249  -0.026  0.00  0.00    -0.272 OA
ATOM     12  H   UNL     1      -0.896  -2.474  -0.034  0.00  0.00    +0.157 HD
BRANCH  10  13
ATOM     13  C   UNL     1      -0.001  -0.004  -0.032  0.00  0.00    +0.324 C 
BRANCH  13  14
ATOM     14  O   UNL     1      -0.020   1.425  -0.029  0.00  0.00    -0.483 OA
BRANCH  14  15
ATOM     15  C   UNL     1       1.182   2.059  -0.031  0.00  0.00    +0.122 A 
ATOM     16  C   UNL     1       2.357   1.320  -0.029  0.00  0.00    +0.047 A 
ATOM     17  C   UNL     1       3.578   1.966  -0.037  0.00  0.00    +0.019 A 
ATOM     18  C   UNL     1       3.630   3.349  -0.035  0.00  0.00    +0.021 A 
ATOM     19  C   UNL     1       2.460   4.087  -0.031  0.00  0.00    -0.033 A 
ATOM     20  C   UNL     1       1.237   3.445  -0.029  0.00  0.00    +0.050 A 
ATOM     21  C   UNL     1       2.520   5.593  -0.029  0.00  0.00    +0.045 C 
ATOM     22 BR   UNL     1       5.303   4.231  -0.038  0.00  0.00    -0.050 Br
ENDBRANCH  14  15
ENDBRANCH  13  14
ENDBRANCH  10  13
ENDBRANCH   7   9
ENDBRANCH   5   7
ENDBRANCH   3   5
BRANCH   1  23
ATOM     23  C   UNL     1      -1.126  -6.837  -0.041  0.00  0.00    +0.106 C 
BRANCH  23  24
ATOM     24  C   UNL     1      -1.656  -8.272  -0.042  0.00  0.00    +0.105 C 
BRANCH  24  26
ATOM     25  N   UNL     1      -0.725 -10.563  -0.048  0.00  0.00    -0.285 N 
ATOM     26  C   UNL     1      -0.497  -9.235  -0.046  0.00  0.00    +0.218 C 
ATOM     27  O   UNL     1       0.640  -8.815  -0.048  0.00  0.00    -0.275 OA
ATOM     28  H   UNL     1      -1.631 -10.900   0.035  0.00  0.00    +0.155 HD
BRANCH  25  34
ATOM     29  C   UNL     1       3.859 -11.496  -1.560  0.00  0.00    +0.044 C 
ATOM     30  C   UNL     1       2.579 -11.935  -0.897  0.00  0.00    -0.049 A 
ATOM     31  C   UNL     1       2.461 -13.223  -0.407  0.00  0.00    +0.004 A 
ATOM     32  C   UNL     1       1.288 -13.630   0.201  0.00  0.00    +0.005 A 
ATOM     33  C   UNL     1       0.230 -12.751   0.322  0.00  0.00    -0.029 A 
ATOM     34  C   UNL     1       0.345 -11.457  -0.168  0.00  0.00    +0.037 A 
ATOM     35  C   UNL     1       1.523 -11.053  -0.783  0.00  0.00    +0.027 A 
ATOM     36  C   UNL     1      -1.049 -13.195   0.985  0.00  0.00    +0.045 C 
ENDBRANCH  25  34
ENDBRANCH  24  26
ENDBRANCH  23  24
ENDBRANCH   1  23
TORSDOF 10
