REMARK  Name = ZINC18203123
REMARK  7 active torsions:
REMARK  status: ('A' for Active; 'I' for Inactive)
REMARK    1  A    between atoms: C_1  and  O_2
REMARK    2  A    between atoms: O_2  and  C_3
REMARK    3  A    between atoms: C_5  and  C_10
REMARK    4  A    between atoms: C_8  and  O_9
REMARK    5  A    between atoms: N_18  and  C_21
REMARK    6  A    between atoms: C_26  and  C_27
REMARK    7  A    between atoms: N_32  and  C_33
REMARK                            x       y       z     vdW  Elec       q    Type
REMARK                         _______ _______ _______ _____ _____    ______ ____
ROOT
ATOM      1  C   UNL     1       2.462   0.334   4.204  0.00  0.00    +0.157 C 
ATOM      2  C   UNL     1       3.998   0.397   4.033  0.00  0.00    +0.145 C 
ATOM      3  C   UNL     1       4.511  -0.719   4.984  0.00  0.00    +0.249 C 
ATOM      4  C   UNL     1       5.242   0.049   6.062  0.00  0.00    +0.259 C 
ATOM      5  O   UNL     1       5.796  -0.444   7.020  0.00  0.00    -0.272 OA
ATOM      6  N   UNL     1       5.182   1.359   5.792  0.00  0.00    -0.207 N 
ATOM      7  C   UNL     1       4.508   1.676   4.659  0.00  0.00    +0.235 C 
ATOM      8  O   UNL     1       4.335   2.790   4.214  0.00  0.00    -0.274 OA
ATOM      9  O   UNL     1       3.333  -1.335   5.532  0.00  0.00    -0.257 OA
ATOM     10  N   UNL     1       2.300  -0.333   5.519  0.00  0.00    -0.244 N 
ENDROOT
BRANCH   1  13
ATOM     11  C   UNL     1       0.626  -0.619   1.042  0.00  0.00    +0.162 A 
ATOM     12  C   UNL     1       1.202   0.137   2.051  0.00  0.00    +0.055 A 
ATOM     13  C   UNL     1       1.836  -0.490   3.108  0.00  0.00    -0.018 A 
ATOM     14  C   UNL     1       1.897  -1.870   3.161  0.00  0.00    +0.009 A 
ATOM     15  C   UNL     1       1.325  -2.630   2.158  0.00  0.00    +0.049 A 
ATOM     16  C   UNL     1       0.683  -2.008   1.099  0.00  0.00    +0.158 A 
BRANCH  11  18
ATOM     17  C   UNL     1      -0.017   1.425   0.010  0.00  0.00    +0.277 C 
ATOM     18  O   UNL     1       0.002  -0.004   0.002  0.00  0.00    -0.491 OA
ENDBRANCH  11  18
BRANCH  16  19
ATOM     19  O   UNL     1       0.115  -2.754   0.114  0.00  0.00    -0.503 OA
ATOM     20  H   UNL     1       0.711  -2.957  -0.620  0.00  0.00    +0.292 HD
ENDBRANCH  16  19
ENDBRANCH   1  13
BRANCH   6  21
ATOM     21  C   UNL     1       5.774   2.329   6.612  0.00  0.00    +0.056 A 
ATOM     22  C   UNL     1       7.082   2.732   6.381  0.00  0.00    +0.024 A 
ATOM     23  C   UNL     1       7.663   3.688   7.190  0.00  0.00    +0.002 A 
ATOM     24  C   UNL     1       6.943   4.245   8.231  0.00  0.00    +0.001 A 
ATOM     25  C   UNL     1       5.639   3.846   8.464  0.00  0.00    +0.014 A 
ATOM     26  C   UNL     1       5.051   2.894   7.654  0.00  0.00    +0.077 A 
BRANCH  26  27
ATOM     27  C   UNL     1       3.629   2.465   7.905  0.00  0.00    +0.419 C 
ATOM     28  F   UNL     1       3.115   3.169   9.000  0.00  0.00    -0.166 F 
ATOM     29  F   UNL     1       2.854   2.734   6.772  0.00  0.00    -0.166 F 
ATOM     30  F   UNL     1       3.597   1.093   8.178  0.00  0.00    -0.166 F 
ENDBRANCH  26  27
ENDBRANCH   6  21
BRANCH  10  31
ATOM     31  C   UNL     1       1.356  -0.052   6.509  0.00  0.00    +0.065 A 
ATOM     32  C   UNL     1       0.419   0.954   6.312  0.00  0.00    +0.028 A 
ATOM     33  C   UNL     1      -0.514   1.228   7.293  0.00  0.00    +0.002 A 
ATOM     34  C   UNL     1      -0.515   0.503   8.471  0.00  0.00    +0.000 A 
ATOM     35  C   UNL     1       0.417  -0.499   8.670  0.00  0.00    +0.002 A 
ATOM     36  C   UNL     1       1.349  -0.782   7.691  0.00  0.00    +0.028 A 
ENDBRANCH  10  31
TORSDOF 6
