REMARK  Name = ZINC43585826
REMARK  6 active torsions:
REMARK  status: ('A' for Active; 'I' for Inactive)
REMARK    1  A    between atoms: C_1  and  C_2
REMARK    2  A    between atoms: C_4  and  C_39
REMARK    3  A    between atoms: C_9  and  C_28
REMARK    4  A    between atoms: C_11  and  C_19
REMARK    5  A    between atoms: C_22  and  N_25
REMARK    6  A    between atoms: C_28  and  C_30
REMARK                            x       y       z     vdW  Elec       q    Type
REMARK                         _______ _______ _______ _____ _____    ______ ____
ROOT
ATOM      1  C   UNL     1       1.880   0.916  -0.682  0.00  0.00    +0.044 C 
ATOM      2  C   UNL     1       1.607  -0.558  -0.525  0.00  0.00    -0.050 A 
ATOM      3  C   UNL     1       1.770  -1.412  -1.601  0.00  0.00    +0.008 A 
ATOM      4  C   UNL     1       1.522  -2.761  -1.462  0.00  0.00    -0.029 A 
ATOM      5  C   UNL     1       1.104  -3.275  -0.237  0.00  0.00    +0.042 A 
ATOM      6  C   UNL     1       0.941  -2.406   0.838  0.00  0.00    +0.004 A 
ATOM      7  C   UNL     1       1.197  -1.061   0.697  0.00  0.00    +0.011 A 
ATOM      8  C   UNL     1       0.487  -3.259   1.988  0.00  0.00    +0.137 C 
ATOM      9  C   UNL     1       1.468  -3.172   3.172  0.00  0.00    +0.103 C 
ATOM     10  C   UNL     1       0.562  -3.607   4.357  0.00  0.00    +0.050 C 
ATOM     11  C   UNL     1      -0.822  -3.049   3.963  0.00  0.00    +0.077 C 
ATOM     12  N   UNL     1      -0.814  -2.821   2.515  0.00  0.00    -0.271 NA
ATOM     13  C   UNL     1      -1.093  -1.433   2.072  0.00  0.00    +0.155 C 
ATOM     14  S   UNL     1      -1.974  -0.748   3.543  0.00  0.00    -0.144 S 
ATOM     15  C   UNL     1      -1.104  -1.776   4.793  0.00  0.00    +0.090 C 
ATOM     16  C   UNL     1       0.423  -4.657   1.439  0.00  0.00    +0.243 C 
ATOM     17  O   UNL     1       0.098  -5.658   2.042  0.00  0.00    -0.273 OA
ATOM     18  N   UNL     1       0.795  -4.582   0.146  0.00  0.00    -0.283 N 
ATOM     19  C   UNL     1       1.705  -3.683  -2.640  0.00  0.00    +0.045 C 
ATOM     20  H   UNL     1       0.842  -5.346  -0.449  0.00  0.00    +0.155 HD
ENDROOT
BRANCH  10  21
ATOM     21  C   UNL     1       1.040  -2.991   5.647  0.00  0.00    -0.042 A 
ATOM     22  C   UNL     1       1.155  -3.770   6.784  0.00  0.00    +0.006 A 
ATOM     23  C   UNL     1       1.594  -3.205   7.966  0.00  0.00    +0.033 A 
ATOM     24  C   UNL     1       1.919  -1.862   8.013  0.00  0.00    +0.126 A 
ATOM     25  C   UNL     1       1.805  -1.084   6.876  0.00  0.00    +0.033 A 
ATOM     26  C   UNL     1       1.370  -1.650   5.692  0.00  0.00    +0.006 A 
BRANCH  24  27
ATOM     27  N   UNL     1       2.388  -1.258   9.280  0.00  0.00    +0.056 N 
ATOM     28  O   UNL     1       2.487  -1.938  10.274  0.00  0.00    -0.126 OA
ATOM     29  O   UNL     1       2.672  -0.083   9.320  0.00  0.00    -0.126 OA
ENDBRANCH  24  27
ENDBRANCH  10  21
BRANCH   9  30
ATOM     30  C   UNL     1       1.965  -1.762   3.360  0.00  0.00    +0.169 C 
ATOM     31  O   UNL     1       1.221  -0.825   3.162  0.00  0.00    -0.292 OA
BRANCH  30  32
ATOM     32  C   UNL     1       3.354  -1.522   3.784  0.00  0.00    +0.018 A 
ATOM     33  C   UNL     1       4.217  -2.600   4.008  0.00  0.00    +0.011 A 
ATOM     34  C   UNL     1       5.516  -2.367   4.405  0.00  0.00    +0.001 A 
ATOM     35  C   UNL     1       5.968  -1.070   4.581  0.00  0.00    +0.000 A 
ATOM     36  C   UNL     1       5.120   0.002   4.362  0.00  0.00    +0.001 A 
ATOM     37  C   UNL     1       3.819  -0.215   3.959  0.00  0.00    +0.011 A 
ENDBRANCH  30  32
ENDBRANCH   9  30
TORSDOF 4
