REMARK  Name = ZINC29540232
REMARK  7 active torsions:
REMARK  status: ('A' for Active; 'I' for Inactive)
REMARK    1  A    between atoms: C_1  and  C_2
REMARK    2  A    between atoms: C_2  and  C_3
REMARK    3  A    between atoms: C_3  and  C_23
REMARK    4  A    between atoms: N_6  and  C_10
REMARK    5  A    between atoms: C_10  and  N_11
REMARK    6  A    between atoms: N_11  and  C_12
REMARK    7  A    between atoms: N_11  and  C_13
REMARK                            x       y       z     vdW  Elec       q    Type
REMARK                         _______ _______ _______ _____ _____    ______ ____
ROOT
ATOM      1  C   UNL     1       1.167   1.601  -0.220  0.00  0.00    +0.138 C 
ATOM      2  C   UNL     1      -0.083   0.768  -0.020  0.00  0.00    +0.249 C 
ATOM      3  O   UNL     1      -0.143  -0.425   0.186  0.00  0.00    -0.272 OA
ATOM      4  N   UNL     1      -1.115   1.629  -0.123  0.00  0.00    -0.241 N 
ATOM      5  C   UNL     1      -0.694   2.879  -0.350  0.00  0.00    +0.308 C 
ATOM      6  O   UNL     1      -1.439   3.830  -0.478  0.00  0.00    -0.252 OA
ATOM      7  N   UNL     1       0.647   2.963  -0.428  0.00  0.00    -0.281 N 
ATOM      8  H   UNL     1       1.342   3.797  -0.603  0.00  0.00    +0.152 HD
ENDROOT
BRANCH   1   9
ATOM      9  C   UNL     1       2.043   1.546   1.005  0.00  0.00    -0.015 A 
ATOM     10  C   UNL     1       3.016   0.570   1.115  0.00  0.00    +0.007 A 
ATOM     11  C   UNL     1       3.823   0.522   2.236  0.00  0.00    +0.020 A 
ATOM     12  C   UNL     1       3.651   1.444   3.252  0.00  0.00    +0.041 A 
ATOM     13  C   UNL     1       2.674   2.418   3.144  0.00  0.00    +0.020 A 
ATOM     14  C   UNL     1       1.870   2.468   2.020  0.00  0.00    +0.007 A 
ATOM     15 CL   UNL     1       4.659   1.380   4.664  0.00  0.00    -0.084 Cl
ENDBRANCH   1   9
BRANCH   1  17
ATOM     16  C   UNL     1       1.091   1.358  -2.706  0.00  0.00    +0.007 C 
ATOM     17  C   UNL     1       1.939   1.126  -1.453  0.00  0.00    +0.037 C 
ENDBRANCH   1  17
BRANCH   4  18
ATOM     18  C   UNL     1      -2.523   1.245   0.000  0.00  0.00    +0.043 C 
BRANCH  18  19
ATOM     19  N   UNL     1      -2.937   1.349   1.406  0.00  0.00    +0.391 N 
ATOM     20  C   UNL     1      -2.523   0.162   2.166  0.00  0.00    -0.093 C 
ATOM     21  H   UNL     1      -2.433   2.223   1.843  0.00  0.00    -0.079 HD
BRANCH  19  22
ATOM     22  C   UNL     1      -4.386   1.564   1.513  0.00  0.00    -0.060 C 
ATOM     23  C   UNL     1      -4.742   2.937   0.940  0.00  0.00    -0.024 C 
ATOM     24  C   UNL     1      -4.006   4.024   1.726  0.00  0.00    +0.005 C 
ATOM     25  C   UNL     1      -4.423   3.961   3.197  0.00  0.00    -0.010 C 
ATOM     26  C   UNL     1      -5.933   4.185   3.308  0.00  0.00    +0.007 C 
ATOM     27  C   UNL     1      -6.669   3.098   2.522  0.00  0.00    -0.010 C 
ATOM     28  C   UNL     1      -6.252   3.161   1.052  0.00  0.00    +0.005 C 
ATOM     29  C   UNL     1      -6.313   1.725   3.095  0.00  0.00    +0.005 C 
ATOM     30  C   UNL     1      -4.804   1.501   2.984  0.00  0.00    -0.024 C 
ATOM     31  C   UNL     1      -4.068   2.588   3.770  0.00  0.00    +0.005 C 
ENDBRANCH  19  22
ENDBRANCH  18  19
ENDBRANCH   4  18
TORSDOF 5
