REMARK  Name = ZINC15969535
REMARK  6 active torsions:
REMARK  status: ('A' for Active; 'I' for Inactive)
REMARK    1  A    between atoms: C_1  and  C_2
REMARK    2  A    between atoms: C_16  and  C_19
REMARK    3  A    between atoms: C_19  and  C_20
REMARK    4  A    between atoms: N_28  and  C_31
REMARK    5  A    between atoms: C_31  and  C_32
REMARK    6  A    between atoms: C_32  and  C_33
REMARK                            x       y       z     vdW  Elec       q    Type
REMARK                         _______ _______ _______ _____ _____    ______ ____
ROOT
ATOM      1  C   UNL     1      -0.018   1.503   0.010  0.00  0.00    +0.045 C 
ATOM      2  C   UNL     1       0.002  -0.004   0.002  0.00  0.00    -0.029 A 
ATOM      3  C   UNL     1       0.006  -0.685  -1.198  0.00  0.00    +0.005 A 
ATOM      4  C   UNL     1       0.025  -2.068  -1.216  0.00  0.00    +0.001 A 
ATOM      5  C   UNL     1       0.040  -2.772  -0.024  0.00  0.00    +0.008 A 
ATOM      6  C   UNL     1       0.037  -2.096   1.175  0.00  0.00    +0.004 A 
ATOM      7  C   UNL     1       0.023  -0.705   1.206  0.00  0.00    +0.042 A 
ATOM      8  N   UNL     1       0.030  -0.250   2.526  0.00  0.00    -0.283 N 
ATOM      9  C   UNL     1       0.053  -1.265   3.412  0.00  0.00    +0.243 C 
ATOM     10  O   UNL     1       0.065  -1.171   4.621  0.00  0.00    -0.273 OA
ATOM     11  C   UNL     1       0.048  -2.538   2.611  0.00  0.00    +0.136 C 
ATOM     12  C   UNL     1       1.282  -3.392   2.926  0.00  0.00    +0.122 C 
ATOM     13  C   UNL     1       0.775  -4.859   2.831  0.00  0.00    +0.107 C 
ATOM     14  C   UNL     1      -0.715  -4.739   2.447  0.00  0.00    +0.072 C 
ATOM     15  N   UNL     1      -1.119  -3.383   2.924  0.00  0.00    -0.295 NA
ATOM     16  C   UNL     1       0.901  -5.364   4.250  0.00  0.00    +0.227 C 
ATOM     17  O   UNL     1       0.604  -6.478   4.625  0.00  0.00    -0.275 OA
ATOM     18  N   UNL     1       1.392  -4.392   5.026  0.00  0.00    -0.241 N 
ATOM     19  C   UNL     1       1.653  -3.231   4.383  0.00  0.00    +0.228 C 
ATOM     20  O   UNL     1       2.107  -2.223   4.882  0.00  0.00    -0.275 OA
ATOM     21  H   UNL     1       0.021   0.687   2.777  0.00  0.00    +0.155 HD
ATOM     22  H   UNL     1      -1.312  -3.381   3.915  0.00  0.00    +0.124 HD
ENDROOT
BRANCH  14  23
ATOM     23  C   UNL     1      -1.537  -5.810   3.167  0.00  0.00    +0.054 C 
BRANCH  23  24
ATOM     24  C   UNL     1      -2.964  -5.755   2.686  0.00  0.00    -0.046 A 
ATOM     25  C   UNL     1      -3.879  -4.941   3.328  0.00  0.00    +0.004 A 
ATOM     26  C   UNL     1      -5.188  -4.891   2.886  0.00  0.00    +0.000 A 
ATOM     27  C   UNL     1      -5.582  -5.654   1.803  0.00  0.00    +0.000 A 
ATOM     28  C   UNL     1      -4.667  -6.466   1.160  0.00  0.00    +0.000 A 
ATOM     29  C   UNL     1      -3.357  -6.514   1.599  0.00  0.00    +0.004 A 
ENDBRANCH  23  24
ENDBRANCH  14  23
BRANCH  18  30
ATOM     30  C   UNL     1       1.635  -4.570   6.460  0.00  0.00    +0.121 C 
BRANCH  30  31
ATOM     31  C   UNL     1       3.061  -5.082   6.676  0.00  0.00    +0.054 C 
BRANCH  31  32
ATOM     32  C   UNL     1       3.311  -5.266   8.150  0.00  0.00    -0.046 A 
ATOM     33  C   UNL     1       3.815  -4.220   8.901  0.00  0.00    +0.004 A 
ATOM     34  C   UNL     1       4.044  -4.388  10.254  0.00  0.00    +0.000 A 
ATOM     35  C   UNL     1       3.769  -5.601  10.856  0.00  0.00    +0.000 A 
ATOM     36  C   UNL     1       3.265  -6.647  10.105  0.00  0.00    +0.000 A 
ATOM     37  C   UNL     1       3.031  -6.478   8.754  0.00  0.00    +0.004 A 
ENDBRANCH  31  32
ENDBRANCH  30  31
ENDBRANCH  18  30
TORSDOF 5
