REMARK  Name = ZINC38748345
REMARK  4 active torsions:
REMARK  status: ('A' for Active; 'I' for Inactive)
REMARK    1  A    between atoms: C_6  and  C_11
REMARK    2  A    between atoms: C_11  and  C_12
REMARK    3  A    between atoms: C_12  and  N_13
REMARK    4  A    between atoms: C_14  and  N_22
REMARK                            x       y       z     vdW  Elec       q    Type
REMARK                         _______ _______ _______ _____ _____    ______ ____
ROOT
ATOM      1  C   UNL     1      -5.450  -0.554  -1.385  0.00  0.00    +0.112 C 
ENDROOT
BRANCH   1   2
ATOM      2  N   UNL     1      -6.894  -0.309  -1.370  0.00  0.00    -0.299 N 
ATOM      3  C   UNL     1      -7.819  -1.439  -1.472  0.00  0.00    +0.026 C 
ATOM      4  C   UNL     1      -9.052  -1.172  -0.606  0.00  0.00    +0.098 C 
ATOM      5  C   UNL     1      -9.542   0.231  -0.862  0.00  0.00    +0.220 C 
ATOM      6  O   UNL     1     -10.730   0.474  -0.826  0.00  0.00    -0.275 OA
ATOM      7  N   UNL     1      -8.662   1.213  -1.131  0.00  0.00    -0.240 N 
ATOM      8  C   UNL     1      -7.351   0.949  -1.257  0.00  0.00    +0.307 C 
ATOM      9  O   UNL     1      -6.560   1.871  -1.274  0.00  0.00    -0.252 OA
ATOM     10  H   UNL     1      -8.979   2.124  -1.231  0.00  0.00    +0.159 HD
BRANCH   3  11
ATOM     11  N   UNL     1      -7.150  -2.662  -1.008  0.00  0.00    +0.391 N 
ATOM     12  H   UNL     1      -6.866  -2.546  -0.047  0.00  0.00    -0.087 HD
ATOM     13  H   UNL     1      -7.788  -3.441  -1.078  0.00  0.00    -0.087 HD
ATOM     14  H   UNL     1      -6.338  -2.839  -1.579  0.00  0.00    -0.087 HD
ENDBRANCH   3  11
ENDBRANCH   1   2
BRANCH   1  15
ATOM     15  C   UNL     1      -4.954  -0.771   0.046  0.00  0.00    +0.056 C 
BRANCH  15  21
ATOM     16  C   UNL     1      -0.017   1.373   0.010  0.00  0.00    +0.022 A 
ATOM     17  C   UNL     1       0.002  -0.004   0.002  0.00  0.00    +0.027 A 
ATOM     18  C   UNL     1      -1.196  -0.712   0.010  0.00  0.00    +0.047 A 
ATOM     19  N   UNL     1      -1.504  -2.054   0.005  0.00  0.00    -0.360 N 
ATOM     20  C   UNL     1      -2.862  -2.220   0.018  0.00  0.00    +0.087 A 
ATOM     21  C   UNL     1      -3.469  -1.022   0.030  0.00  0.00    -0.021 A 
ATOM     22  C   UNL     1      -2.413  -0.007   0.026  0.00  0.00    +0.004 A 
ATOM     23  C   UNL     1      -2.410   1.389   0.033  0.00  0.00    +0.030 A 
ATOM     24  C   UNL     1      -1.221   2.065   0.031  0.00  0.00    +0.042 A 
ATOM     25 CL   UNL     1      -1.217   3.801   0.040  0.00  0.00    -0.084 Cl
ATOM     26  H   UNL     1      -0.855  -2.775  -0.005  0.00  0.00    +0.165 HD
ENDBRANCH  15  21
ENDBRANCH   1  15
TORSDOF 4
