REMARK  Name = ZINC45495887
REMARK  11 active torsions:
REMARK  status: ('A' for Active; 'I' for Inactive)
REMARK    1  A    between atoms: C_1  and  N_2
REMARK    2  A    between atoms: N_2  and  C_3
REMARK    3  A    between atoms: N_2  and  C_4
REMARK    4  A    between atoms: C_4  and  C_6
REMARK    5  A    between atoms: C_4  and  C_23
REMARK    6  A    between atoms: C_6  and  N_7
REMARK    7  A    between atoms: C_8  and  C_10
REMARK    8  A    between atoms: C_11  and  C_12
REMARK    9  A    between atoms: C_15  and  O_18
REMARK   10  A    between atoms: O_18  and  C_19
REMARK   11  A    between atoms: C_19  and  C_20
REMARK                            x       y       z     vdW  Elec       q    Type
REMARK                         _______ _______ _______ _____ _____    ______ ____
ROOT
ATOM      1  N   UNL     1      -1.766   1.531  -1.169  0.00  0.00    -0.313 N 
ATOM      2  C   UNL     1      -2.260   2.263  -2.188  0.00  0.00    +0.237 C 
ATOM      3  O   UNL     1      -2.937   1.730  -3.048  0.00  0.00    -0.271 OA
ATOM      4  H   UNL     1      -1.227   1.956  -0.484  0.00  0.00    +0.149 HD
ENDROOT
BRANCH   2   5
ATOM      5  C   UNL     1      -1.982   3.697  -2.260  0.00  0.00    +0.068 C 
ATOM      6  C   UNL     1      -2.477   4.430  -3.279  0.00  0.00    +0.013 C 
BRANCH   6   7
ATOM      7  C   UNL     1      -2.198   5.872  -3.351  0.00  0.00    -0.025 A 
ATOM      8  C   UNL     1      -1.415   6.486  -2.367  0.00  0.00    +0.011 A 
ATOM      9  C   UNL     1      -1.157   7.836  -2.439  0.00  0.00    +0.046 A 
ATOM     10  C   UNL     1      -1.672   8.589  -3.487  0.00  0.00    +0.121 A 
ATOM     11  C   UNL     1      -2.451   7.985  -4.468  0.00  0.00    +0.046 A 
ATOM     12  C   UNL     1      -2.710   6.634  -4.408  0.00  0.00    +0.011 A 
BRANCH  10  13
ATOM     13  O   UNL     1      -1.415   9.921  -3.554  0.00  0.00    -0.483 OA
BRANCH  13  14
ATOM     14  C   UNL     1      -1.975  10.635  -4.657  0.00  0.00    +0.324 C 
BRANCH  14  15
ATOM     15  C   UNL     1      -1.585  12.088  -4.564  0.00  0.00    +0.248 C 
ATOM     16  O   UNL     1      -0.896  12.473  -3.644  0.00  0.00    -0.272 OA
ATOM     17  N   UNL     1      -2.003  12.959  -5.504  0.00  0.00    -0.327 N 
ATOM     18  H   UNL     1      -2.554  12.651  -6.240  0.00  0.00    +0.145 HD
ATOM     19  H   UNL     1      -1.752  13.894  -5.444  0.00  0.00    +0.145 HD
ENDBRANCH  14  15
ENDBRANCH  13  14
ENDBRANCH  10  13
ENDBRANCH   6   7
ENDBRANCH   2   5
BRANCH   1  20
ATOM     20  C   UNL     1      -2.044   0.095  -1.098  0.00  0.00    +0.094 C 
BRANCH  20  21
ATOM     21  C   UNL     1      -1.282  -0.514   0.081  0.00  0.00    -0.020 C 
BRANCH  21  22
ATOM     22  C   UNL     1      -1.799   0.071   1.370  0.00  0.00    -0.052 A 
ATOM     23  C   UNL     1      -1.112   1.091   2.002  0.00  0.00    +0.009 A 
ATOM     24  C   UNL     1      -1.605   1.595   3.160  0.00  0.00    +0.045 A 
ATOM     25  S   UNL     1      -3.082   0.620   3.389  0.00  0.00    -0.105 S 
ATOM     26  C   UNL     1      -2.947  -0.390   1.923  0.00  0.00    +0.047 A 
ENDBRANCH  21  22
BRANCH  21  28
ATOM     27  C   UNL     1      -0.983  -2.539  -1.170  0.00  0.00    -0.096 C 
ATOM     28  N   UNL     1      -1.477  -1.970   0.091  0.00  0.00    +0.382 N 
ATOM     29  C   UNL     1      -0.736  -2.556   1.216  0.00  0.00    -0.096 C 
ATOM     30  H   UNL     1      -2.460  -2.177   0.192  0.00  0.00    -0.082 HD
ENDBRANCH  21  28
ENDBRANCH  20  21
ENDBRANCH   1  20
TORSDOF 9
