REMARK  Name = ZINC66185436
REMARK  12 active torsions:
REMARK  status: ('A' for Active; 'I' for Inactive)
REMARK    1  A    between atoms: C_1  and  N_2
REMARK    2  A    between atoms: N_2  and  C_3
REMARK    3  A    between atoms: N_2  and  C_23
REMARK    4  A    between atoms: C_3  and  C_4
REMARK    5  A    between atoms: C_4  and  C_5
REMARK    6  A    between atoms: C_5  and  N_6
REMARK    7  A    between atoms: N_9  and  C_10
REMARK    8  A    between atoms: N_9  and  C_11
REMARK    9  A    between atoms: N_14  and  C_17
REMARK   10  A    between atoms: C_23  and  C_24
REMARK   11  A    between atoms: C_24  and  O_25
REMARK   12  A    between atoms: O_25  and  C_26
REMARK                            x       y       z     vdW  Elec       q    Type
REMARK                         _______ _______ _______ _____ _____    ______ ____
ROOT
ATOM      1  N   UNL     1      -4.001  -0.297  -2.695  0.00  0.00    -0.299 N 
ATOM      2  C   UNL     1      -5.260  -0.701  -2.955  0.00  0.00    +0.302 C 
ATOM      3  O   UNL     1      -5.849  -1.406  -2.159  0.00  0.00    -0.253 OA
ATOM      4  N   UNL     1      -5.865  -0.323  -4.099  0.00  0.00    -0.286 N 
ATOM      5  C   UNL     1      -5.155   0.526  -5.058  0.00  0.00    +0.134 C 
ATOM      6  H   UNL     1      -3.530   0.265  -3.330  0.00  0.00    +0.150 HD
ENDROOT
BRANCH   4   7
ATOM      7  C   UNL     1      -7.234  -0.762  -4.382  0.00  0.00    +0.074 C 
ATOM      8  C   UNL     1      -8.141   0.461  -4.545  0.00  0.00    +0.004 C 
ATOM      9  C   UNL     1      -9.551  -0.002  -4.919  0.00  0.00    -0.077 C 
ATOM     10  N   UNL     1      -9.505  -0.750  -6.180  0.00  0.00    +0.382 N 
ATOM     11  C   UNL     1      -8.696  -1.963  -6.011  0.00  0.00    -0.077 C 
ATOM     12  C   UNL     1      -7.253  -1.576  -5.679  0.00  0.00    +0.004 C 
ATOM     13  H   UNL     1      -9.096  -0.172  -6.899  0.00  0.00    -0.081 HD
BRANCH  10  14
ATOM     14  C   UNL     1     -10.870  -1.125  -6.575  0.00  0.00    -0.064 C 
ATOM     15  C   UNL     1     -10.827  -1.897  -7.897  0.00  0.00    +0.013 C 
ATOM     16  C   UNL     1     -12.258  -2.215  -8.340  0.00  0.00    +0.158 C 
ATOM     17  O   UNL     1     -12.997  -0.999  -8.465  0.00  0.00    -0.380 OA
ATOM     18  C   UNL     1     -13.111  -0.258  -7.248  0.00  0.00    +0.158 C 
ATOM     19  C   UNL     1     -11.715   0.139  -6.762  0.00  0.00    +0.013 C 
ENDBRANCH  10  14
ENDBRANCH   4   7
BRANCH   1  20
ATOM     20  C   UNL     1      -3.342  -0.708  -1.452  0.00  0.00    +0.104 C 
BRANCH  20  21
ATOM     21  C   UNL     1      -1.931  -0.118  -1.404  0.00  0.00    +0.000 C 
BRANCH  21  22
ATOM     22  C   UNL     1      -1.243  -0.547  -0.106  0.00  0.00    -0.078 C 
BRANCH  22  24
ATOM     23  C   UNL     1       0.028   1.484   0.010  0.00  0.00    -0.096 C 
ATOM     24  N   UNL     1       0.112   0.019  -0.060  0.00  0.00    +0.379 N 
ATOM     25  H   UNL     1       0.617  -0.250  -0.891  0.00  0.00    -0.082 HD
BRANCH  24  26
ATOM     26  C   UNL     1       0.814  -0.489   1.126  0.00  0.00    -0.051 C 
BRANCH  26  27
ATOM     27  C   UNL     1       1.042  -1.994   0.978  0.00  0.00    +0.141 C 
BRANCH  27  28
ATOM     28  O   UNL     1       1.922  -2.237  -0.122  0.00  0.00    -0.385 OA
ATOM     29  C   UNL     1       2.202  -3.620  -0.348  0.00  0.00    +0.193 C 
ENDBRANCH  27  28
ENDBRANCH  26  27
ENDBRANCH  24  26
ENDBRANCH  22  24
ENDBRANCH  21  22
ENDBRANCH  20  21
ENDBRANCH   1  20
TORSDOF 9
