REMARK  Name = ZINC13033367
REMARK  13 active torsions:
REMARK  status: ('A' for Active; 'I' for Inactive)
REMARK    1  A    between atoms: C_1  and  C_2
REMARK    2  A    between atoms: C_5  and  C_8
REMARK    3  A    between atoms: C_8  and  N_65
REMARK    4  A    between atoms: C_9  and  C_10
REMARK    5  A    between atoms: C_9  and  N_65
REMARK    6  A    between atoms: C_13  and  C_23
REMARK    7  A    between atoms: C_16  and  C_22
REMARK    8  A    between atoms: C_24  and  C_25
REMARK    9  A    between atoms: C_24  and  N_65
REMARK   10  A    between atoms: N_29  and  C_30
REMARK   11  A    between atoms: C_30  and  C_31
REMARK   12  A    between atoms: C_30  and  C_32
REMARK   13  A    between atoms: C_30  and  C_33
REMARK                            x       y       z     vdW  Elec       q    Type
REMARK                         _______ _______ _______ _____ _____    ______ ____
ROOT
ATOM      1  N   UNL     1       0.607  -3.005  -1.613  0.00  0.00    +0.390 N 
ATOM      2  H   UNL     1      -0.125  -2.633  -2.229  0.00  0.00    -0.080 HD
ENDROOT
BRANCH   1   3
ATOM      3  C   UNL     1       0.378  -2.510  -0.240  0.00  0.00    -0.042 C 
BRANCH   3   8
ATOM      4  C   UNL     1      -0.213   3.236  -0.402  0.00  0.00    +0.044 C 
ATOM      5  C   UNL     1      -0.059   1.738  -0.360  0.00  0.00    -0.050 A 
ATOM      6  C   UNL     1      -1.166   0.925  -0.512  0.00  0.00    +0.003 A 
ATOM      7  C   UNL     1      -1.025  -0.450  -0.473  0.00  0.00    +0.002 A 
ATOM      8  C   UNL     1       0.224  -1.011  -0.283  0.00  0.00    -0.064 A 
ATOM      9  C   UNL     1       1.331  -0.198  -0.132  0.00  0.00    +0.002 A 
ATOM     10  C   UNL     1       1.190   1.177  -0.171  0.00  0.00    +0.003 A 
ENDBRANCH   3   8
ENDBRANCH   1   3
BRANCH   1  11
ATOM     11  C   UNL     1       0.548  -4.482  -1.635  0.00  0.00    -0.036 C 
BRANCH  11  12
ATOM     12  C   UNL     1      -0.896  -4.908  -1.577  0.00  0.00    +0.001 A 
ATOM     13  C   UNL     1      -1.578  -5.142  -2.726  0.00  0.00    +0.017 A 
ATOM     14  C   UNL     1      -2.980  -5.555  -2.635  0.00  0.00    +0.002 A 
ATOM     15  C   UNL     1      -3.734  -5.811  -3.785  0.00  0.00    -0.041 A 
ATOM     16  C   UNL     1      -5.039  -6.195  -3.667  0.00  0.00    +0.004 A 
ATOM     17  C   UNL     1      -5.625  -6.333  -2.416  0.00  0.00    +0.005 A 
ATOM     18  C   UNL     1      -4.901  -6.086  -1.269  0.00  0.00    -0.026 A 
ATOM     19  C   UNL     1      -3.570  -5.694  -1.365  0.00  0.00    +0.052 A 
ATOM     20  N   UNL     1      -2.821  -5.441  -0.235  0.00  0.00    -0.322 N 
ATOM     21  H   UNL     1      -3.229  -5.537   0.640  0.00  0.00    +0.169 HD
ATOM     22  C   UNL     1      -1.533  -5.067  -0.328  0.00  0.00    +0.251 A 
ATOM     23  O   UNL     1      -0.901  -4.856   0.693  0.00  0.00    -0.268 OA
ATOM     24  C   UNL     1      -5.548  -6.241   0.082  0.00  0.00    +0.046 C 
ATOM     25  C   UNL     1      -3.108  -5.665  -5.149  0.00  0.00    +0.044 C 
ENDBRANCH  11  12
ENDBRANCH   1  11
BRANCH   1  26
ATOM     26  C   UNL     1       1.924  -2.545  -2.103  0.00  0.00    +0.001 C 
BRANCH  26  27
ATOM     27  C   UNL     1       2.089  -2.975  -3.538  0.00  0.00    +0.136 A 
ATOM     28  N   UNL     1       2.534  -4.133  -3.962  0.00  0.00    -0.115 NA
ATOM     29  N   UNL     1       2.524  -4.115  -5.250  0.00  0.00    -0.023 NA
ATOM     30  N   UNL     1       2.092  -2.973  -5.659  0.00  0.00    -0.043 NA
ATOM     31  N   UNL     1       1.813  -2.242  -4.633  0.00  0.00    -0.226 N 
BRANCH  31  32
ATOM     32  C   UNL     1       1.294  -0.872  -4.655  0.00  0.00    +0.059 C 
ATOM     33  C   UNL     1       2.325   0.073  -4.035  0.00  0.00    +0.036 C 
ATOM     34  C   UNL     1       1.023  -0.453  -6.101  0.00  0.00    +0.036 C 
ATOM     35  C   UNL     1      -0.007  -0.806  -3.852  0.00  0.00    +0.036 C 
ENDBRANCH  31  32
ENDBRANCH  26  27
ENDBRANCH   1  26
TORSDOF 7
