REMARK  Name = ZINC00890096
REMARK  7 active torsions:
REMARK  status: ('A' for Active; 'I' for Inactive)
REMARK    1  A    between atoms: C_1  and  C_2
REMARK    2  A    between atoms: C_4  and  C_33
REMARK    3  A    between atoms: C_9  and  C_14
REMARK    4  A    between atoms: C_14  and  C_16
REMARK    5  A    between atoms: C_14  and  N_61
REMARK    6  A    between atoms: N_20  and  C_21
REMARK    7  A    between atoms: C_21  and  C_22
REMARK                            x       y       z     vdW  Elec       q    Type
REMARK                         _______ _______ _______ _____ _____    ______ ____
ROOT
ATOM      1  C   UNL     1       4.959   1.184  -0.037  0.00  0.00    +0.039 C 
ENDROOT
BRANCH   1  10
ATOM      2  C   UNL     1      -2.496   0.971   0.019  0.00  0.00    +0.044 C 
ATOM      3  C   UNL     1      -1.203   1.746   0.017  0.00  0.00    -0.050 A 
ATOM      4  C   UNL     1      -1.233   3.134   0.030  0.00  0.00    +0.008 A 
ATOM      5  C   UNL     1      -0.063   3.862   0.023  0.00  0.00    -0.026 A 
ATOM      6  C   UNL     1       1.161   3.202   0.008  0.00  0.00    +0.052 A 
ATOM      7  C   UNL     1       1.188   1.795   0.000  0.00  0.00    -0.001 A 
ATOM      8  C   UNL     1      -0.013   1.076   0.008  0.00  0.00    +0.013 A 
ATOM      9  C   UNL     1       2.481   1.109  -0.015  0.00  0.00    +0.017 A 
ATOM     10  C   UNL     1       3.611   1.858  -0.021  0.00  0.00    +0.011 A 
ATOM     11  C   UNL     1       3.530   3.267  -0.012  0.00  0.00    +0.251 A 
ATOM     12  O   UNL     1       4.558   3.921  -0.017  0.00  0.00    -0.268 OA
ATOM     13  N   UNL     1       2.347   3.906   0.002  0.00  0.00    -0.322 N 
ATOM     14  H   UNL     1       2.326   4.905   0.007  0.00  0.00    +0.169 HD
ATOM     15  C   UNL     1      -0.110   5.368   0.032  0.00  0.00    +0.046 C 
ENDBRANCH   1  10
BRANCH   1  21
ATOM     16  C   UNL     1       5.015   1.490  -2.437  0.00  0.00    -0.077 C 
ATOM     17  C   UNL     1       5.792   2.148  -3.580  0.00  0.00    -0.019 C 
ATOM     18  C   UNL     1       7.185   1.519  -3.672  0.00  0.00    -0.004 C 
ATOM     19  C   UNL     1       7.902   1.689  -2.330  0.00  0.00    -0.019 C 
ATOM     20  C   UNL     1       7.064   1.044  -1.224  0.00  0.00    -0.077 C 
ATOM     21  N   UNL     1       5.745   1.710  -1.171  0.00  0.00    +0.389 N 
ATOM     22  H   UNL     1       5.887   2.719  -1.039  0.00  0.00    -0.080 HD
ENDBRANCH   1  21
BRANCH   1  23
ATOM     23  C   UNL     1       5.689   1.489   1.246  0.00  0.00    +0.143 A 
ATOM     24  N   UNL     1       6.269   2.620   1.566  0.00  0.00    -0.115 NA
ATOM     25  N   UNL     1       6.779   2.486   2.742  0.00  0.00    -0.023 NA
ATOM     26  N   UNL     1       6.546   1.297   3.176  0.00  0.00    -0.044 NA
ATOM     27  N   UNL     1       5.876   0.651   2.283  0.00  0.00    -0.228 N 
BRANCH  27  28
ATOM     28  C   UNL     1       5.407  -0.733   2.379  0.00  0.00    +0.178 C 
BRANCH  28  29
ATOM     29  C   UNL     1       6.476  -1.674   1.819  0.00  0.00    +0.140 C 
ATOM     30  C   UNL     1       6.022  -3.148   1.961  0.00  0.00    +0.035 C 
ATOM     31  C   UNL     1       6.844  -3.820   0.827  0.00  0.00    +0.031 C 
ATOM     32  C   UNL     1       6.885  -2.713  -0.248  0.00  0.00    +0.160 C 
ATOM     33  O   UNL     1       6.634  -1.464   0.407  0.00  0.00    -0.375 OA
ENDBRANCH  28  29
ENDBRANCH  27  28
ENDBRANCH   1  23
TORSDOF 5
