REMARK  Name = ZINC35725425
REMARK  4 active torsions:
REMARK  status: ('A' for Active; 'I' for Inactive)
REMARK    1  A    between atoms: C_6  and  C_7
REMARK    2  A    between atoms: C_13  and  C_15
REMARK    3  A    between atoms: N_20  and  S_21
REMARK    4  A    between atoms: S_21  and  C_24
REMARK                            x       y       z     vdW  Elec       q    Type
REMARK                         _______ _______ _______ _____ _____    ______ ____
ROOT
ATOM      1  C   UNL     1      -1.266  -0.763   0.011  0.00  0.00    +0.134 A 
ATOM      2  N   UNL     1      -2.521  -0.329   0.019  0.00  0.00    -0.140 NA
ATOM      3  N   UNL     1      -3.501  -1.123   0.026  0.00  0.00    -0.125 NA
ATOM      4  C   UNL     1      -3.337  -2.439   0.024  0.00  0.00    +0.188 A 
ATOM      5  S   UNL     1      -1.549  -2.531   0.004  0.00  0.00    -0.030 S 
ATOM      6  N   UNL     1      -4.283  -3.457   0.030  0.00  0.00    -0.262 N 
ATOM      7  C   UNL     1      -5.596  -3.155   0.039  0.00  0.00    +0.238 C 
ATOM      8  O   UNL     1      -5.953  -1.996   0.042  0.00  0.00    -0.274 OA
ATOM      9  H   UNL     1      -3.998  -4.384   0.029  0.00  0.00    +0.157 HD
ENDROOT
BRANCH   1  15
ATOM     10  C   UNL     1      -0.017   1.391   0.010  0.00  0.00    +0.012 A 
ATOM     11  C   UNL     1       1.170   2.095   0.002  0.00  0.00    +0.020 A 
ATOM     12  C   UNL     1       2.378   1.419  -0.013  0.00  0.00    +0.041 A 
ATOM     13  C   UNL     1       2.403   0.034  -0.021  0.00  0.00    +0.020 A 
ATOM     14  C   UNL     1       1.223  -0.680  -0.013  0.00  0.00    +0.012 A 
ATOM     15  C   UNL     1       0.002  -0.004   0.002  0.00  0.00    +0.009 A 
ATOM     16 CL   UNL     1       3.868   2.310  -0.023  0.00  0.00    -0.084 Cl
ENDBRANCH   1  15
BRANCH   7  17
ATOM     17  C   UNL     1      -6.623  -4.259   0.046  0.00  0.00    +0.166 C 
ATOM     18  C   UNL     1      -6.468  -5.112   1.323  0.00  0.00    +0.031 C 
ATOM     19  C   UNL     1      -7.541  -4.514   2.272  0.00  0.00    +0.019 C 
ATOM     20  C   UNL     1      -8.672  -4.157   1.276  0.00  0.00    +0.110 C 
ATOM     21  N   UNL     1      -7.976  -3.684   0.062  0.00  0.00    -0.165 NA
BRANCH  21  22
ATOM     22  S   UNL     1      -8.609  -2.673  -1.086  0.00  0.00    +0.062 S 
ATOM     23  O   UNL     1      -9.644  -1.935  -0.452  0.00  0.00    -0.153 OA
ATOM     24  O   UNL     1      -7.506  -2.044  -1.726  0.00  0.00    -0.153 OA
BRANCH  22  25
ATOM     25  C   UNL     1      -9.384  -3.686  -2.301  0.00  0.00    +0.106 A 
ATOM     26  C   UNL     1      -8.659  -4.140  -3.387  0.00  0.00    +0.031 A 
ATOM     27  C   UNL     1      -9.267  -4.935  -4.340  0.00  0.00    +0.040 A 
ATOM     28  C   UNL     1     -10.602  -5.277  -4.208  0.00  0.00    +0.124 A 
ATOM     29  C   UNL     1     -11.327  -4.821  -3.120  0.00  0.00    +0.040 A 
ATOM     30  C   UNL     1     -10.716  -4.030  -2.165  0.00  0.00    +0.031 A 
ATOM     31  F   UNL     1     -11.197  -6.053  -5.140  0.00  0.00    -0.205 F 
ENDBRANCH  22  25
ENDBRANCH  21  22
ENDBRANCH   7  17
TORSDOF 4
