REMARK  Name = ZINC04082366
REMARK  7 active torsions:
REMARK  status: ('A' for Active; 'I' for Inactive)
REMARK    1  A    between atoms: C_1  and  C_2
REMARK    2  A    between atoms: C_5  and  O_26
REMARK    3  A    between atoms: C_18  and  C_25
REMARK    4  A    between atoms: O_26  and  C_27
REMARK    5  A    between atoms: C_27  and  C_29
REMARK    6  A    between atoms: C_29  and  C_30
REMARK    7  A    between atoms: C_30  and  N_74
REMARK                            x       y       z     vdW  Elec       q    Type
REMARK                         _______ _______ _______ _____ _____    ______ ____
ROOT
ATOM      1  C   UNL     1       1.768   0.333   3.949  0.00  0.00    +0.012 C 
ATOM      2  C   UNL     1       2.626  -0.276   2.837  0.00  0.00    -0.026 C 
ATOM      3  C   UNL     1       2.626  -1.800   2.971  0.00  0.00    +0.011 C 
ATOM      4  C   UNL     1       3.199  -2.192   4.335  0.00  0.00    +0.045 C 
ATOM      5  C   UNL     1       4.632  -1.670   4.455  0.00  0.00    +0.177 C 
ATOM      6  C   UNL     1       4.633  -0.146   4.319  0.00  0.00    +0.048 C 
ATOM      7  C   UNL     1       4.059   0.246   2.956  0.00  0.00    -0.001 C 
ATOM      8  C   UNL     1       4.063   1.770   2.821  0.00  0.00    +0.004 C 
ATOM      9  C   UNL     1       3.480   2.165   1.463  0.00  0.00    +0.004 C 
ATOM     10  C   UNL     1       2.044   1.649   1.357  0.00  0.00    -0.003 C 
ATOM     11  C   UNL     1       2.050   0.117   1.476  0.00  0.00    -0.001 C 
ATOM     12  C   UNL     1       0.649  -0.464   1.316  0.00  0.00    +0.005 C 
ATOM     13  C   UNL     1      -0.001  -0.004   0.000  0.00  0.00    +0.015 C 
ATOM     14  C   UNL     1      -0.018   1.511   0.010  0.00  0.00    +0.029 C 
ATOM     15  C   UNL     1       1.457   1.995   0.001  0.00  0.00    +0.006 C 
ATOM     16  C   UNL     1       1.276   3.492  -0.283  0.00  0.00    +0.012 C 
ATOM     17  C   UNL     1       0.150   3.498  -1.353  0.00  0.00    +0.075 C 
ATOM     18  C   UNL     1      -0.621   2.193  -1.182  0.00  0.00    +0.139 C 
ATOM     19  O   UNL     1      -1.529   1.790  -1.868  0.00  0.00    -0.297 OA
ATOM     20  C   UNL     1      -0.714   2.009   1.279  0.00  0.00    +0.019 C 
ENDROOT
BRANCH   5  21
ATOM     21  O   UNL     1       5.176  -2.041   5.749  0.00  0.00    -0.461 OA
BRANCH  21  22
ATOM     22  C   UNL     1       5.815  -3.219   5.826  0.00  0.00    +0.306 C 
ATOM     23  O   UNL     1       5.917  -3.916   4.845  0.00  0.00    -0.251 OA
BRANCH  22  24
ATOM     24  C   UNL     1       6.406  -3.671   7.136  0.00  0.00    +0.102 C 
BRANCH  24  25
ATOM     25  C   UNL     1       7.073  -5.036   6.952  0.00  0.00    -0.068 C 
BRANCH  25  31
ATOM     26  C   UNL     1       8.749  -4.597   8.642  0.00  0.00    -0.079 C 
ATOM     27  C   UNL     1       9.227  -4.996  10.039  0.00  0.00    -0.019 C 
ATOM     28  C   UNL     1       9.695  -6.454  10.016  0.00  0.00    -0.004 C 
ATOM     29  C   UNL     1       8.545  -7.344   9.537  0.00  0.00    -0.019 C 
ATOM     30  C   UNL     1       8.087  -6.876   8.154  0.00  0.00    -0.079 C 
ATOM     31  N   UNL     1       7.626  -5.474   8.249  0.00  0.00    +0.380 N 
ATOM     32  H   UNL     1       6.891  -5.413   8.963  0.00  0.00    -0.082 HD
ENDBRANCH  25  31
ENDBRANCH  24  25
ENDBRANCH  22  24
ENDBRANCH  21  22
ENDBRANCH   5  21
TORSDOF 5
