REMARK  Name = ZINC16330343
REMARK  8 active torsions:
REMARK  status: ('A' for Active; 'I' for Inactive)
REMARK    1  A    between atoms: C_1  and  C_2
REMARK    2  A    between atoms: C_6  and  N_9
REMARK    3  A    between atoms: C_7  and  C_8
REMARK    4  A    between atoms: C_10  and  C_12
REMARK    5  A    between atoms: C_12  and  S_13
REMARK    6  A    between atoms: S_13  and  C_14
REMARK    7  A    between atoms: N_19  and  C_20
REMARK    8  A    between atoms: C_20  and  C_21
REMARK                            x       y       z     vdW  Elec       q    Type
REMARK                         _______ _______ _______ _____ _____    ______ ____
ROOT
ATOM      1  S   UNL     1      -0.226  -6.677   3.345  0.00  0.00    -0.088 S 
ENDROOT
BRANCH   1   2
ATOM      2  C   UNL     1      -0.334  -7.412   4.943  0.00  0.00    +0.160 A 
ATOM      3  N   UNL     1      -0.349  -6.835   6.129  0.00  0.00    -0.133 NA
ATOM      4  N   UNL     1      -0.440  -7.607   7.264  0.00  0.00    -0.125 NA
ATOM      5  C   UNL     1      -0.511  -8.919   7.162  0.00  0.00    +0.182 A 
ATOM      6  S   UNL     1      -0.458  -9.137   5.389  0.00  0.00    -0.025 S 
ATOM      7  N   UNL     1      -0.608  -9.877   8.164  0.00  0.00    -0.320 N 
ATOM      8  H   UNL     1      -0.652 -10.819   7.933  0.00  0.00    +0.148 HD
BRANCH   7   9
ATOM      9  C   UNL     1      -0.642  -9.466   9.570  0.00  0.00    +0.135 C 
BRANCH   9  10
ATOM     10  C   UNL     1      -0.750 -10.704  10.461  0.00  0.00    +0.135 C 
ATOM     11  C   UNL     1      -0.823 -10.289  11.952  0.00  0.00    +0.035 C 
ATOM     12  C   UNL     1      -1.551 -11.517  12.565  0.00  0.00    +0.031 C 
ATOM     13  C   UNL     1      -2.504 -11.935  11.425  0.00  0.00    +0.160 C 
ATOM     14  O   UNL     1      -1.980 -11.400  10.203  0.00  0.00    -0.375 OA
ENDBRANCH   9  10
ENDBRANCH   7   9
ENDBRANCH   1   2
BRANCH   1  15
ATOM     15  C   UNL     1      -0.129  -4.898   3.686  0.00  0.00    +0.172 C 
BRANCH  15  17
ATOM     16  N   UNL     1       0.052  -2.797   2.393  0.00  0.00    -0.285 N 
ATOM     17  C   UNL     1      -0.031  -4.143   2.385  0.00  0.00    +0.227 C 
ATOM     18  O   UNL     1      -0.028  -4.745   1.333  0.00  0.00    -0.275 OA
ATOM     19  H   UNL     1       0.130  -2.321   3.234  0.00  0.00    +0.155 HD
BRANCH  16  25
ATOM     20  C   UNL     1       1.206   1.236  -0.172  0.00  0.00    +0.044 C 
ATOM     21  C   UNL     1       0.577  -0.131  -0.084  0.00  0.00    -0.046 A 
ATOM     22  C   UNL     1      -0.027  -0.686  -1.198  0.00  0.00    +0.004 A 
ATOM     23  C   UNL     1      -0.605  -1.940  -1.122  0.00  0.00    +0.002 A 
ATOM     24  C   UNL     1      -0.580  -2.642   0.067  0.00  0.00    +0.023 A 
ATOM     25  C   UNL     1       0.026  -2.088   1.187  0.00  0.00    +0.037 A 
ATOM     26  C   UNL     1       0.610  -0.831   1.106  0.00  0.00    -0.026 A 
ATOM     27  C   UNL     1       1.274  -0.228   2.317  0.00  0.00    +0.046 C 
ENDBRANCH  16  25
ENDBRANCH  15  17
ENDBRANCH   1  15
TORSDOF 6
