REMARK  Name = ZINC15229141
REMARK  5 active torsions:
REMARK  status: ('A' for Active; 'I' for Inactive)
REMARK    1  A    between atoms: C_1  and  O_2
REMARK    2  A    between atoms: O_2  and  C_3
REMARK    3  A    between atoms: C_6  and  C_9
REMARK    4  A    between atoms: C_9  and  N_10
REMARK    5  A    between atoms: C_20  and  C_22
REMARK                            x       y       z     vdW  Elec       q    Type
REMARK                         _______ _______ _______ _____ _____    ______ ____
ROOT
ATOM      1  N   UNL     1       3.965  -2.851  -4.387  0.00  0.00    -0.248 N 
ATOM      2  C   UNL     1       4.484  -3.929  -3.716  0.00  0.00    +0.060 C 
ATOM      3  C   UNL     1       3.748  -5.130  -3.316  0.00  0.00    +0.044 C 
ATOM      4  C   UNL     1       2.361  -5.206  -3.500  0.00  0.00    +0.013 C 
ATOM      5  C   UNL     1       1.683  -6.329  -3.124  0.00  0.00    +0.001 C 
ATOM      6  C   UNL     1       2.353  -7.408  -2.559  0.00  0.00    +0.004 C 
ATOM      7  C   UNL     1       3.704  -7.367  -2.366  0.00  0.00    +0.051 C 
ATOM      8  C   UNL     1       4.432  -6.231  -2.745  0.00  0.00    +0.188 C 
ATOM      9  O   UNL     1       5.646  -6.190  -2.580  0.00  0.00    -0.287 OA
ATOM     10  C   UNL     1       5.836  -3.678  -3.484  0.00  0.00    +0.050 C 
ATOM     11  C   UNL     1       6.139  -2.438  -4.017  0.00  0.00    +0.054 C 
ATOM     12  N   UNL     1       4.999  -1.925  -4.578  0.00  0.00    -0.263 N 
ATOM     13  H   UNL     1       4.921  -1.069  -5.027  0.00  0.00    +0.170 HD
ENDROOT
BRANCH  11  14
ATOM     14  C   UNL     1       7.461  -1.785  -3.991  0.00  0.00    -0.003 A 
ATOM     15  C   UNL     1       7.631  -0.522  -4.564  0.00  0.00    +0.011 A 
ATOM     16  C   UNL     1       8.870   0.083  -4.536  0.00  0.00    +0.016 A 
ATOM     17  C   UNL     1       9.944  -0.558  -3.941  0.00  0.00    +0.018 A 
ATOM     18  C   UNL     1       9.782  -1.810  -3.371  0.00  0.00    +0.016 A 
ATOM     19  C   UNL     1       8.548  -2.424  -3.388  0.00  0.00    +0.011 A 
ATOM     20 BR   UNL     1      11.639   0.280  -3.908  0.00  0.00    -0.050 Br
ENDBRANCH  11  14
BRANCH   1  21
ATOM     21  C   UNL     1       2.577  -2.697  -4.829  0.00  0.00    +0.162 C 
BRANCH  21  25
ATOM     22  C   UNL     1       2.178   0.945  -7.030  0.00  0.00    +0.120 A 
ATOM     23  C   UNL     1       2.629  -0.204  -7.663  0.00  0.00    +0.046 A 
ATOM     24  C   UNL     1       2.757  -1.380  -6.950  0.00  0.00    +0.009 A 
ATOM     25  C   UNL     1       2.437  -1.413  -5.605  0.00  0.00    -0.028 A 
ATOM     26  C   UNL     1       1.987  -0.269  -4.971  0.00  0.00    +0.009 A 
ATOM     27  C   UNL     1       1.863   0.911  -5.679  0.00  0.00    +0.046 A 
BRANCH  22  29
ATOM     28  C   UNL     1       2.394   2.064  -9.116  0.00  0.00    +0.277 C 
ATOM     29  O   UNL     1       2.052   2.103  -7.729  0.00  0.00    -0.495 OA
ENDBRANCH  22  29
ENDBRANCH  21  25
ENDBRANCH   1  21
TORSDOF 4
