REMARK  Name = ZINC63514892
REMARK  11 active torsions:
REMARK  status: ('A' for Active; 'I' for Inactive)
REMARK    1  A    between atoms: C_1  and  C_2
REMARK    2  A    between atoms: C_5  and  O_30
REMARK    3  A    between atoms: C_6  and  S_8
REMARK    4  A    between atoms: S_8  and  N_11
REMARK    5  A    between atoms: N_11  and  C_12
REMARK    6  A    between atoms: C_12  and  C_13
REMARK    7  A    between atoms: C_13  and  C_14
REMARK    8  A    between atoms: C_17  and  O_25
REMARK    9  A    between atoms: C_22  and  C_24
REMARK   10  A    between atoms: O_25  and  C_26
REMARK   11  A    between atoms: O_30  and  C_31
REMARK                            x       y       z     vdW  Elec       q    Type
REMARK                         _______ _______ _______ _____ _____    ______ ____
ROOT
ATOM      1  C   UNL     1      -2.827  -5.513   2.159  0.00  0.00    +0.050 C 
ENDROOT
BRANCH   1   2
ATOM      2  C   UNL     1      -2.850  -6.634   1.151  0.00  0.00    -0.037 C 
ATOM      3  C   UNL     1      -1.967  -6.845   0.150  0.00  0.00    +0.003 A 
ATOM      4  C   UNL     1      -0.767  -6.124  -0.287  0.00  0.00    +0.056 A 
ATOM      5  C   UNL     1      -0.064  -6.582  -1.351  0.00  0.00    +0.129 A 
ATOM      6  C   UNL     1      -0.444  -7.734  -2.062  0.00  0.00    +0.048 A 
ATOM      7  C   UNL     1      -1.532  -8.463  -1.737  0.00  0.00    +0.029 A 
ATOM      8  C   UNL     1      -2.366  -8.059  -0.600  0.00  0.00    +0.043 A 
ATOM      9  N   UNL     1      -3.452  -8.576  -0.083  0.00  0.00    -0.378 N 
ATOM     10  C   UNL     1      -3.864  -7.753   1.060  0.00  0.00    +0.103 C 
ATOM     11  C   UNL     1      -3.848  -8.584   2.345  0.00  0.00    +0.035 C 
ATOM     12  H   UNL     1      -3.906  -9.373  -0.400  0.00  0.00    +0.160 HD
BRANCH   5  13
ATOM     13  O   UNL     1       1.046  -5.904  -1.745  0.00  0.00    -0.420 OA
BRANCH  13  14
ATOM     14  C   UNL     1       1.757  -6.421  -2.872  0.00  0.00    +0.489 C 
ATOM     15  F   UNL     1       2.190  -7.722  -2.592  0.00  0.00    -0.149 F 
ATOM     16  F   UNL     1       0.912  -6.441  -3.987  0.00  0.00    -0.149 F 
ATOM     17 CL   UNL     1       3.183  -5.373  -3.216  0.00  0.00    +0.000 Cl
ENDBRANCH  13  14
ENDBRANCH   5  13
ENDBRANCH   1   2
BRANCH   1  18
ATOM     18  C   UNL     1      -1.628  -4.604   1.882  0.00  0.00    +0.110 C 
BRANCH  18  19
ATOM     19  N   UNL     1      -1.596  -3.524   2.871  0.00  0.00    -0.190 NA
ATOM     20  H   UNL     1      -1.181  -3.670   3.736  0.00  0.00    +0.148 HD
BRANCH  19  21
ATOM     21  S   UNL     1      -2.267  -2.053   2.512  0.00  0.00    +0.062 S 
ATOM     22  O   UNL     1      -1.782  -1.687   1.228  0.00  0.00    -0.153 OA
ATOM     23  O   UNL     1      -2.084  -1.233   3.658  0.00  0.00    -0.153 OA
BRANCH  21  29
ATOM     24  C   UNL     1      -7.176  -1.443   4.200  0.00  0.00    +0.044 C 
ATOM     25  C   UNL     1      -6.232  -1.992   3.161  0.00  0.00    -0.048 A 
ATOM     26  C   UNL     1      -6.731  -2.690   2.076  0.00  0.00    +0.007 A 
ATOM     27  C   UNL     1      -5.869  -3.195   1.123  0.00  0.00    +0.048 A 
ATOM     28  C   UNL     1      -4.502  -3.001   1.254  0.00  0.00    +0.146 A 
ATOM     29  C   UNL     1      -4.004  -2.301   2.342  0.00  0.00    +0.147 A 
ATOM     30  C   UNL     1      -4.871  -1.793   3.291  0.00  0.00    +0.035 A 
BRANCH  28  31
ATOM     31  O   UNL     1      -3.651  -3.498   0.317  0.00  0.00    -0.493 OA
ATOM     32  C   UNL     1      -4.228  -4.263  -0.743  0.00  0.00    +0.277 C 
ENDBRANCH  28  31
ENDBRANCH  21  29
ENDBRANCH  19  21
ENDBRANCH  18  19
ENDBRANCH   1  18
TORSDOF 8
