REMARK  Name = ZINC64626236
REMARK  9 active torsions:
REMARK  status: ('A' for Active; 'I' for Inactive)
REMARK    1  A    between atoms: C_1  and  C_2
REMARK    2  A    between atoms: C_2  and  C_4
REMARK    3  A    between atoms: C_2  and  N_15
REMARK    4  A    between atoms: C_4  and  C_5
REMARK    5  A    between atoms: C_5  and  C_6
REMARK    6  A    between atoms: C_18  and  C_21
REMARK    7  A    between atoms: C_18  and  C_28
REMARK    8  A    between atoms: C_21  and  C_22
REMARK    9  A    between atoms: C_28  and  O_29
REMARK                            x       y       z     vdW  Elec       q    Type
REMARK                         _______ _______ _______ _____ _____    ______ ____
ROOT
ATOM      1  N   UNL     1       0.909  -0.410  -1.077  0.00  0.00    +0.381 N 
ATOM      2  C   UNL     1       0.892  -1.875  -1.166  0.00  0.00    -0.078 C 
ATOM      3  C   UNL     1       1.871  -2.335  -2.248  0.00  0.00    -0.009 C 
ATOM      4  C   UNL     1       1.454  -1.736  -3.594  0.00  0.00    -0.005 C 
ATOM      5  C   UNL     1       1.404  -0.210  -3.469  0.00  0.00    -0.009 C 
ATOM      6  C   UNL     1       0.442   0.172  -2.341  0.00  0.00    -0.078 C 
ATOM      7  H   UNL     1       1.851  -0.097  -0.892  0.00  0.00    -0.081 HD
ENDROOT
BRANCH   1   9
ATOM      8  C   UNL     1      -1.423  -0.319  -0.334  0.00  0.00    -0.013 C 
ATOM      9  C   UNL     1       0.027   0.024   0.015  0.00  0.00    -0.071 C 
BRANCH   9  10
ATOM     10  C   UNL     1       0.161   1.535   0.210  0.00  0.00    -0.011 C 
BRANCH  10  11
ATOM     11  C   UNL     1       1.592   1.869   0.636  0.00  0.00    +0.031 C 
BRANCH  11  12
ATOM     12  C   UNL     1       1.692   3.340   0.952  0.00  0.00    -0.042 C 
ATOM     13  C   UNL     1       1.584   3.919   2.169  0.00  0.00    -0.001 A 
ATOM     14  C   UNL     1       1.349   3.375   3.512  0.00  0.00    +0.010 A 
ATOM     15  C   UNL     1       1.289   4.225   4.563  0.00  0.00    +0.001 A 
ATOM     16  C   UNL     1       1.444   5.609   4.402  0.00  0.00    +0.002 A 
ATOM     17  C   UNL     1       1.663   6.183   3.200  0.00  0.00    +0.026 A 
ATOM     18  C   UNL     1       1.745   5.384   2.026  0.00  0.00    +0.043 A 
ATOM     19  N   UNL     1       1.945   5.697   0.769  0.00  0.00    -0.380 N 
ATOM     20  C   UNL     1       1.939   4.465  -0.028  0.00  0.00    +0.144 C 
ATOM     21  H   UNL     1       2.079   6.594   0.423  0.00  0.00    +0.160 HD
ENDBRANCH  11  12
ENDBRANCH  10  11
ENDBRANCH   9  10
ENDBRANCH   1   9
BRANCH   4  22
ATOM     22  C   UNL     1       2.474  -2.127  -4.666  0.00  0.00    +0.044 C 
BRANCH  22  23
ATOM     23  C   UNL     1       2.062  -1.537  -5.990  0.00  0.00    -0.047 A 
ATOM     24  C   UNL     1       1.235  -2.249  -6.837  0.00  0.00    +0.003 A 
ATOM     25  C   UNL     1       0.857  -1.708  -8.052  0.00  0.00    +0.000 A 
ATOM     26  C   UNL     1       1.307  -0.453  -8.419  0.00  0.00    +0.000 A 
ATOM     27  C   UNL     1       2.134   0.260  -7.571  0.00  0.00    +0.000 A 
ATOM     28  C   UNL     1       2.507  -0.280  -6.354  0.00  0.00    +0.003 A 
ENDBRANCH  22  23
ENDBRANCH   4  22
BRANCH   4  29
ATOM     29  C   UNL     1       0.072  -2.263  -3.983  0.00  0.00    +0.163 C 
BRANCH  29  30
ATOM     30  O   UNL     1      -0.316  -1.703  -5.239  0.00  0.00    -0.394 OA
ATOM     31  H   UNL     1      -1.184  -1.995  -5.549  0.00  0.00    +0.209 HD
ENDBRANCH  29  30
ENDBRANCH   4  29
TORSDOF 8
