REMARK  Name = ZINC66726206
REMARK  13 active torsions:
REMARK  status: ('A' for Active; 'I' for Inactive)
REMARK    1  A    between atoms: C_1  and  C_2
REMARK    2  A    between atoms: C_2  and  N_3
REMARK    3  A    between atoms: N_3  and  C_4
REMARK    4  A    between atoms: C_4  and  C_5
REMARK    5  A    between atoms: C_8  and  C_11
REMARK    6  A    between atoms: C_11  and  N_12
REMARK    7  A    between atoms: N_12  and  C_13
REMARK    8  A    between atoms: N_12  and  C_14
REMARK    9  A    between atoms: C_15  and  C_17
REMARK   10  A    between atoms: C_17  and  N_18
REMARK   11  A    between atoms: N_18  and  S_19
REMARK   12  A    between atoms: S_19  and  C_22
REMARK   13  A    between atoms: N_25  and  C_27
REMARK                            x       y       z     vdW  Elec       q    Type
REMARK                         _______ _______ _______ _____ _____    ______ ____
ROOT
ATOM      1  N   UNL     1      -1.372  -0.511   0.012  0.00  0.00    -0.296 N 
ATOM      2  C   UNL     1      -1.993  -0.751   1.184  0.00  0.00    +0.231 C 
ATOM      3  O   UNL     1      -3.131  -1.171   1.193  0.00  0.00    -0.274 OA
ENDROOT
BRANCH   1   5
ATOM      4  C   UNL     1      -0.019   1.526   0.010  0.00  0.00    +0.024 C 
ATOM      5  C   UNL     1       0.002  -0.004   0.002  0.00  0.00    +0.105 C 
ENDBRANCH   1   5
BRANCH   1   6
ATOM      6  C   UNL     1      -2.072  -0.758  -1.251  0.00  0.00    +0.142 C 
BRANCH   6   7
ATOM      7  C   UNL     1      -1.820  -2.175  -1.696  0.00  0.00    -0.030 A 
ATOM      8  C   UNL     1      -0.734  -2.464  -2.502  0.00  0.00    +0.005 A 
ATOM      9  C   UNL     1      -0.503  -3.765  -2.910  0.00  0.00    +0.002 A 
ATOM     10  C   UNL     1      -1.357  -4.776  -2.512  0.00  0.00    -0.064 A 
ATOM     11  C   UNL     1      -2.442  -4.487  -1.706  0.00  0.00    +0.002 A 
ATOM     12  C   UNL     1      -2.671  -3.188  -1.294  0.00  0.00    +0.005 A 
BRANCH  10  13
ATOM     13  C   UNL     1      -1.106  -6.194  -2.958  0.00  0.00    -0.044 C 
BRANCH  13  14
ATOM     14  N   UNL     1      -0.245  -6.870  -1.978  0.00  0.00    +0.379 N 
ATOM     15  C   UNL     1      -0.958  -6.986  -0.699  0.00  0.00    -0.096 C 
ATOM     16  C   UNL     1       0.097  -8.211  -2.471  0.00  0.00    -0.096 C 
ATOM     17  H   UNL     1       0.599  -6.334  -1.846  0.00  0.00    -0.082 HD
ENDBRANCH  13  14
ENDBRANCH  10  13
ENDBRANCH   6   7
ENDBRANCH   1   6
BRANCH   2  18
ATOM     18  C   UNL     1      -1.274  -0.497   2.484  0.00  0.00    +0.201 C 
BRANCH  18  19
ATOM     19  N   UNL     1      -2.156  -0.832   3.604  0.00  0.00    -0.181 NA
ATOM     20  H   UNL     1      -3.108  -0.950   3.454  0.00  0.00    +0.149 HD
BRANCH  19  21
ATOM     21  S   UNL     1      -1.530  -1.011   5.127  0.00  0.00    +0.062 S 
ATOM     22  O   UNL     1      -2.625  -1.303   5.984  0.00  0.00    -0.153 OA
ATOM     23  O   UNL     1      -0.406  -1.871   5.006  0.00  0.00    -0.153 OA
BRANCH  21  24
ATOM     24  C   UNL     1      -0.909   0.562   5.622  0.00  0.00    +0.142 A 
ATOM     25  C   UNL     1       0.387   1.041   5.404  0.00  0.00    +0.162 A 
ATOM     26  N   UNL     1       0.469   2.244   5.913  0.00  0.00    -0.178 NA
ATOM     27  N   UNL     1      -0.774   2.568   6.472  0.00  0.00    -0.273 N 
ATOM     28  C   UNL     1      -1.603   1.522   6.276  0.00  0.00    +0.136 A 
ATOM     29  C   UNL     1      -1.114   3.824   7.146  0.00  0.00    +0.172 C 
ENDBRANCH  21  24
ENDBRANCH  19  21
ENDBRANCH  18  19
ENDBRANCH   2  18
TORSDOF 9
