REMARK  Name = ZINC42181382
REMARK  10 active torsions:
REMARK  status: ('A' for Active; 'I' for Inactive)
REMARK    1  A    between atoms: C_1  and  C_2
REMARK    2  A    between atoms: C_6  and  C_29
REMARK    3  A    between atoms: C_7  and  O_8
REMARK    4  A    between atoms: O_8  and  C_9
REMARK    5  A    between atoms: C_9  and  C_10
REMARK    6  A    between atoms: C_10  and  N_11
REMARK    7  A    between atoms: C_14  and  C_18
REMARK    8  A    between atoms: C_14  and  C_19
REMARK    9  A    between atoms: C_22  and  S_25
REMARK   10  A    between atoms: S_25  and  C_28
REMARK                            x       y       z     vdW  Elec       q    Type
REMARK                         _______ _______ _______ _____ _____    ______ ____
ROOT
ATOM      1  N   UNL     1      -0.420   2.321   4.004  0.00  0.00    -0.221 N 
ATOM      2  C   UNL     1       0.911   2.529   3.967  0.00  0.00    +0.251 C 
ATOM      3  O   UNL     1       1.786   1.708   4.144  0.00  0.00    -0.272 OA
ATOM      4  C   UNL     1       1.087   4.002   3.657  0.00  0.00    +0.135 C 
ATOM      5  N   UNL     1      -0.295   4.500   3.544  0.00  0.00    -0.281 N 
ATOM      6  C   UNL     1      -1.102   3.445   3.758  0.00  0.00    +0.310 C 
ATOM      7  O   UNL     1      -2.316   3.507   3.733  0.00  0.00    -0.252 OA
ATOM      8  C   UNL     1       1.835   4.188   2.335  0.00  0.00    +0.047 C 
ATOM      9  H   UNL     1      -0.569   5.410   3.351  0.00  0.00    +0.152 HD
ENDROOT
BRANCH   4  10
ATOM     10  C   UNL     1       1.811   4.697   4.780  0.00  0.00    -0.015 A 
ATOM     11  C   UNL     1       2.730   4.003   5.545  0.00  0.00    +0.008 A 
ATOM     12  C   UNL     1       3.394   4.641   6.576  0.00  0.00    +0.027 A 
ATOM     13  C   UNL     1       3.140   5.973   6.841  0.00  0.00    +0.088 A 
ATOM     14  C   UNL     1       2.222   6.668   6.076  0.00  0.00    +0.027 A 
ATOM     15  C   UNL     1       1.561   6.031   5.043  0.00  0.00    +0.008 A 
BRANCH  13  16
ATOM     16  S   UNL     1       3.986   6.786   8.156  0.00  0.00    -0.006 S 
ATOM     17  O   UNL     1       3.118   7.839   8.550  0.00  0.00    -0.170 OA
ATOM     18  O   UNL     1       4.326   5.749   9.065  0.00  0.00    -0.170 OA
ATOM     19  C   UNL     1       5.487   7.466   7.395  0.00  0.00    +0.200 C 
ENDBRANCH  13  16
ENDBRANCH   4  10
BRANCH   1  20
ATOM     20  C   UNL     1      -1.043   1.022   4.274  0.00  0.00    +0.159 C 
BRANCH  20  21
ATOM     21  C   UNL     1      -1.246   0.270   2.957  0.00  0.00    +0.248 C 
BRANCH  21  22
ATOM     22  O   UNL     1       0.025  -0.033   2.381  0.00  0.00    -0.490 OA
BRANCH  22  29
ATOM     23  C   UNL     1      -0.018   1.503   0.010  0.00  0.00    +0.047 C 
ATOM     24  C   UNL     1       0.002  -0.004   0.002  0.00  0.00    -0.009 A 
ATOM     25  C   UNL     1       0.006  -0.689  -1.198  0.00  0.00    +0.007 A 
ATOM     26  C   UNL     1       0.024  -2.071  -1.206  0.00  0.00    +0.001 A 
ATOM     27  C   UNL     1       0.040  -2.772  -0.014  0.00  0.00    +0.007 A 
ATOM     28  C   UNL     1       0.036  -2.092   1.188  0.00  0.00    -0.009 A 
ATOM     29  C   UNL     1       0.023  -0.705   1.199  0.00  0.00    +0.126 A 
ATOM     30  C   UNL     1       0.052  -2.856   2.487  0.00  0.00    +0.047 C 
ENDBRANCH  22  29
ENDBRANCH  21  22
ENDBRANCH  20  21
ENDBRANCH   1  20
TORSDOF 6
