REMARK  Name = ZINC17359503
REMARK  8 active torsions:
REMARK  status: ('A' for Active; 'I' for Inactive)
REMARK    1  A    between atoms: C_1  and  C_2
REMARK    2  A    between atoms: C_5  and  S_8
REMARK    3  A    between atoms: S_8  and  N_11
REMARK    4  A    between atoms: N_11  and  C_12
REMARK    5  A    between atoms: N_11  and  C_13
REMARK    6  A    between atoms: C_16  and  C_19
REMARK    7  A    between atoms: N_21  and  N_22
REMARK    8  A    between atoms: C_23  and  C_25
REMARK                            x       y       z     vdW  Elec       q    Type
REMARK                         _______ _______ _______ _____ _____    ______ ____
ROOT
ATOM      1  C   UNL     1       0.921  -1.009   0.266  0.00  0.00    +0.051 A 
ATOM      2  C   UNL     1      -0.365  -0.492   0.385  0.00  0.00    +0.025 A 
ATOM      3  C   UNL     1      -0.549   0.849   0.636  0.00  0.00    +0.015 A 
ATOM      4  C   UNL     1       0.558   1.691   0.772  0.00  0.00    +0.038 A 
ATOM      5  C   UNL     1       1.849   1.169   0.651  0.00  0.00    +0.015 A 
ATOM      6  C   UNL     1       2.026  -0.173   0.400  0.00  0.00    +0.025 A 
ENDROOT
BRANCH   4   7
ATOM      7  C   UNL     1       0.365   3.129   1.040  0.00  0.00    +0.260 C 
ATOM      8  O   UNL     1      -0.759   3.582   1.144  0.00  0.00    -0.269 OA
ATOM      9  N   UNL     1       1.433   3.940   1.171  0.00  0.00    -0.230 N 
ATOM     10  H   UNL     1       2.330   3.578   1.087  0.00  0.00    +0.173 HD
BRANCH   9  11
ATOM     11  N   UNL     1       1.250   5.305   1.426  0.00  0.00    -0.230 N 
ATOM     12  C   UNL     1       2.318   6.116   1.556  0.00  0.00    +0.260 C 
ATOM     13  O   UNL     1       3.442   5.663   1.452  0.00  0.00    -0.269 OA
ATOM     14  H   UNL     1       0.353   5.667   1.509  0.00  0.00    +0.173 HD
BRANCH  12  15
ATOM     15  C   UNL     1       2.125   7.555   1.825  0.00  0.00    +0.038 A 
ATOM     16  C   UNL     1       0.835   8.080   1.939  0.00  0.00    +0.016 A 
ATOM     17  C   UNL     1       0.660   9.423   2.196  0.00  0.00    +0.039 A 
ATOM     18  C   UNL     1       1.762  10.255   2.329  0.00  0.00    +0.123 A 
ATOM     19  C   UNL     1       3.044   9.740   2.211  0.00  0.00    +0.039 A 
ATOM     20  C   UNL     1       3.230   8.398   1.960  0.00  0.00    +0.016 A 
ATOM     21  F   UNL     1       1.584  11.571   2.575  0.00  0.00    -0.205 F 
ENDBRANCH  12  15
ENDBRANCH   9  11
ENDBRANCH   4   7
BRANCH   1  22
ATOM     22  N   UNL     1       1.104  -2.364   0.012  0.00  0.00    -0.206 N 
ATOM     23  C   UNL     1       0.082  -3.330   0.423  0.00  0.00    +0.157 C 
BRANCH  22  24
ATOM     24  S   UNL     1       2.476  -2.886  -0.754  0.00  0.00    +0.074 S 
ATOM     25  O   UNL     1       2.145  -4.114  -1.388  0.00  0.00    -0.150 OA
ATOM     26  O   UNL     1       2.989  -1.772  -1.472  0.00  0.00    -0.150 OA
BRANCH  24  31
ATOM     27  C   UNL     1       6.524  -4.191   3.526  0.00  0.00    +0.044 C 
ATOM     28  C   UNL     1       5.513  -3.865   2.457  0.00  0.00    -0.050 A 
ATOM     29  C   UNL     1       4.556  -4.798   2.102  0.00  0.00    +0.005 A 
ATOM     30  C   UNL     1       3.629  -4.499   1.122  0.00  0.00    +0.029 A 
ATOM     31  C   UNL     1       3.658  -3.267   0.496  0.00  0.00    +0.109 A 
ATOM     32  C   UNL     1       4.617  -2.336   0.847  0.00  0.00    +0.029 A 
ATOM     33  C   UNL     1       5.542  -2.633   1.831  0.00  0.00    +0.005 A 
ENDBRANCH  24  31
ENDBRANCH  22  24
ENDBRANCH   1  22
TORSDOF 6
