REMARK  Name = ZINC20884976
REMARK  8 active torsions:
REMARK  status: ('A' for Active; 'I' for Inactive)
REMARK    1  A    between atoms: C_1  and  C_2
REMARK    2  A    between atoms: C_2  and  C_3
REMARK    3  A    between atoms: C_2  and  C_4
REMARK    4  A    between atoms: C_4  and  O_5
REMARK    5  A    between atoms: O_5  and  C_6
REMARK    6  A    between atoms: C_9  and  C_12
REMARK    7  A    between atoms: C_17  and  C_23
REMARK    8  A    between atoms: C_26  and  C_29
REMARK                            x       y       z     vdW  Elec       q    Type
REMARK                         _______ _______ _______ _____ _____    ______ ____
ROOT
ATOM      1  C   UNL     1      -5.394  -0.031   5.430  0.00  0.00    +0.032 C 
ATOM      2  C   UNL     1      -6.055   1.291   5.033  0.00  0.00    +0.059 C 
ATOM      3  C   UNL     1      -4.996   2.286   4.628  0.00  0.00    +0.018 C 
ATOM      4  C   UNL     1      -3.764   2.248   5.179  0.00  0.00    +0.020 C 
ATOM      5  C   UNL     1      -2.722   3.259   4.764  0.00  0.00    +0.063 C 
ATOM      6  C   UNL     1      -3.400   4.598   4.473  0.00  0.00    +0.109 C 
ATOM      7  C   UNL     1      -4.588   4.364   3.575  0.00  0.00    +0.218 C 
ATOM      8  O   UNL     1      -4.897   5.198   2.751  0.00  0.00    -0.275 OA
ATOM      9  N   UNL     1      -5.307   3.234   3.687  0.00  0.00    -0.289 N 
ATOM     10  C   UNL     1      -3.422   1.280   6.139  0.00  0.00    +0.162 C 
ATOM     11  O   UNL     1      -2.307   1.285   6.622  0.00  0.00    -0.292 OA
ATOM     12  C   UNL     1      -4.415   0.238   6.578  0.00  0.00    +0.088 C 
ATOM     13  H   UNL     1      -6.157   3.076   3.007  0.00  0.00    +0.155 HD
ENDROOT
BRANCH   1  17
ATOM     14  C   UNL     1      -8.377  -2.811   6.710  0.00  0.00    +0.121 A 
ATOM     15  C   UNL     1      -7.553  -3.120   5.637  0.00  0.00    +0.046 A 
ATOM     16  C   UNL     1      -6.590  -2.219   5.225  0.00  0.00    +0.007 A 
ATOM     17  C   UNL     1      -6.446  -1.011   5.881  0.00  0.00    -0.043 A 
ATOM     18  C   UNL     1      -7.261  -0.703   6.955  0.00  0.00    +0.007 A 
ATOM     19  C   UNL     1      -8.230  -1.598   7.367  0.00  0.00    +0.046 A 
BRANCH  14  20
ATOM     20  O   UNL     1      -9.325  -3.695   7.117  0.00  0.00    -0.492 OA
BRANCH  20  21
ATOM     21  C   UNL     1     -10.136  -3.311   8.229  0.00  0.00    +0.232 C 
BRANCH  21  23
ATOM     22  C   UNL     1     -11.922  -4.068   9.803  0.00  0.00    +0.010 C 
ATOM     23  C   UNL     1     -11.138  -4.425   8.539  0.00  0.00    +0.020 C 
ATOM     24  C   UNL     1     -12.107  -4.581   7.365  0.00  0.00    +0.010 C 
ENDBRANCH  21  23
ENDBRANCH  20  21
ENDBRANCH  14  20
ENDBRANCH   1  17
BRANCH   5  25
ATOM     25  C   UNL     1      -2.016   2.773   3.524  0.00  0.00    -0.039 A 
ATOM     26  C   UNL     1      -0.650   2.561   3.544  0.00  0.00    +0.005 A 
ATOM     27  C   UNL     1      -0.003   2.115   2.407  0.00  0.00    +0.012 A 
ATOM     28  C   UNL     1      -0.722   1.881   1.250  0.00  0.00    +0.055 A 
ATOM     29  C   UNL     1      -2.087   2.098   1.228  0.00  0.00    +0.012 A 
ATOM     30  C   UNL     1      -2.735   2.539   2.367  0.00  0.00    +0.005 A 
BRANCH  28  31
ATOM     31  C   UNL     1      -0.017   1.395   0.010  0.00  0.00    +0.417 C 
ATOM     32  F   UNL     1       0.002  -0.004   0.002  0.00  0.00    -0.166 F 
ATOM     33  F   UNL     1       1.296   1.879  -0.000  0.00  0.00    -0.166 F 
ATOM     34  F   UNL     1      -0.694   1.858  -1.124  0.00  0.00    -0.166 F 
ENDBRANCH  28  31
ENDBRANCH   5  25
TORSDOF 6
