REMARK  Name = ZINC00058117
REMARK  5 active torsions:
REMARK  status: ('A' for Active; 'I' for Inactive)
REMARK    1  A    between atoms: C_3  and  O_22
REMARK    2  A    between atoms: C_4  and  O_21
REMARK    3  A    between atoms: C_6  and  C_7
REMARK    4  A    between atoms: C_13  and  O_20
REMARK    5  A    between atoms: C_15  and  O_19
REMARK                            x       y       z     vdW  Elec       q    Type
REMARK                         _______ _______ _______ _____ _____    ______ ____
ROOT
ATOM      1  C   UNL     1      -1.294  -0.774   0.010  0.00  0.00    +0.211 C 
ATOM      2  C   UNL     1      -1.813  -0.918  -1.428  0.00  0.00    +0.129 C 
ATOM      3  C   UNL     1      -3.132  -1.667  -1.356  0.00  0.00    +0.174 C 
ATOM      4  O   UNL     1      -3.427  -2.517  -2.170  0.00  0.00    -0.292 OA
ATOM      5  C   UNL     1      -4.030  -1.311  -0.252  0.00  0.00    +0.101 A 
ATOM      6  C   UNL     1      -5.362  -1.754  -0.241  0.00  0.00    +0.134 A 
ATOM      7  C   UNL     1      -6.184  -1.414   0.818  0.00  0.00    +0.091 A 
ATOM      8  C   UNL     1      -5.692  -0.638   1.861  0.00  0.00    +0.124 A 
ATOM      9  C   UNL     1      -4.376  -0.193   1.853  0.00  0.00    +0.092 A 
ATOM     10  C   UNL     1      -3.537  -0.519   0.802  0.00  0.00    +0.139 A 
ATOM     11  O   UNL     1      -2.259  -0.073   0.794  0.00  0.00    -0.483 OA
ENDROOT
BRANCH   1  17
ATOM     12  C   UNL     1      -0.017   1.378   0.010  0.00  0.00    +0.011 A 
ATOM     13  C   UNL     1       1.170   2.089   0.002  0.00  0.00    +0.049 A 
ATOM     14  C   UNL     1       2.380   1.415  -0.013  0.00  0.00    +0.158 A 
ATOM     15  C   UNL     1       2.399   0.024  -0.021  0.00  0.00    +0.159 A 
ATOM     16  C   UNL     1       1.207  -0.682  -0.013  0.00  0.00    +0.056 A 
ATOM     17  C   UNL     1       0.002  -0.004   0.002  0.00  0.00    -0.003 A 
BRANCH  15  18
ATOM     18  O   UNL     1       3.585  -0.642  -0.036  0.00  0.00    -0.503 OA
ATOM     19  H   UNL     1       3.937  -0.839   0.843  0.00  0.00    +0.292 HD
ENDBRANCH  15  18
BRANCH  14  20
ATOM     20  O   UNL     1       3.548   2.113  -0.021  0.00  0.00    -0.503 OA
ATOM     21  H   UNL     1       3.894   2.310   0.860  0.00  0.00    +0.292 HD
ENDBRANCH  14  20
ENDBRANCH   1  17
BRANCH   8  22
ATOM     22  O   UNL     1      -6.505  -0.312   2.897  0.00  0.00    -0.507 OA
ATOM     23  H   UNL     1      -6.490  -0.950   3.624  0.00  0.00    +0.292 HD
ENDBRANCH   8  22
BRANCH   6  24
ATOM     24  O   UNL     1      -5.839  -2.508  -1.262  0.00  0.00    -0.506 OA
ATOM     25  H   UNL     1      -5.731  -3.460  -1.131  0.00  0.00    +0.292 HD
ENDBRANCH   6  24
TORSDOF 5
