REMARK  Name = ZINC09216812
REMARK  7 active torsions:
REMARK  status: ('A' for Active; 'I' for Inactive)
REMARK    1  A    between atoms: C_1  and  C_2
REMARK    2  A    between atoms: C_2  and  C_4
REMARK    3  A    between atoms: C_2  and  N_13
REMARK    4  A    between atoms: C_14  and  C_16
REMARK    5  A    between atoms: C_16  and  S_17
REMARK    6  A    between atoms: S_17  and  C_18
REMARK    7  A    between atoms: C_22  and  C_24
REMARK                            x       y       z     vdW  Elec       q    Type
REMARK                         _______ _______ _______ _____ _____    ______ ____
ROOT
ATOM      1  N   UNL     1      -0.011   0.966   0.007  0.00  0.00    -0.305 N 
ATOM      2  C   UNL     1      -1.187   1.624   0.017  0.00  0.00    +0.224 C 
ATOM      3  O   UNL     1      -1.204   2.837   0.023  0.00  0.00    -0.275 OA
ATOM      4  H   UNL     1       0.002  -0.004   0.002  0.00  0.00    +0.149 HD
ENDROOT
BRANCH   1   6
ATOM      5  C   UNL     1       1.608   2.092  -1.439  0.00  0.00    +0.036 C 
ATOM      6  C   UNL     1       1.248   1.716  -0.001  0.00  0.00    +0.136 C 
BRANCH   6   7
ATOM      7  C   UNL     1       2.344   0.863   0.585  0.00  0.00    +0.126 A 
ATOM      8  C   UNL     1       3.306   1.307   1.405  0.00  0.00    +0.055 A 
ATOM      9  C   UNL     1       4.143   0.144   1.722  0.00  0.00    +0.020 A 
ATOM     10  C   UNL     1       5.279  -0.056   2.505  0.00  0.00    +0.011 A 
ATOM     11  C   UNL     1       5.831  -1.303   2.592  0.00  0.00    +0.001 A 
ATOM     12  C   UNL     1       5.270  -2.370   1.905  0.00  0.00    +0.004 A 
ATOM     13  C   UNL     1       4.147  -2.192   1.126  0.00  0.00    +0.047 A 
ATOM     14  C   UNL     1       3.569  -0.932   1.024  0.00  0.00    +0.135 A 
ATOM     15  O   UNL     1       2.495  -0.455   0.364  0.00  0.00    -0.458 OA
ENDBRANCH   6   7
ENDBRANCH   1   6
BRANCH   2  16
ATOM     16  C   UNL     1      -2.482   0.853   0.018  0.00  0.00    +0.173 C 
BRANCH  16  17
ATOM     17  S   UNL     1      -3.874   2.010   0.031  0.00  0.00    -0.077 S 
BRANCH  17  18
ATOM     18  C   UNL     1      -5.218   0.872   0.032  0.00  0.00    +0.185 A 
ATOM     19  N   UNL     1      -6.532   1.193   0.045  0.00  0.00    -0.253 N 
ATOM     20  H   UNL     1      -6.910   2.086   0.056  0.00  0.00    +0.191 HD
ATOM     21  N   UNL     1      -7.239  -0.019   0.036  0.00  0.00    -0.152 NA
ATOM     22  C   UNL     1      -6.346  -0.983   0.027  0.00  0.00    +0.182 A 
ATOM     23  N   UNL     1      -5.120  -0.440   0.024  0.00  0.00    -0.201 NA
BRANCH  22  24
ATOM     24  C   UNL     1      -6.646  -2.436   0.021  0.00  0.00    +0.024 A 
ATOM     25  C   UNL     1      -5.616  -3.381   0.005  0.00  0.00    +0.031 A 
ATOM     26  C   UNL     1      -5.939  -4.723   0.004  0.00  0.00    +0.111 A 
ATOM     27  N   UNL     1      -7.198  -5.117   0.008  0.00  0.00    -0.263 NA
ATOM     28  C   UNL     1      -8.199  -4.257   0.018  0.00  0.00    +0.111 A 
ATOM     29  C   UNL     1      -7.965  -2.898   0.024  0.00  0.00    +0.031 A 
ENDBRANCH  22  24
ENDBRANCH  17  18
ENDBRANCH  16  17
ENDBRANCH   2  16
TORSDOF 6
