REMARK  Name = ZINC28056133
REMARK  9 active torsions:
REMARK  status: ('A' for Active; 'I' for Inactive)
REMARK    1  A    between atoms: C_1  and  C_2
REMARK    2  A    between atoms: C_2  and  O_3
REMARK    3  A    between atoms: O_3  and  C_4
REMARK    4  A    between atoms: C_7  and  C_12
REMARK    5  A    between atoms: C_9  and  O_10
REMARK    6  A    between atoms: O_10  and  C_11
REMARK    7  A    between atoms: C_30  and  C_32
REMARK    8  A    between atoms: C_35  and  O_38
REMARK    9  A    between atoms: O_38  and  C_39
REMARK                            x       y       z     vdW  Elec       q    Type
REMARK                         _______ _______ _______ _____ _____    ______ ____
ROOT
ATOM      1  C   UNL     1       0.206   6.050  -0.474  0.00  0.00    +0.234 C 
ATOM      2  C   UNL     1      -0.873   6.420  -1.465  0.00  0.00    +0.025 C 
ATOM      3  C   UNL     1      -1.654   7.474  -1.215  0.00  0.00    +0.050 C 
ATOM      4  C   UNL     1      -1.413   8.252   0.024  0.00  0.00    +0.039 A 
ATOM      5  C   UNL     1      -2.364   9.132   0.526  0.00  0.00    +0.033 A 
ATOM      6  C   UNL     1      -2.095   9.837   1.684  0.00  0.00    +0.042 A 
ATOM      7  C   UNL     1      -0.886   9.669   2.340  0.00  0.00    +0.023 A 
ATOM      8  C   UNL     1       0.065   8.795   1.845  0.00  0.00    +0.048 A 
ATOM      9  C   UNL     1      -0.191   8.083   0.689  0.00  0.00    +0.131 A 
ATOM     10  O   UNL     1       0.717   7.216   0.173  0.00  0.00    -0.479 OA
ATOM     11 CL   UNL     1      -3.277  10.938   2.320  0.00  0.00    -0.084 Cl
ATOM     12  N   UNL     1      -2.688   7.860  -2.075  0.00  0.00    -0.282 N 
ATOM     13  C   UNL     1      -3.058   6.965  -3.066  0.00  0.00    +0.240 A 
ATOM     14  N   UNL     1      -4.098   6.932  -3.849  0.00  0.00    -0.092 NA
ATOM     15  N   UNL     1      -4.040   5.903  -4.624  0.00  0.00    -0.021 NA
ATOM     16  N   UNL     1      -2.967   5.220  -4.388  0.00  0.00    -0.042 NA
ATOM     17  N   UNL     1      -2.288   5.888  -3.369  0.00  0.00    -0.201 N 
ATOM     18  C   UNL     1      -1.026   5.581  -2.710  0.00  0.00    +0.174 C 
ATOM     19  H   UNL     1      -3.172   8.840  -1.950  0.00  0.00    +0.155 HD
ENDROOT
BRANCH   1  23
ATOM     20  C   UNL     1      -1.427   3.411   2.468  0.00  0.00    +0.162 A 
ATOM     21  C   UNL     1      -1.701   4.769   2.522  0.00  0.00    +0.050 A 
ATOM     22  C   UNL     1      -1.171   5.619   1.570  0.00  0.00    +0.011 A 
ATOM     23  C   UNL     1      -0.368   5.119   0.562  0.00  0.00    +0.001 A 
ATOM     24  C   UNL     1      -0.086   3.766   0.505  0.00  0.00    +0.057 A 
ATOM     25  C   UNL     1      -0.619   2.908   1.453  0.00  0.00    +0.162 A 
BRANCH  25  26
ATOM     26  O   UNL     1      -0.348   1.576   1.395  0.00  0.00    -0.491 OA
ATOM     27  C   UNL     1       0.489   1.130   0.327  0.00  0.00    +0.277 C 
ENDBRANCH  25  26
BRANCH  20  28
ATOM     28  O   UNL     1      -1.948   2.573   3.404  0.00  0.00    -0.489 OA
BRANCH  28  30
ATOM     29  C   UNL     1      -3.258   2.070   5.371  0.00  0.00    +0.048 C 
ATOM     30  C   UNL     1      -2.768   3.160   4.416  0.00  0.00    +0.226 C 
ENDBRANCH  28  30
ENDBRANCH  20  28
ENDBRANCH   1  23
BRANCH  18  31
ATOM     31  C   UNL     1       0.113   5.873  -3.652  0.00  0.00    -0.018 A 
ATOM     32  C   UNL     1       0.289   7.152  -4.148  0.00  0.00    +0.009 A 
ATOM     33  C   UNL     1       1.336   7.423  -5.007  0.00  0.00    +0.046 A 
ATOM     34  C   UNL     1       2.204   6.409  -5.383  0.00  0.00    +0.120 A 
ATOM     35  C   UNL     1       2.023   5.125  -4.888  0.00  0.00    +0.046 A 
ATOM     36  C   UNL     1       0.978   4.860  -4.024  0.00  0.00    +0.009 A 
BRANCH  34  37
ATOM     37  O   UNL     1       3.231   6.672  -6.233  0.00  0.00    -0.495 OA
ATOM     38  C   UNL     1       3.357   8.016  -6.702  0.00  0.00    +0.277 C 
ENDBRANCH  34  37
ENDBRANCH  18  31
TORSDOF 6
