REMARK  Name = ZINC13040626
REMARK  10 active torsions:
REMARK  status: ('A' for Active; 'I' for Inactive)
REMARK    1  A    between atoms: C_1  and  C_2
REMARK    2  A    between atoms: C_5  and  C_26
REMARK    3  A    between atoms: C_6  and  S_9
REMARK    4  A    between atoms: S_9  and  N_12
REMARK    5  A    between atoms: N_12  and  C_13
REMARK    6  A    between atoms: C_18  and  C_19
REMARK    7  A    between atoms: N_21  and  C_22
REMARK    8  A    between atoms: C_22  and  C_23
REMARK    9  A    between atoms: C_23  and  C_24
REMARK   10  A    between atoms: C_23  and  C_25
REMARK                            x       y       z     vdW  Elec       q    Type
REMARK                         _______ _______ _______ _____ _____    ______ ____
ROOT
ATOM      1  N   UNL     1      -3.709   2.938   0.035  0.00  0.00    -0.215 N 
ATOM      2  H   UNL     1      -3.648   3.418   0.876  0.00  0.00    +0.174 HD
ENDROOT
BRANCH   1   3
ATOM      3  C   UNL     1      -3.778   1.551   0.030  0.00  0.00    +0.060 A 
ATOM      4  C   UNL     1      -5.011   0.913  -0.035  0.00  0.00    +0.025 A 
ATOM      5  C   UNL     1      -5.076  -0.465  -0.040  0.00  0.00    +0.002 A 
ATOM      6  C   UNL     1      -3.917  -1.223   0.020  0.00  0.00    +0.001 A 
ATOM      7  C   UNL     1      -2.686  -0.608   0.079  0.00  0.00    +0.015 A 
ATOM      8  C   UNL     1      -2.603   0.787   0.091  0.00  0.00    +0.059 A 
BRANCH   8   9
ATOM      9  C   UNL     1      -1.288   1.451   0.160  0.00  0.00    +0.246 C 
ATOM     10  O   UNL     1      -1.220   2.665   0.165  0.00  0.00    -0.270 OA
ATOM     11  N   UNL     1      -0.162   0.713   0.218  0.00  0.00    -0.311 N 
ATOM     12  H   UNL     1      -0.217  -0.256   0.214  0.00  0.00    +0.149 HD
BRANCH  11  13
ATOM     13  C   UNL     1       1.144   1.373   0.281  0.00  0.00    +0.107 C 
BRANCH  13  14
ATOM     14  C   UNL     1       2.248   0.315   0.331  0.00  0.00    -0.000 C 
ATOM     15  C   UNL     1       3.615   1.000   0.271  0.00  0.00    +0.009 C 
ATOM     16  C   UNL     1       2.133  -0.480   1.633  0.00  0.00    +0.009 C 
ENDBRANCH  13  14
ENDBRANCH  11  13
ENDBRANCH   8   9
ENDBRANCH   1   3
BRANCH   1  17
ATOM     17  S   UNL     1      -3.733   3.774  -1.395  0.00  0.00    +0.074 S 
ATOM     18  O   UNL     1      -3.667   5.153  -1.060  0.00  0.00    -0.150 OA
ATOM     19  O   UNL     1      -2.780   3.150  -2.245  0.00  0.00    -0.150 OA
BRANCH  17  25
ATOM     20  C   UNL     1      -6.957   1.066  -4.495  0.00  0.00    +0.045 C 
ATOM     21  C   UNL     1      -6.746   2.230  -3.561  0.00  0.00    -0.029 A 
ATOM     22  C   UNL     1      -7.793   3.088  -3.280  0.00  0.00    +0.025 A 
ATOM     23  C   UNL     1      -7.599   4.156  -2.422  0.00  0.00    +0.046 A 
ATOM     24  C   UNL     1      -6.358   4.365  -1.846  0.00  0.00    -0.004 A 
ATOM     25  C   UNL     1      -5.313   3.507  -2.128  0.00  0.00    +0.131 A 
ATOM     26  C   UNL     1      -5.505   2.442  -2.990  0.00  0.00    +0.071 A 
ATOM     27 CL   UNL     1      -4.189   1.368  -3.349  0.00  0.00    -0.081 Cl
ATOM     28  C   UNL     1      -6.148   5.529  -0.912  0.00  0.00    +0.047 C 
ATOM     29 CL   UNL     1      -8.913   5.234  -2.069  0.00  0.00    -0.083 Cl
ENDBRANCH  17  25
ENDBRANCH   1  17
TORSDOF 6
