REMARK  Name = ZINC39502334
REMARK  6 active torsions:
REMARK  status: ('A' for Active; 'I' for Inactive)
REMARK    1  A    between atoms: C_1  and  C_2
REMARK    2  A    between atoms: C_7  and  N_8
REMARK    3  A    between atoms: C_18  and  S_19
REMARK    4  A    between atoms: S_19  and  C_20
REMARK    5  A    between atoms: C_20  and  C_21
REMARK    6  A    between atoms: C_21  and  C_23
REMARK                            x       y       z     vdW  Elec       q    Type
REMARK                         _______ _______ _______ _____ _____    ______ ____
ROOT
ATOM      1  N   UNL     1       0.025  -0.014   2.418  0.00  0.00    -0.255 N 
ATOM      2  C   UNL     1      -1.148   0.297   3.016  0.00  0.00    +0.267 A 
ATOM      3  O   UNL     1      -2.213  -0.014   2.515  0.00  0.00    -0.267 OA
ATOM      4  C   UNL     1      -1.090   1.023   4.292  0.00  0.00    +0.065 A 
ATOM      5  C   UNL     1      -2.244   1.387   4.985  0.00  0.00    +0.015 A 
ATOM      6  C   UNL     1      -2.133   2.061   6.170  0.00  0.00    +0.001 A 
ATOM      7  C   UNL     1      -0.886   2.386   6.688  0.00  0.00    +0.002 A 
ATOM      8  C   UNL     1       0.261   2.041   6.029  0.00  0.00    +0.028 A 
ATOM      9  C   UNL     1       0.181   1.351   4.816  0.00  0.00    +0.079 A 
ATOM     10  N   UNL     1       1.291   0.990   4.131  0.00  0.00    -0.223 NA
ATOM     11  C   UNL     1       1.214   0.337   2.997  0.00  0.00    +0.177 A 
ENDROOT
BRANCH   1  18
ATOM     12  C   UNL     1      -0.018   1.503   0.010  0.00  0.00    +0.046 C 
ATOM     13  C   UNL     1       0.002  -0.004   0.002  0.00  0.00    -0.026 A 
ATOM     14  C   UNL     1       0.006  -0.689  -1.198  0.00  0.00    +0.005 A 
ATOM     15  C   UNL     1       0.024  -2.071  -1.206  0.00  0.00    +0.000 A 
ATOM     16  C   UNL     1       0.039  -2.773  -0.014  0.00  0.00    +0.002 A 
ATOM     17  C   UNL     1       0.035  -2.094   1.188  0.00  0.00    +0.026 A 
ATOM     18  C   UNL     1       0.023  -0.705   1.200  0.00  0.00    +0.055 A 
ENDBRANCH   1  18
BRANCH  11  19
ATOM     19  S   UNL     1       2.710  -0.101   2.176  0.00  0.00    -0.079 S 
BRANCH  19  20
ATOM     20  C   UNL     1       4.011   0.542   3.264  0.00  0.00    +0.156 C 
BRANCH  20  21
ATOM     21  C   UNL     1       5.361   0.230   2.671  0.00  0.00    +0.172 C 
ATOM     22  O   UNL     1       5.438  -0.368   1.617  0.00  0.00    -0.291 OA
BRANCH  21  23
ATOM     23  C   UNL     1       6.536   0.632   3.341  0.00  0.00    +0.024 C 
ATOM     24  C   UNL     1       7.843   0.431   2.932  0.00  0.00    +0.006 A 
ATOM     25  C   UNL     1       8.411  -0.195   1.798  0.00  0.00    +0.010 A 
ATOM     26  C   UNL     1       9.753  -0.249   1.650  0.00  0.00    +0.001 A 
ATOM     27  C   UNL     1      10.638   0.300   2.592  0.00  0.00    +0.002 A 
ATOM     28  C   UNL     1      10.198   0.920   3.709  0.00  0.00    +0.026 A 
ATOM     29  C   UNL     1       8.749   1.023   3.947  0.00  0.00    +0.043 A 
ATOM     30  N   UNL     1       8.063   1.554   4.918  0.00  0.00    -0.380 N 
ATOM     31  C   UNL     1       6.631   1.380   4.652  0.00  0.00    +0.152 C 
ATOM     32  H   UNL     1       8.440   1.999   5.693  0.00  0.00    +0.160 HD
ENDBRANCH  21  23
ENDBRANCH  20  21
ENDBRANCH  19  20
ENDBRANCH  11  19
TORSDOF 5
