REMARK  Name = ZINC12100037
REMARK  6 active torsions:
REMARK  status: ('A' for Active; 'I' for Inactive)
REMARK    1  A    between atoms: C_1  and  C_2
REMARK    2  A    between atoms: C_2  and  C_3
REMARK    3  A    between atoms: C_3  and  C_4
REMARK    4  A    between atoms: C_4  and  C_5
REMARK    5  A    between atoms: C_17  and  C_19
REMARK    6  A    between atoms: C_22  and  C_28
REMARK                            x       y       z     vdW  Elec       q    Type
REMARK                         _______ _______ _______ _____ _____    ______ ____
ROOT
ATOM      1  C   UNL     1       1.472  -5.474   0.222  0.00  0.00    +0.191 C 
ATOM      2  C   UNL     1       1.780  -4.339   1.187  0.00  0.00    +0.152 C 
ATOM      3  N   UNL     1       1.950  -3.071   0.477  0.00  0.00    -0.292 N 
ATOM      4  C   UNL     1       3.045  -2.899  -0.484  0.00  0.00    +0.146 C 
ATOM      5  C   UNL     1       2.654  -3.538  -1.795  0.00  0.00    +0.012 A 
ATOM      6  C   UNL     1       2.519  -2.777  -2.935  0.00  0.00    +0.009 A 
ATOM      7  C   UNL     1       2.250  -3.396  -4.144  0.00  0.00    +0.001 A 
ATOM      8  C   UNL     1       2.118  -4.772  -4.202  0.00  0.00    +0.004 A 
ATOM      9  C   UNL     1       2.233  -5.532  -3.055  0.00  0.00    +0.046 A 
ATOM     10  C   UNL     1       2.485  -4.914  -1.838  0.00  0.00    +0.126 A 
ATOM     11  O   UNL     1       2.555  -5.647  -0.699  0.00  0.00    -0.487 OA
ATOM     12  C   UNL     1       1.091  -2.056   0.703  0.00  0.00    +0.236 C 
ATOM     13  O   UNL     1       0.182  -2.196   1.492  0.00  0.00    -0.274 OA
ENDROOT
BRANCH  12  14
ATOM     14  C   UNL     1       1.262  -0.748  -0.026  0.00  0.00    +0.160 C 
ATOM     15  C   UNL     1       2.352   0.082   0.660  0.00  0.00    +0.053 C 
ATOM     16  C   UNL     1       2.427   1.450  -0.026  0.00  0.00    +0.071 C 
ATOM     17  N   UNL     1       1.104   2.075   0.003  0.00  0.00    -0.324 N 
ATOM     18  C   UNL     1      -0.016   1.337   0.009  0.00  0.00    +0.131 C 
ATOM     19  S   UNL     1      -1.529   2.139   0.021  0.00  0.00    -0.019 S 
ATOM     20  N   UNL     1       0.002  -0.004   0.002  0.00  0.00    -0.315 N 
ATOM     21  C   UNL     1       2.877   1.271  -1.477  0.00  0.00    +0.028 C 
ATOM     22  H   UNL     1       1.035   3.043   0.017  0.00  0.00    +0.148 HD
ATOM     23  H   UNL     1      -0.837  -0.491   0.015  0.00  0.00    +0.148 HD
ENDBRANCH  12  14
BRANCH   1  24
ATOM     24  C   UNL     1       1.266  -6.769   1.011  0.00  0.00    +0.046 C 
BRANCH  24  25
ATOM     25  C   UNL     1       0.834  -7.884   0.057  0.00  0.00    +0.003 C 
BRANCH  25  27
ATOM     26  C   UNL     1       0.196 -10.294  -0.108  0.00  0.00    +0.004 C 
ATOM     27  C   UNL     1       0.628  -9.179   0.846  0.00  0.00    -0.003 C 
ENDBRANCH  25  27
ENDBRANCH  24  25
ENDBRANCH   1  24
TORSDOF 4
