REMARK  Name = ZINC21327517
REMARK  8 active torsions:
REMARK  status: ('A' for Active; 'I' for Inactive)
REMARK    1  A    between atoms: C_1  and  C_2
REMARK    2  A    between atoms: C_5  and  N_9
REMARK    3  A    between atoms: C_6  and  C_8
REMARK    4  A    between atoms: C_10  and  C_12
REMARK    5  A    between atoms: C_12  and  S_13
REMARK    6  A    between atoms: S_13  and  C_14
REMARK    7  A    between atoms: N_18  and  N_19
REMARK    8  A    between atoms: N_20  and  N_21
REMARK                            x       y       z     vdW  Elec       q    Type
REMARK                         _______ _______ _______ _____ _____    ______ ____
ROOT
ATOM      1  C   UNL     1      -6.504   1.947  -0.417  0.00  0.00    +0.210 A 
ATOM      2  N   UNL     1      -6.529   3.259  -0.405  0.00  0.00    -0.119 NA
ATOM      3  N   UNL     1      -7.864   3.668  -0.518  0.00  0.00    -0.109 NA
ATOM      4  C   UNL     1      -8.612   2.594  -0.587  0.00  0.00    +0.254 A 
ATOM      5  N   UNL     1      -7.791   1.502  -0.526  0.00  0.00    -0.211 N 
ATOM      6  N   UNL     1      -9.995   2.569  -0.702  0.00  0.00    -0.204 N 
ATOM      7  H   UNL     1     -10.526   1.607  -0.751  0.00  0.00    +0.177 HD
ENDROOT
BRANCH   6   8
ATOM      8  N   UNL     1     -10.716   3.769  -0.753  0.00  0.00    -0.189 NA
ATOM      9  C   UNL     1     -11.991   3.747  -0.859  0.00  0.00    +0.037 C 
ATOM     10  C   UNL     1     -12.863   2.511  -0.946  0.00  0.00    +0.052 C 
ATOM     11  C   UNL     1     -14.321   2.999  -1.066  0.00  0.00    +0.006 C 
ATOM     12  C   UNL     1     -14.181   4.431  -1.643  0.00  0.00    +0.006 C 
ATOM     13  C   UNL     1     -12.910   4.953  -0.927  0.00  0.00    +0.052 C 
ENDBRANCH   6   8
BRANCH   5  14
ATOM     14  N   UNL     1      -8.188   0.196  -0.568  0.00  0.00    -0.294 N 
ATOM     15  H   UNL     1      -9.256  -0.052  -0.658  0.00  0.00    +0.163 HD
ATOM     16  H   UNL     1      -7.440  -0.608  -0.512  0.00  0.00    +0.163 HD
ENDBRANCH   5  14
BRANCH   1  17
ATOM     17  S   UNL     1      -5.065   0.937  -0.304  0.00  0.00    -0.075 S 
BRANCH  17  18
ATOM     18  C   UNL     1      -3.702   2.128  -0.184  0.00  0.00    +0.173 C 
BRANCH  18  20
ATOM     19  N   UNL     1      -1.237   2.069   0.019  0.00  0.00    -0.285 N 
ATOM     20  C   UNL     1      -2.394   1.385  -0.081  0.00  0.00    +0.227 C 
ATOM     21  O   UNL     1      -2.383   0.173  -0.088  0.00  0.00    -0.275 OA
ATOM     22  H   UNL     1      -1.252   3.166   0.100  0.00  0.00    +0.155 HD
BRANCH  19  27
ATOM     23  C   UNL     1       3.704  -0.717   0.009  0.00  0.00    +0.044 C 
ATOM     24  C   UNL     1       2.392   0.024   0.013  0.00  0.00    -0.050 A 
ATOM     25  C   UNL     1       1.282  -0.542   0.613  0.00  0.00    +0.005 A 
ATOM     26  C   UNL     1       0.078   0.134   0.619  0.00  0.00    +0.024 A 
ATOM     27  C   UNL     1      -0.017   1.384   0.021  0.00  0.00    +0.036 A 
ATOM     28  C   UNL     1       1.099   1.949  -0.581  0.00  0.00    -0.029 A 
ATOM     29  C   UNL     1       2.300   1.267  -0.584  0.00  0.00    +0.008 A 
ATOM     30  C   UNL     1       1.000   3.305  -1.231  0.00  0.00    +0.045 C 
ENDBRANCH  19  27
ENDBRANCH  18  20
ENDBRANCH  17  18
ENDBRANCH   1  17
TORSDOF 6
