REMARK  Name = ZINC33087601
REMARK  10 active torsions:
REMARK  status: ('A' for Active; 'I' for Inactive)
REMARK    1  A    between atoms: C_1  and  C_2
REMARK    2  A    between atoms: C_4  and  C_33
REMARK    3  A    between atoms: C_5  and  N_9
REMARK    4  A    between atoms: C_6  and  C_8
REMARK    5  A    between atoms: C_10  and  C_12
REMARK    6  A    between atoms: C_12  and  S_13
REMARK    7  A    between atoms: S_13  and  C_14
REMARK    8  A    between atoms: C_16  and  C_32
REMARK    9  A    between atoms: C_19  and  S_24
REMARK   10  A    between atoms: S_24  and  N_27
REMARK                            x       y       z     vdW  Elec       q    Type
REMARK                         _______ _______ _______ _____ _____    ______ ____
ROOT
ATOM      1  C   UNL     1      -7.471   0.972  -0.790  0.00  0.00    +0.098 A 
ATOM      2  C   UNL     1      -8.809   1.393  -0.794  0.00  0.00    +0.038 A 
ATOM      3  C   UNL     1      -9.800   0.502  -1.074  0.00  0.00    -0.039 A 
ATOM      4  C   UNL     1      -9.441  -0.836  -1.341  0.00  0.00    +0.005 A 
ATOM      5  C   UNL     1     -10.412  -1.807  -1.628  0.00  0.00    +0.038 A 
ATOM      6  C   UNL     1     -10.028  -3.089  -1.880  0.00  0.00    +0.106 A 
ATOM      7  C   UNL     1      -8.683  -3.450  -1.856  0.00  0.00    +0.030 A 
ATOM      8  C   UNL     1      -7.715  -2.533  -1.582  0.00  0.00    +0.030 A 
ATOM      9  C   UNL     1      -8.072  -1.200  -1.316  0.00  0.00    +0.073 A 
ATOM     10  N   UNL     1      -7.141  -0.279  -1.041  0.00  0.00    -0.240 NA
ATOM     11  C   UNL     1     -11.244   0.932  -1.089  0.00  0.00    +0.044 C 
ENDROOT
BRANCH   6  12
ATOM     12  S   UNL     1     -11.249  -4.307  -2.241  0.00  0.00    +0.061 S 
ATOM     13  O   UNL     1     -10.679  -5.565  -1.908  0.00  0.00    -0.153 OA
ATOM     14  O   UNL     1     -12.465  -3.846  -1.668  0.00  0.00    -0.153 OA
BRANCH  12  15
ATOM     15  N   UNL     1     -11.470  -4.307  -3.882  0.00  0.00    -0.177 NA
ATOM     16  C   UNL     1     -12.445  -3.487  -4.616  0.00  0.00    +0.109 C 
ATOM     17  C   UNL     1     -12.307  -3.839  -6.112  0.00  0.00    +0.018 C 
ATOM     18  C   UNL     1     -11.664  -5.251  -6.077  0.00  0.00    +0.018 C 
ATOM     19  C   UNL     1     -10.726  -5.134  -4.849  0.00  0.00    +0.109 C 
ENDBRANCH  12  15
ENDBRANCH   6  12
BRANCH   1  20
ATOM     20  S   UNL     1      -6.202   2.142  -0.435  0.00  0.00    -0.097 S 
BRANCH  20  21
ATOM     21  C   UNL     1      -4.746   1.073  -0.559  0.00  0.00    +0.171 C 
BRANCH  21  23
ATOM     22  N   UNL     1      -2.294   1.291  -0.322  0.00  0.00    -0.284 N 
ATOM     23  C   UNL     1      -3.504   1.882  -0.285  0.00  0.00    +0.227 C 
ATOM     24  O   UNL     1      -3.595   3.064  -0.031  0.00  0.00    -0.275 OA
ATOM     25  H   UNL     1      -2.217   0.203  -0.461  0.00  0.00    +0.155 HD
BRANCH  22  30
ATOM     26  C   UNL     1       2.413   4.408   0.244  0.00  0.00    +0.044 C 
ATOM     27  C   UNL     1       1.161   3.583   0.092  0.00  0.00    -0.050 A 
ATOM     28  C   UNL     1       0.190   3.615   1.076  0.00  0.00    +0.008 A 
ATOM     29  C   UNL     1      -0.958   2.859   0.940  0.00  0.00    -0.029 A 
ATOM     30  C   UNL     1      -1.134   2.062  -0.184  0.00  0.00    +0.039 A 
ATOM     31  C   UNL     1      -0.160   2.038  -1.173  0.00  0.00    -0.029 A 
ATOM     32  C   UNL     1       0.986   2.795  -1.031  0.00  0.00    +0.008 A 
ATOM     33  C   UNL     1      -0.350   1.180  -2.398  0.00  0.00    +0.045 C 
ATOM     34  C   UNL     1      -2.016   2.893   2.013  0.00  0.00    +0.045 C 
ENDBRANCH  22  30
ENDBRANCH  21  23
ENDBRANCH  20  21
ENDBRANCH   1  20
TORSDOF 6
