REMARK  Name = ZINC52861516
REMARK  6 active torsions:
REMARK  status: ('A' for Active; 'I' for Inactive)
REMARK    1  A    between atoms: C_1  and  C_2
REMARK    2  A    between atoms: C_4  and  C_7
REMARK    3  A    between atoms: N_12  and  C_14
REMARK    4  A    between atoms: C_14  and  C_15
REMARK    5  A    between atoms: N_17  and  C_18
REMARK    6  A    between atoms: N_17  and  C_24
REMARK                            x       y       z     vdW  Elec       q    Type
REMARK                         _______ _______ _______ _____ _____    ______ ____
ROOT
ATOM      1  C   UNL     1      -2.463  -7.108  -3.210  0.00  0.00    +0.199 C 
ATOM      2  O   UNL     1      -1.643  -7.139  -4.103  0.00  0.00    -0.278 OA
ATOM      3  N   UNL     1      -3.455  -8.020  -3.174  0.00  0.00    -0.297 N 
ENDROOT
BRANCH   3   4
ATOM      4  C   UNL     1      -3.451  -9.144  -4.112  0.00  0.00    +0.076 C 
ATOM      5  C   UNL     1      -2.180  -9.972  -3.912  0.00  0.00    +0.022 C 
ATOM      6  C   UNL     1      -2.176 -11.147  -4.892  0.00  0.00    +0.002 C 
ATOM      7  C   UNL     1      -2.217 -10.614  -6.326  0.00  0.00    +0.000 C 
ATOM      8  C   UNL     1      -3.488  -9.786  -6.527  0.00  0.00    +0.002 C 
ATOM      9  C   UNL     1      -3.492  -8.612  -5.546  0.00  0.00    +0.022 C 
ENDBRANCH   3   4
BRANCH   3  10
ATOM     10  C   UNL     1      -4.537  -7.886  -2.195  0.00  0.00    +0.076 C 
ATOM     11  C   UNL     1      -5.346  -6.624  -2.498  0.00  0.00    +0.022 C 
ATOM     12  C   UNL     1      -6.476  -6.485  -1.476  0.00  0.00    +0.002 C 
ATOM     13  C   UNL     1      -5.882  -6.384  -0.069  0.00  0.00    +0.000 C 
ATOM     14  C   UNL     1      -5.072  -7.646   0.234  0.00  0.00    +0.002 C 
ATOM     15  C   UNL     1      -3.942  -7.785  -0.788  0.00  0.00    +0.022 C 
ENDBRANCH   3  10
BRANCH   1  16
ATOM     16  C   UNL     1      -2.373  -6.049  -2.142  0.00  0.00    +0.019 C 
BRANCH  16  21
ATOM     17  C   UNL     1      -0.388  -2.868  -1.992  0.00  0.00    +0.061 C 
ATOM     18  C   UNL     1       1.018  -3.469  -2.081  0.00  0.00    +0.009 C 
ATOM     19  C   UNL     1       0.994  -4.659  -3.046  0.00  0.00    -0.018 C 
ATOM     20  C   UNL     1      -0.043  -5.676  -2.566  0.00  0.00    -0.078 C 
ATOM     21  N   UNL     1      -1.369  -5.048  -2.528  0.00  0.00    +0.386 N 
ATOM     22  C   UNL     1      -1.374  -3.951  -1.552  0.00  0.00    -0.065 C 
ATOM     23  H   UNL     1      -1.595  -4.684  -3.441  0.00  0.00    -0.081 HD
BRANCH  17  27
ATOM     24  C   UNL     1      -0.870   1.703  -0.001  0.00  0.00    +0.091 C 
ATOM     25  C   UNL     1      -0.596   0.226  -0.113  0.00  0.00    +0.169 A 
ATOM     26  N   UNL     1      -0.697  -0.501  -1.232  0.00  0.00    -0.196 NA
ATOM     27  C   UNL     1      -0.392  -1.745  -0.987  0.00  0.00    +0.229 A 
ATOM     28  O   UNL     1      -0.083  -1.853   0.311  0.00  0.00    -0.338 OA
ATOM     29  N   UNL     1      -0.218  -0.551   0.861  0.00  0.00    -0.062 NA
ENDBRANCH  17  27
ENDBRANCH  16  21
ENDBRANCH   1  16
TORSDOF 5
