REMARK  Name = ZINC01493823
REMARK  11 active torsions:
REMARK  status: ('A' for Active; 'I' for Inactive)
REMARK    1  A    between atoms: C_1  and  C_2
REMARK    2  A    between atoms: C_4  and  C_28
REMARK    3  A    between atoms: C_6  and  O_26
REMARK    4  A    between atoms: C_7  and  O_25
REMARK    5  A    between atoms: C_10  and  C_24
REMARK    6  A    between atoms: C_15  and  O_20
REMARK    7  A    between atoms: C_16  and  O_19
REMARK    8  A    between atoms: C_17  and  O_18
REMARK    9  A    between atoms: O_20  and  C_21
REMARK   10  A    between atoms: O_26  and  C_27
REMARK   11  A    between atoms: C_28  and  O_29
REMARK                            x       y       z     vdW  Elec       q    Type
REMARK                         _______ _______ _______ _____ _____    ______ ____
ROOT
ATOM      1  C   UNL     1      -0.488  -6.007  -0.533  0.00  0.00    +0.056 C 
ATOM      2  C   UNL     1       0.123  -4.659  -0.923  0.00  0.00    +0.162 C 
ATOM      3  C   UNL     1       1.530  -4.838  -1.436  0.00  0.00    +0.043 A 
ATOM      4  C   UNL     1       2.371  -5.747  -0.818  0.00  0.00    -0.009 A 
ATOM      5  C   UNL     1       3.664  -5.921  -1.273  0.00  0.00    +0.056 A 
ATOM      6  C   UNL     1       4.125  -5.182  -2.353  0.00  0.00    +0.165 A 
ATOM      7  C   UNL     1       3.284  -4.270  -2.977  0.00  0.00    +0.202 A 
ATOM      8  C   UNL     1       1.982  -4.100  -2.518  0.00  0.00    +0.176 A 
ATOM      9  O   UNL     1       1.162  -3.213  -3.145  0.00  0.00    -0.453 OA
ATOM     10  C   UNL     1      -0.032  -2.832  -2.458  0.00  0.00    +0.242 C 
ATOM     11  O   UNL     1      -0.673  -4.012  -1.929  0.00  0.00    -0.316 OA
ATOM     12  C   UNL     1       0.267  -1.859  -1.358  0.00  0.00    +0.079 A 
ATOM     13  C   UNL     1       0.376  -2.292  -0.030  0.00  0.00    +0.037 A 
ATOM     14  C   UNL     1       0.678  -1.385   0.988  0.00  0.00    +0.061 A 
ATOM     15  C   UNL     1       0.872  -0.051   0.681  0.00  0.00    +0.166 A 
ATOM     16  C   UNL     1       0.765   0.381  -0.639  0.00  0.00    +0.201 A 
ATOM     17  C   UNL     1       0.458  -0.522  -1.654  0.00  0.00    +0.172 A 
ATOM     18  C   UNL     1       0.166  -3.720   0.271  0.00  0.00    +0.200 C 
ATOM     19  O   UNL     1       0.035  -4.122   1.408  0.00  0.00    -0.289 OA
ATOM     20  C   UNL     1      -0.983  -2.149  -3.443  0.00  0.00    +0.095 C 
ENDROOT
BRANCH  17  21
ATOM     21  O   UNL     1       0.351  -0.089  -2.939  0.00  0.00    -0.503 OA
ATOM     22  H   UNL     1       1.181  -0.118  -3.434  0.00  0.00    +0.292 HD
ENDBRANCH  17  21
BRANCH  16  23
ATOM     23  O   UNL     1       0.956   1.692  -0.938  0.00  0.00    -0.501 OA
ATOM     24  H   UNL     1       1.873   1.919  -1.144  0.00  0.00    +0.292 HD
ENDBRANCH  16  23
BRANCH  15  25
ATOM     25  O   UNL     1       1.165   0.839   1.667  0.00  0.00    -0.491 OA
ATOM     26  C   UNL     1       1.259   0.325   2.997  0.00  0.00    +0.277 C 
ENDBRANCH  15  25
BRANCH   7  27
ATOM     27  O   UNL     1       3.733  -3.543  -4.036  0.00  0.00    -0.501 OA
ATOM     28  H   UNL     1       3.587  -3.965  -4.894  0.00  0.00    +0.292 HD
ENDBRANCH   7  27
BRANCH   6  29
ATOM     29  O   UNL     1       5.399  -5.351  -2.799  0.00  0.00    -0.491 OA
ATOM     30  C   UNL     1       6.207  -6.306  -2.109  0.00  0.00    +0.277 C 
ENDBRANCH   6  29
BRANCH   4  31
ATOM     31  C   UNL     1       1.874  -6.551   0.356  0.00  0.00    +0.191 C 
BRANCH  31  32
ATOM     32  O   UNL     1       2.952  -7.314   0.901  0.00  0.00    -0.390 OA
ATOM     33  H   UNL     1       2.705  -7.857   1.662  0.00  0.00    +0.210 HD
ENDBRANCH  31  32
ENDBRANCH   4  31
TORSDOF 7
