REMARK  Name = ZINC35228527
REMARK  12 active torsions:
REMARK  status: ('A' for Active; 'I' for Inactive)
REMARK    1  A    between atoms: C_1  and  C_2
REMARK    2  A    between atoms: C_2  and  C_3
REMARK    3  A    between atoms: C_3  and  C_4
REMARK    4  A    between atoms: C_4  and  O_6
REMARK    5  A    between atoms: O_6  and  C_7
REMARK    6  A    between atoms: C_15  and  C_25
REMARK    7  A    between atoms: C_27  and  O_35
REMARK    8  A    between atoms: C_28  and  O_33
REMARK    9  A    between atoms: C_29  and  O_31
REMARK   10  A    between atoms: O_31  and  C_32
REMARK   11  A    between atoms: O_33  and  C_34
REMARK   12  A    between atoms: O_35  and  C_36
REMARK                            x       y       z     vdW  Elec       q    Type
REMARK                         _______ _______ _______ _____ _____    ______ ____
ROOT
ATOM      1  C   UNL     1      -2.420  -4.093   0.329  0.00  0.00    +0.214 C 
ATOM      2  C   UNL     1      -2.436  -4.774   1.687  0.00  0.00    +0.001 A 
ATOM      3  C   UNL     1      -1.668  -4.170   2.684  0.00  0.00    +0.057 A 
ATOM      4  C   UNL     1      -1.663  -4.750   3.941  0.00  0.00    +0.167 A 
ATOM      5  C   UNL     1      -2.410  -5.910   4.201  0.00  0.00    +0.167 A 
ATOM      6  C   UNL     1      -3.166  -6.505   3.206  0.00  0.00    +0.054 A 
ATOM      7  C   UNL     1      -3.161  -5.918   1.939  0.00  0.00    -0.029 A 
ATOM      8  C   UNL     1      -3.982  -6.622   0.873  0.00  0.00    +0.064 C 
ATOM      9  C   UNL     1      -3.499  -6.142  -0.480  0.00  0.00    +0.120 C 
ATOM     10  C   UNL     1      -3.623  -4.584  -0.454  0.00  0.00    +0.086 C 
ATOM     11  C   UNL     1      -3.572  -4.327  -1.967  0.00  0.00    +0.240 C 
ATOM     12  O   UNL     1      -4.324  -5.432  -2.520  0.00  0.00    -0.464 OA
ATOM     13  C   UNL     1      -4.348  -6.502  -1.665  0.00  0.00    +0.312 C 
ATOM     14  O   UNL     1      -4.945  -7.541  -1.820  0.00  0.00    -0.250 OA
ATOM     15  O   UNL     1      -2.233  -6.261   5.495  0.00  0.00    -0.453 OA
ATOM     16  C   UNL     1      -1.062  -5.540   5.934  0.00  0.00    +0.466 C 
ATOM     17  O   UNL     1      -1.020  -4.383   5.073  0.00  0.00    -0.453 OA
ENDROOT
BRANCH   8  18
ATOM     18  C   UNL     1      -5.440  -6.283   1.045  0.00  0.00    -0.032 A 
ATOM     19  C   UNL     1      -6.408  -7.211   0.709  0.00  0.00    +0.054 A 
ATOM     20  C   UNL     1      -7.751  -6.903   0.865  0.00  0.00    +0.165 A 
ATOM     21  C   UNL     1      -8.123  -5.659   1.361  0.00  0.00    +0.204 A 
ATOM     22  C   UNL     1      -7.147  -4.729   1.698  0.00  0.00    +0.165 A 
ATOM     23  C   UNL     1      -5.806  -5.047   1.543  0.00  0.00    +0.054 A 
BRANCH  22  24
ATOM     24  O   UNL     1      -7.506  -3.510   2.183  0.00  0.00    -0.491 OA
ATOM     25  C   UNL     1      -6.450  -2.605   2.508  0.00  0.00    +0.277 C 
ENDBRANCH  22  24
BRANCH  21  26
ATOM     26  O   UNL     1      -9.440  -5.353   1.515  0.00  0.00    -0.488 OA
ATOM     27  C   UNL     1     -10.037  -5.670   2.775  0.00  0.00    +0.277 C 
ENDBRANCH  21  26
BRANCH  20  28
ATOM     28  O   UNL     1      -8.702  -7.817   0.534  0.00  0.00    -0.491 OA
ATOM     29  C   UNL     1      -8.247  -9.074   0.030  0.00  0.00    +0.277 C 
ENDBRANCH  20  28
ENDBRANCH   8  18
BRANCH   1  30
ATOM     30  O   UNL     1      -2.497  -2.676   0.497  0.00  0.00    -0.456 OA
BRANCH  30  31
ATOM     31  C   UNL     1      -1.336  -2.010   0.598  0.00  0.00    +0.308 C 
ATOM     32  O   UNL     1      -0.289  -2.611   0.544  0.00  0.00    -0.251 OA
BRANCH  31  33
ATOM     33  C   UNL     1      -1.339  -0.514   0.777  0.00  0.00    +0.120 C 
BRANCH  33  35
ATOM     34  C   UNL     1       0.100   1.511   1.045  0.00  0.00    +0.004 C 
ATOM     35  C   UNL     1       0.103  -0.008   0.863  0.00  0.00    +0.008 C 
ENDBRANCH  33  35
ENDBRANCH  31  33
ENDBRANCH  30  31
ENDBRANCH   1  30
TORSDOF 8
