REMARK  Name = ZINC65305952
REMARK  9 active torsions:
REMARK  status: ('A' for Active; 'I' for Inactive)
REMARK    1  A    between atoms: C_1  and  C_2
REMARK    2  A    between atoms: C_2  and  C_3
REMARK    3  A    between atoms: C_3  and  C_5
REMARK    4  A    between atoms: C_3  and  C_6
REMARK    5  A    between atoms: C_6  and  C_8
REMARK    6  A    between atoms: C_6  and  N_20
REMARK    7  A    between atoms: N_10  and  C_11
REMARK    8  A    between atoms: C_21  and  C_23
REMARK    9  A    between atoms: C_26  and  C_29
REMARK                            x       y       z     vdW  Elec       q    Type
REMARK                         _______ _______ _______ _____ _____    ______ ____
ROOT
ATOM      1  C   UNL     1       2.215  -0.045  -1.125  0.00  0.00    +0.162 C 
ENDROOT
BRANCH   1   2
ATOM      2  C   UNL     1       2.913  -0.833  -2.203  0.00  0.00    +0.236 C 
ATOM      3  O   UNL     1       3.663  -0.273  -2.975  0.00  0.00    -0.274 OA
ATOM      4  N   UNL     1       2.704  -2.160  -2.310  0.00  0.00    -0.277 N 
ATOM      5  H   UNL     1       2.050  -2.596  -1.742  0.00  0.00    +0.152 HD
BRANCH   4   6
ATOM      6  C   UNL     1       3.466  -2.946  -3.285  0.00  0.00    +0.269 C 
ATOM      7  N   UNL     1       2.910  -2.755  -4.630  0.00  0.00    -0.348 N 
ATOM      8  C   UNL     1       2.515  -3.919  -5.059  0.00  0.00    +0.061 A 
ATOM      9  C   UNL     1       1.888  -4.362  -6.311  0.00  0.00    +0.027 A 
ATOM     10  C   UNL     1       1.583  -5.665  -6.478  0.00  0.00    +0.002 A 
ATOM     11  C   UNL     1       1.841  -6.635  -5.493  0.00  0.00    +0.002 A 
ATOM     12  C   UNL     1       2.412  -6.336  -4.309  0.00  0.00    +0.027 A 
ATOM     13  C   UNL     1       2.789  -4.946  -4.017  0.00  0.00    +0.061 A 
ATOM     14  N   UNL     1       3.342  -4.378  -2.985  0.00  0.00    -0.348 N 
ATOM     15  H   UNL     1       2.849  -1.915  -5.112  0.00  0.00    +0.163 HD
ATOM     16  H   UNL     1       3.622  -4.819  -2.168  0.00  0.00    +0.163 HD
ENDBRANCH   4   6
ENDBRANCH   1   2
BRANCH   1  17
ATOM     17  N   UNL     1       2.596   1.366  -1.227  0.00  0.00    -0.300 N 
ATOM     18  C   UNL     1       2.674   2.125  -0.116  0.00  0.00    +0.245 C 
ATOM     19  O   UNL     1       2.520   1.618   0.978  0.00  0.00    -0.270 OA
ATOM     20  H   UNL     1       2.793   1.754  -2.094  0.00  0.00    +0.150 HD
BRANCH  18  21
ATOM     21  C   UNL     1       2.946   3.574  -0.228  0.00  0.00    +0.037 A 
ATOM     22  C   UNL     1       3.117   4.160  -1.483  0.00  0.00    +0.013 A 
ATOM     23  C   UNL     1       3.370   5.512  -1.580  0.00  0.00    +0.004 A 
ATOM     24  C   UNL     1       3.455   6.287  -0.437  0.00  0.00    -0.050 A 
ATOM     25  C   UNL     1       3.287   5.713   0.810  0.00  0.00    +0.004 A 
ATOM     26  C   UNL     1       3.027   4.362   0.921  0.00  0.00    +0.013 A 
ATOM     27  C   UNL     1       3.732   7.764  -0.551  0.00  0.00    +0.044 C 
ENDBRANCH  18  21
ENDBRANCH   1  17
BRANCH   1  28
ATOM     28  C   UNL     1       0.700  -0.177  -1.297  0.00  0.00    +0.015 C 
ATOM     29  C   UNL     1      -0.007   0.481  -0.111  0.00  0.00    +0.010 C 
BRANCH  28  31
ATOM     30  C   UNL     1       0.809  -0.271  -3.792  0.00  0.00    +0.004 C 
ATOM     31  C   UNL     1       0.272   0.514  -2.593  0.00  0.00    +0.002 C 
ENDBRANCH  28  31
ENDBRANCH   1  28
TORSDOF 6
