REMARK  Name = ZINC62235144
REMARK  4 active torsions:
REMARK  status: ('A' for Active; 'I' for Inactive)
REMARK    1  A    between atoms: C_1  and  N_2
REMARK    2  A    between atoms: N_2  and  C_3
REMARK    3  A    between atoms: C_3  and  C_5
REMARK    4  A    between atoms: C_3  and  C_18
REMARK                            x       y       z     vdW  Elec       q    Type
REMARK                         _______ _______ _______ _____ _____    ______ ____
ROOT
ATOM      1  C   UNL     1       2.107  -0.007  -1.002  0.00  0.00    -0.045 A 
ATOM      2  C   UNL     1       2.534   0.359   0.260  0.00  0.00    +0.031 A 
ATOM      3  C   UNL     1       3.837   0.792   0.448  0.00  0.00    +0.067 A 
ATOM      4  C   UNL     1       4.713   0.856  -0.637  0.00  0.00    +0.068 A 
ATOM      5  C   UNL     1       4.276   0.486  -1.900  0.00  0.00    +0.043 A 
ATOM      6  C   UNL     1       2.977   0.050  -2.078  0.00  0.00    +0.022 A 
ATOM      7 BR   UNL     1       2.382  -0.462  -3.798  0.00  0.00    -0.050 Br
ATOM      8  N   UNL     1       5.931   1.319  -0.145  0.00  0.00    -0.306 N 
ATOM      9  H   UNL     1       6.735   1.467  -0.668  0.00  0.00    +0.170 HD
ATOM     10  C   UNL     1       5.802   1.528   1.178  0.00  0.00    +0.325 A 
ATOM     11  O   UNL     1       6.683   1.935   1.913  0.00  0.00    -0.247 OA
ATOM     12  N   UNL     1       4.551   1.219   1.566  0.00  0.00    -0.306 N 
ATOM     13  H   UNL     1       4.204   1.283   2.470  0.00  0.00    +0.170 HD
ENDROOT
BRANCH   1  14
ATOM     14  C   UNL     1       0.690  -0.478  -1.207  0.00  0.00    -0.035 C 
BRANCH  14  15
ATOM     15  C   UNL     1       0.595  -1.970  -0.880  0.00  0.00    +0.005 C 
ATOM     16  C   UNL     1      -0.853  -2.440  -1.049  0.00  0.00    +0.007 C 
ATOM     17  C   UNL     1      -0.920  -3.949  -0.796  0.00  0.00    +0.028 C 
ATOM     18  C   UNL     1       0.037  -4.663  -1.753  0.00  0.00    +0.160 C 
ATOM     19  O   UNL     1       1.361  -4.157  -1.566  0.00  0.00    -0.380 OA
ATOM     20  C   UNL     1       1.496  -2.760  -1.834  0.00  0.00    +0.162 C 
ENDBRANCH  14  15
BRANCH  14  22
ATOM     21  C   UNL     1      -0.209   1.691  -0.712  0.00  0.00    -0.100 C 
ATOM     22  N   UNL     1      -0.209   0.275  -0.321  0.00  0.00    +0.382 N 
ATOM     23  H   UNL     1       0.109   0.189   0.632  0.00  0.00    -0.085 HD
ATOM     24  H   UNL     1      -1.145  -0.096  -0.398  0.00  0.00    -0.085 HD
ENDBRANCH  14  22
ENDBRANCH   1  14
TORSDOF 3
