REMARK  Name = ZINC04026742
REMARK  9 active torsions:
REMARK  status: ('A' for Active; 'I' for Inactive)
REMARK    1  A    between atoms: C_1  and  C_2
REMARK    2  A    between atoms: C_2  and  O_3
REMARK    3  A    between atoms: O_3  and  C_4
REMARK    4  A    between atoms: N_6  and  N_7
REMARK    5  A    between atoms: C_8  and  C_9
REMARK    6  A    between atoms: C_8  and  C_10
REMARK    7  A    between atoms: C_15  and  C_33
REMARK    8  A    between atoms: C_25  and  C_32
REMARK    9  A    between atoms: C_28  and  O_31
REMARK                            x       y       z     vdW  Elec       q    Type
REMARK                         _______ _______ _______ _____ _____    ______ ____
ROOT
ATOM      1  C   UNL     1      -2.155   0.203   5.819  0.00  0.00    -0.023 C 
ATOM      2  C   UNL     1      -2.349  -1.009   5.289  0.00  0.00    -0.021 C 
ATOM      3  C   UNL     1      -3.790  -1.151   4.833  0.00  0.00    +0.032 C 
ATOM      4  C   UNL     1      -4.228   0.327   4.616  0.00  0.00    +0.007 C 
ATOM      5  C   UNL     1      -3.444   0.980   5.768  0.00  0.00    -0.002 C 
ATOM      6  C   UNL     1      -3.245   2.465   5.588  0.00  0.00    +0.012 C 
ATOM      7  C   UNL     1      -2.624   2.773   4.228  0.00  0.00    +0.005 C 
ATOM      8  C   UNL     1      -3.567   2.261   3.130  0.00  0.00    +0.003 C 
ATOM      9  C   UNL     1      -3.702   0.743   3.238  0.00  0.00    +0.001 C 
ATOM     10  C   UNL     1      -4.700   0.268   2.172  0.00  0.00    +0.031 C 
ATOM     11  C   UNL     1      -4.274   0.766   0.831  0.00  0.00    -0.027 C 
ATOM     12  C   UNL     1      -3.529   1.810   0.655  0.00  0.00    -0.065 C 
ATOM     13  C   UNL     1      -2.969   2.637   1.779  0.00  0.00    -0.008 C 
ATOM     14  C   UNL     1      -1.450   2.499   1.794  0.00  0.00    +0.014 C 
ATOM     15  C   UNL     1      -0.935   2.205   0.385  0.00  0.00    +0.032 C 
ATOM     16  C   UNL     1      -1.783   2.915  -0.668  0.00  0.00    +0.119 C 
ATOM     17  C   UNL     1      -3.162   2.245  -0.754  0.00  0.00    +0.062 C 
ATOM     18  C   UNL     1      -3.312   4.104   1.509  0.00  0.00    +0.016 C 
ATOM     19  C   UNL     1      -4.207   0.742   7.072  0.00  0.00    +0.016 C 
ENDROOT
BRANCH   1  21
ATOM     20  N   UNL     1      -0.470   0.280   7.522  0.00  0.00    -0.182 NA
ATOM     21  C   UNL     1      -0.886   0.698   6.364  0.00  0.00    +0.060 C 
ATOM     22  C   UNL     1      -0.066   1.690   5.581  0.00  0.00    +0.067 C 
BRANCH  20  25
ATOM     23  C   UNL     1      -0.894  -0.908   9.540  0.00  0.00    +0.420 C 
ATOM     24  O   UNL     1      -1.598  -1.635  10.213  0.00  0.00    -0.225 OA
ATOM     25  N   UNL     1      -1.281  -0.558   8.298  0.00  0.00    -0.172 N 
ATOM     26  H   UNL     1      -2.121  -0.885   7.941  0.00  0.00    +0.181 HD
BRANCH  23  27
ATOM     27  O   UNL     1       0.272  -0.453  10.036  0.00  0.00    -0.450 OA
BRANCH  27  29
ATOM     28  C   UNL     1       1.972  -0.260  11.769  0.00  0.00    +0.048 C 
ATOM     29  C   UNL     1       0.625  -0.872  11.381  0.00  0.00    +0.230 C 
ENDBRANCH  27  29
ENDBRANCH  23  27
ENDBRANCH  20  25
ENDBRANCH   1  21
BRANCH  16  30
ATOM     30  O   UNL     1      -1.943   4.288  -0.305  0.00  0.00    -0.391 OA
ATOM     31  H   UNL     1      -2.386   4.824  -0.976  0.00  0.00    +0.210 HD
ENDBRANCH  16  30
TORSDOF 5
