REMARK  Name = ZINC24216587
REMARK  8 active torsions:
REMARK  status: ('A' for Active; 'I' for Inactive)
REMARK    1  A    between atoms: C_1  and  C_2
REMARK    2  A    between atoms: C_2  and  O_3
REMARK    3  A    between atoms: O_3  and  C_4
REMARK    4  A    between atoms: C_7  and  C_10
REMARK    5  A    between atoms: N_15  and  C_16
REMARK    6  A    between atoms: C_16  and  C_17
REMARK    7  A    between atoms: N_22  and  S_25
REMARK    8  A    between atoms: S_25  and  C_28
REMARK                            x       y       z     vdW  Elec       q    Type
REMARK                         _______ _______ _______ _____ _____    ______ ____
ROOT
ATOM      1  C   UNL     1      -1.388  -0.527   0.259  0.00  0.00    +0.199 C 
ATOM      2  O   UNL     1      -2.305   0.248   0.432  0.00  0.00    -0.278 OA
ATOM      3  N   UNL     1      -1.612  -1.855   0.297  0.00  0.00    -0.300 N 
ATOM      4  C   UNL     1      -0.512  -2.806   0.083  0.00  0.00    +0.125 C 
ATOM      5  C   UNL     1      -0.452  -3.759   1.289  0.00  0.00    +0.128 C 
ATOM      6  N   UNL     1      -1.802  -4.283   1.539  0.00  0.00    -0.174 NA
ATOM      7  C   UNL     1      -2.904  -3.332   1.747  0.00  0.00    +0.128 C 
ATOM      8  C   UNL     1      -2.962  -2.379   0.547  0.00  0.00    +0.125 C 
ENDROOT
BRANCH   6   9
ATOM      9  S   UNL     1      -2.078  -5.915   1.585  0.00  0.00    +0.062 S 
ATOM     10  O   UNL     1      -0.838  -6.527   1.912  0.00  0.00    -0.153 OA
ATOM     11  O   UNL     1      -3.251  -6.107   2.364  0.00  0.00    -0.153 OA
BRANCH   9  12
ATOM     12  C   UNL     1      -2.473  -6.423  -0.055  0.00  0.00    +0.124 A 
ATOM     13  C   UNL     1      -1.630  -7.283  -0.735  0.00  0.00    +0.030 A 
ATOM     14  C   UNL     1      -1.940  -7.681  -2.021  0.00  0.00    +0.002 A 
ATOM     15  C   UNL     1      -3.093  -7.222  -2.629  0.00  0.00    +0.002 A 
ATOM     16  C   UNL     1      -3.937  -6.363  -1.951  0.00  0.00    +0.022 A 
ATOM     17  C   UNL     1      -3.630  -5.967  -0.661  0.00  0.00    +0.067 A 
ATOM     18 CL   UNL     1      -4.693  -4.894   0.195  0.00  0.00    -0.082 Cl
ENDBRANCH   9  12
ENDBRANCH   6   9
BRANCH   1  19
ATOM     19  C   UNL     1       0.002  -0.004   0.002  0.00  0.00    +0.020 C 
BRANCH  19  24
ATOM     20  C   UNL     1       1.362   2.016  -0.000  0.00  0.00    -0.037 C 
ATOM     21  C   UNL     1       1.200   3.459  -0.525  0.00  0.00    -0.013 C 
ATOM     22  C   UNL     1      -0.112   3.445  -1.337  0.00  0.00    -0.020 C 
ATOM     23  C   UNL     1      -0.632   1.996  -1.234  0.00  0.00    -0.077 C 
ATOM     24  N   UNL     1      -0.018   1.465   0.010  0.00  0.00    +0.390 N 
ATOM     25  H   UNL     1      -0.580   1.742   0.914  0.00  0.00    -0.080 HD
BRANCH  20  29
ATOM     26  C   UNL     1       2.986   2.042   3.953  0.00  0.00    +0.121 A 
ATOM     27  C   UNL     1       3.786   1.690   2.875  0.00  0.00    +0.046 A 
ATOM     28  C   UNL     1       3.258   1.683   1.598  0.00  0.00    +0.005 A 
ATOM     29  C   UNL     1       1.934   2.025   1.394  0.00  0.00    -0.061 A 
ATOM     30  C   UNL     1       1.137   2.381   2.465  0.00  0.00    +0.005 A 
ATOM     31  C   UNL     1       1.658   2.385   3.745  0.00  0.00    +0.046 A 
BRANCH  26  32
ATOM     32  O   UNL     1       3.502   2.050   5.210  0.00  0.00    -0.492 OA
BRANCH  32  34
ATOM     33  C   UNL     1       3.374   2.372   7.601  0.00  0.00    +0.048 C 
ATOM     34  C   UNL     1       2.620   2.422   6.271  0.00  0.00    +0.225 C 
ENDBRANCH  32  34
ENDBRANCH  26  32
ENDBRANCH  20  29
ENDBRANCH  19  24
ENDBRANCH   1  19
TORSDOF 7
