REMARK  Name = ZINC39315571
REMARK  9 active torsions:
REMARK  status: ('A' for Active; 'I' for Inactive)
REMARK    1  A    between atoms: C_1  and  C_2
REMARK    2  A    between atoms: C_2  and  C_3
REMARK    3  A    between atoms: C_3  and  C_4
REMARK    4  A    between atoms: C_6  and  C_18
REMARK    5  A    between atoms: C_8  and  C_16
REMARK    6  A    between atoms: C_9  and  N_15
REMARK    7  A    between atoms: C_23  and  O_24
REMARK    8  A    between atoms: O_24  and  C_25
REMARK    9  A    between atoms: C_25  and  C_26
REMARK                            x       y       z     vdW  Elec       q    Type
REMARK                         _______ _______ _______ _____ _____    ______ ____
ROOT
ATOM      1  C   UNL     1      -1.904  -1.847   0.155  0.00  0.00    +0.069 C 
ATOM      2  C   UNL     1      -1.839  -2.596   1.229  0.00  0.00    +0.030 C 
ATOM      3  C   UNL     1      -1.658  -2.297   2.692  0.00  0.00    +0.101 C 
ATOM      4  C   UNL     1      -0.680  -3.339   3.203  0.00  0.00    +0.098 C 
ATOM      5  C   UNL     1      -0.297  -4.385   2.442  0.00  0.00    +0.195 C 
ATOM      6  O   UNL     1      -0.676  -4.640   1.177  0.00  0.00    -0.448 OA
ATOM      7  C   UNL     1      -1.887  -4.035   0.715  0.00  0.00    +0.343 C 
ATOM      8  N   UNL     1      -1.890  -3.839  -0.738  0.00  0.00    -0.138 NA
ATOM      9  N   UNL     1      -1.928  -2.622  -0.959  0.00  0.00    -0.155 NA
ENDROOT
BRANCH   3  10
ATOM     10  C   UNL     1      -1.091  -0.913   2.875  0.00  0.00    +0.007 A 
ATOM     11  C   UNL     1       0.187  -0.625   2.435  0.00  0.00    +0.008 A 
ATOM     12  C   UNL     1       0.708   0.644   2.602  0.00  0.00    +0.001 A 
ATOM     13  C   UNL     1      -0.048   1.630   3.210  0.00  0.00    +0.004 A 
ATOM     14  C   UNL     1      -1.326   1.348   3.651  0.00  0.00    +0.046 A 
ATOM     15  C   UNL     1      -1.853   0.076   3.480  0.00  0.00    +0.125 A 
BRANCH  15  16
ATOM     16  O   UNL     1      -3.113  -0.203   3.908  0.00  0.00    -0.487 OA
BRANCH  16  17
ATOM     17  C   UNL     1      -3.840   0.863   4.522  0.00  0.00    +0.264 C 
BRANCH  17  18
ATOM     18  C   UNL     1      -5.205   0.371   4.929  0.00  0.00    -0.010 A 
ATOM     19  C   UNL     1      -6.263   0.460   4.045  0.00  0.00    +0.008 A 
ATOM     20  C   UNL     1      -7.515   0.008   4.418  0.00  0.00    +0.020 A 
ATOM     21  C   UNL     1      -7.709  -0.532   5.677  0.00  0.00    +0.041 A 
ATOM     22  C   UNL     1      -6.649  -0.620   6.562  0.00  0.00    +0.020 A 
ATOM     23  C   UNL     1      -5.396  -0.174   6.186  0.00  0.00    +0.008 A 
ATOM     24 CL   UNL     1      -9.281  -1.099   6.147  0.00  0.00    -0.084 Cl
ENDBRANCH  17  18
ENDBRANCH  16  17
ENDBRANCH  15  16
ENDBRANCH   3  10
BRANCH   5  25
ATOM     25  N   UNL     1       0.568  -5.281   3.018  0.00  0.00    -0.329 N 
ATOM     26  H   UNL     1       0.873  -5.144   3.928  0.00  0.00    +0.145 HD
ATOM     27  H   UNL     1       0.875  -6.051   2.514  0.00  0.00    +0.145 HD
ENDBRANCH   5  25
BRANCH   4  28
ATOM     28  C   UNL     1      -0.149  -3.208   4.527  0.00  0.00    +0.101 C 
ATOM     29  N   UNL     1       0.272  -3.104   5.577  0.00  0.00    -0.191 NA
ENDBRANCH   4  28
BRANCH   1  30
ATOM     30  C   UNL     1      -1.951  -0.341   0.157  0.00  0.00    +0.057 C 
BRANCH  30  32
ATOM     31  C   UNL     1      -3.454   1.649   0.321  0.00  0.00    +0.004 C 
ATOM     32  C   UNL     1      -3.408   0.124   0.208  0.00  0.00    +0.003 C 
ENDBRANCH  30  32
ENDBRANCH   1  30
TORSDOF 8
