REMARK  Name = ZINC60366342
REMARK  9 active torsions:
REMARK  status: ('A' for Active; 'I' for Inactive)
REMARK    1  A    between atoms: C_1  and  C_2
REMARK    2  A    between atoms: C_9  and  C_11
REMARK    3  A    between atoms: C_11  and  O_12
REMARK    4  A    between atoms: O_12  and  C_13
REMARK    5  A    between atoms: C_16  and  C_19
REMARK    6  A    between atoms: N_21  and  C_22
REMARK    7  A    between atoms: C_22  and  C_23
REMARK    8  A    between atoms: C_23  and  C_24
REMARK    9  A    between atoms: C_28  and  C_30
REMARK                            x       y       z     vdW  Elec       q    Type
REMARK                         _______ _______ _______ _____ _____    ______ ____
ROOT
ATOM      1  C   UNL     1       0.104  -2.908   6.612  0.00  0.00    +0.121 A 
ATOM      2  C   UNL     1       0.090  -1.797   7.447  0.00  0.00    +0.046 A 
ATOM      3  C   UNL     1       0.106  -1.961   8.814  0.00  0.00    +0.016 A 
ATOM      4  C   UNL     1       0.134  -3.247   9.361  0.00  0.00    +0.037 A 
ATOM      5  C   UNL     1       0.147  -4.361   8.518  0.00  0.00    +0.016 A 
ATOM      6  C   UNL     1       0.126  -4.188   7.152  0.00  0.00    +0.046 A 
ENDROOT
BRANCH   4   7
ATOM      7  C   UNL     1       0.151  -3.427  10.826  0.00  0.00    +0.244 C 
ATOM      8  O   UNL     1       0.140  -2.457  11.558  0.00  0.00    -0.270 OA
ATOM      9  N   UNL     1       0.178  -4.668  11.352  0.00  0.00    -0.311 N 
ATOM     10  H   UNL     1       0.186  -5.442  10.768  0.00  0.00    +0.149 HD
BRANCH   9  11
ATOM     11  C   UNL     1       0.195  -4.847  12.806  0.00  0.00    +0.109 C 
BRANCH  11  12
ATOM     12  C   UNL     1       0.225  -6.341  13.135  0.00  0.00    +0.054 C 
BRANCH  12  13
ATOM     13  C   UNL     1       0.242  -6.525  14.631  0.00  0.00    -0.045 A 
ATOM     14  C   UNL     1       1.448  -6.582  15.306  0.00  0.00    +0.004 A 
ATOM     15  C   UNL     1       1.473  -6.751  16.678  0.00  0.00    +0.001 A 
ATOM     16  C   UNL     1       0.293  -6.864  17.384  0.00  0.00    +0.013 A 
ATOM     17  C   UNL     1      -0.928  -6.807  16.709  0.00  0.00    +0.037 A 
ATOM     18  C   UNL     1      -0.946  -6.631  15.325  0.00  0.00    +0.016 A 
BRANCH  17  19
ATOM     19  C   UNL     1      -2.196  -6.927  17.459  0.00  0.00    +0.242 C 
ATOM     20  O   UNL     1      -3.258  -6.878  16.869  0.00  0.00    -0.270 OA
ATOM     21  N   UNL     1      -2.176  -7.093  18.796  0.00  0.00    -0.325 N 
ATOM     22  H   UNL     1      -1.329  -7.132  19.267  0.00  0.00    +0.145 HD
ATOM     23  H   UNL     1      -3.008  -7.172  19.288  0.00  0.00    +0.145 HD
ENDBRANCH  17  19
ENDBRANCH  12  13
ENDBRANCH  11  12
ENDBRANCH   9  11
ENDBRANCH   4   7
BRANCH   1  24
ATOM     24  O   UNL     1       0.089  -2.741   5.265  0.00  0.00    -0.486 OA
BRANCH  24  25
ATOM     25  C   UNL     1       0.066  -1.399   4.777  0.00  0.00    +0.286 C 
BRANCH  25  34
ATOM     26  C   UNL     1      -0.018   1.503   0.010  0.00  0.00    +0.047 C 
ATOM     27  C   UNL     1       0.002  -0.004   0.002  0.00  0.00    -0.008 A 
ATOM     28  C   UNL     1       0.006  -0.685  -1.176  0.00  0.00    +0.008 A 
ATOM     29  C   UNL     1       0.025  -2.089  -1.168  0.00  0.00    +0.018 A 
ATOM     30  C   UNL     1       0.039  -2.763   0.001  0.00  0.00    +0.093 A 
ATOM     31  N   UNL     1       0.035  -2.093   1.190  0.00  0.00    -0.306 N 
ATOM     32  C   UNL     1       0.023  -0.722   1.214  0.00  0.00    +0.141 A 
ATOM     33  N   UNL     1       0.030  -0.334   2.482  0.00  0.00    -0.229 NA
ATOM     34  C   UNL     1       0.051  -1.412   3.270  0.00  0.00    +0.097 A 
ATOM     35  C   UNL     1       0.046  -2.516   2.491  0.00  0.00    +0.119 A 
ENDBRANCH  25  34
ENDBRANCH  24  25
ENDBRANCH   1  24
TORSDOF 8
