REMARK  Name = ZINC45537806
REMARK  17 active torsions:
REMARK  status: ('A' for Active; 'I' for Inactive)
REMARK    1  A    between atoms: C_1  and  C_2
REMARK    2  A    between atoms: C_2  and  N_3
REMARK    3  A    between atoms: N_3  and  C_4
REMARK    4  A    between atoms: N_3  and  C_6
REMARK    5  A    between atoms: C_4  and  C_5
REMARK    6  A    between atoms: C_6  and  C_8
REMARK    7  A    between atoms: C_6  and  C_12
REMARK    8  A    between atoms: C_8  and  C_9
REMARK    9  A    between atoms: C_9  and  C_10
REMARK   10  A    between atoms: C_9  and  C_11
REMARK   11  A    between atoms: C_12  and  N_13
REMARK   12  A    between atoms: C_19  and  N_22
REMARK   13  A    between atoms: C_23  and  O_25
REMARK   14  A    between atoms: O_25  and  C_26
REMARK   15  A    between atoms: C_26  and  C_27
REMARK   16  A    between atoms: C_26  and  C_28
REMARK   17  A    between atoms: C_26  and  C_29
REMARK                            x       y       z     vdW  Elec       q    Type
REMARK                         _______ _______ _______ _____ _____    ______ ____
ROOT
ATOM      1  N   UNL     1       2.068   1.935   0.735  0.00  0.00    -0.301 N 
ATOM      2  C   UNL     1       2.426   3.195   1.053  0.00  0.00    +0.302 C 
ATOM      3  O   UNL     1       3.188   3.395   1.980  0.00  0.00    -0.253 OA
ATOM      4  N   UNL     1       1.939   4.233   0.345  0.00  0.00    -0.286 N 
ATOM      5  C   UNL     1       0.924   4.019  -0.696  0.00  0.00    +0.111 C 
ATOM      6  C   UNL     1      -0.270   4.937  -0.417  0.00  0.00    +0.041 C 
ATOM      7  C   UNL     1       0.220   6.383  -0.304  0.00  0.00    +0.079 C 
ATOM      8  C   UNL     1       1.203   6.501   0.862  0.00  0.00    +0.041 C 
ATOM      9  C   UNL     1       2.409   5.601   0.602  0.00  0.00    +0.111 C 
ATOM     10  H   UNL     1       1.521   1.769  -0.049  0.00  0.00    +0.150 HD
ENDROOT
BRANCH   7  11
ATOM     11  N   UNL     1      -0.924   7.268  -0.070  0.00  0.00    -0.278 N 
ATOM     12  C   UNL     1      -0.855   8.566  -0.427  0.00  0.00    +0.401 C 
ATOM     13  O   UNL     1       0.155   9.002  -0.942  0.00  0.00    -0.226 OA
ATOM     14  H   UNL     1      -1.730   6.920   0.341  0.00  0.00    +0.152 HD
BRANCH  12  15
ATOM     15  O   UNL     1      -1.906   9.380  -0.212  0.00  0.00    -0.445 OA
BRANCH  15  16
ATOM     16  C   UNL     1      -1.763  10.744  -0.615  0.00  0.00    +0.107 C 
ATOM     17  C   UNL     1      -1.496  10.806  -2.120  0.00  0.00    +0.055 C 
ATOM     18  C   UNL     1      -3.049  11.508  -0.293  0.00  0.00    +0.055 C 
ATOM     19  C   UNL     1      -0.592  11.378   0.138  0.00  0.00    +0.055 C 
ENDBRANCH  15  16
ENDBRANCH  12  15
ENDBRANCH   7  11
BRANCH   1  20
ATOM     20  C   UNL     1       2.505   0.816   1.574  0.00  0.00    +0.090 C 
BRANCH  20  21
ATOM     21  C   UNL     1       1.893  -0.484   1.048  0.00  0.00    -0.051 C 
BRANCH  21  22
ATOM     22  N   UNL     1       0.442  -0.470   1.276  0.00  0.00    +0.382 N 
ATOM     23  H   UNL     1       0.118  -1.411   1.441  0.00  0.00    -0.081 HD
BRANCH  22  25
ATOM     24  C   UNL     1       0.690  -0.304   3.706  0.00  0.00    -0.017 C 
ATOM     25  C   UNL     1       0.138   0.365   2.446  0.00  0.00    -0.082 C 
ENDBRANCH  22  25
BRANCH  22  26
ATOM     26  C   UNL     1      -0.234   0.080   0.093  0.00  0.00    -0.082 C 
ATOM     27  C   UNL     1       0.036  -0.822  -1.114  0.00  0.00    -0.017 C 
ENDBRANCH  22  26
ENDBRANCH  21  22
BRANCH  21  28
ATOM     28  C   UNL     1       2.513  -1.674   1.784  0.00  0.00    -0.011 C 
BRANCH  28  29
ATOM     29  C   UNL     1       1.961  -2.977   1.203  0.00  0.00    -0.019 C 
ATOM     30  C   UNL     1       2.431  -3.129  -0.245  0.00  0.00    +0.007 C 
ATOM     31  C   UNL     1       2.469  -4.160   2.030  0.00  0.00    +0.007 C 
ENDBRANCH  28  29
ENDBRANCH  21  28
ENDBRANCH  20  21
ENDBRANCH   1  20
TORSDOF 10
