REMARK  Name = ZINC65127203
REMARK  10 active torsions:
REMARK  status: ('A' for Active; 'I' for Inactive)
REMARK    1  A    between atoms: C_1  and  C_2
REMARK    2  A    between atoms: C_2  and  C_3
REMARK    3  A    between atoms: C_3  and  C_4
REMARK    4  A    between atoms: C_4  and  C_5
REMARK    5  A    between atoms: C_5  and  N_6
REMARK    6  A    between atoms: N_9  and  N_10
REMARK    7  A    between atoms: C_11  and  C_13
REMARK    8  A    between atoms: C_13  and  N_14
REMARK    9  A    between atoms: N_14  and  C_15
REMARK   10  A    between atoms: C_16  and  C_18
REMARK                            x       y       z     vdW  Elec       q    Type
REMARK                         _______ _______ _______ _____ _____    ______ ____
ROOT
ATOM      1  N   UNL     1      -3.266  -7.074  -0.259  0.00  0.00    -0.232 N 
ATOM      2  C   UNL     1      -3.058  -8.393  -0.077  0.00  0.00    +0.246 C 
ATOM      3  O   UNL     1      -3.989  -9.124   0.185  0.00  0.00    -0.273 OA
ATOM      4  H   UNL     1      -2.521  -6.489  -0.469  0.00  0.00    +0.173 HD
ENDROOT
BRANCH   1   8
ATOM      5  N   UNL     1      -3.733  -4.416  -0.619  0.00  0.00    -0.298 N 
ATOM      6  C   UNL     1      -4.768  -5.228  -0.327  0.00  0.00    +0.316 C 
ATOM      7  O   UNL     1      -5.890  -4.771  -0.229  0.00  0.00    -0.251 OA
ATOM      8  N   UNL     1      -4.559  -6.547  -0.145  0.00  0.00    -0.218 N 
ATOM      9  H   UNL     1      -2.838  -4.781  -0.698  0.00  0.00    +0.150 HD
ATOM     10  H   UNL     1      -5.305  -7.131   0.065  0.00  0.00    +0.174 HD
BRANCH   5  11
ATOM     11  C   UNL     1      -3.960  -2.982  -0.817  0.00  0.00    +0.106 C 
BRANCH  11  12
ATOM     12  C   UNL     1      -2.630  -2.294  -1.134  0.00  0.00    +0.019 C 
BRANCH  12  13
ATOM     13  C   UNL     1      -2.867  -0.797  -1.341  0.00  0.00    +0.001 C 
BRANCH  13  15
ATOM     14  C   UNL     1      -1.775   1.388  -1.864  0.00  0.00    +0.004 C 
ATOM     15  C   UNL     1      -1.538  -0.109  -1.657  0.00  0.00    -0.003 C 
ENDBRANCH  13  15
ENDBRANCH  12  13
ENDBRANCH  11  12
ENDBRANCH   5  11
ENDBRANCH   1   8
BRANCH   2  16
ATOM     16  C   UNL     1      -1.667  -8.960  -0.200  0.00  0.00    +0.205 C 
BRANCH  16  17
ATOM     17  N   UNL     1      -1.705 -10.404   0.041  0.00  0.00    -0.289 N 
ATOM     18  C   UNL     1      -1.915 -11.328  -1.077  0.00  0.00    +0.133 C 
ATOM     19  C   UNL     1      -1.547 -10.884   1.290  0.00  0.00    +0.282 C 
ATOM     20  O   UNL     1      -1.469 -10.116   2.231  0.00  0.00    -0.267 OA
BRANCH  19  21
ATOM     21  C   UNL     1      -1.469 -12.330   1.516  0.00  0.00    +0.191 A 
ATOM     22  C   UNL     1      -1.431 -12.951   2.732  0.00  0.00    +0.056 A 
ATOM     23  C   UNL     1      -1.358 -14.329   2.479  0.00  0.00    +0.058 A 
ATOM     24  C   UNL     1      -1.355 -14.488   1.135  0.00  0.00    +0.171 A 
ATOM     25  O   UNL     1      -1.427 -13.280   0.559  0.00  0.00    -0.444 OA
ATOM     26 BR   UNL     1      -1.270 -16.141   0.221  0.00  0.00    -0.008 Br
ENDBRANCH  19  21
ENDBRANCH  16  17
ENDBRANCH   2  16
TORSDOF 8
