REMARK  Name = ZINC54647875
REMARK  7 active torsions:
REMARK  status: ('A' for Active; 'I' for Inactive)
REMARK    1  A    between atoms: C_1  and  C_2
REMARK    2  A    between atoms: C_7  and  C_8
REMARK    3  A    between atoms: C_7  and  C_9
REMARK    4  A    between atoms: N_12  and  C_15
REMARK    5  A    between atoms: C_15  and  C_16
REMARK    6  A    between atoms: C_16  and  C_17
REMARK    7  A    between atoms: C_23  and  C_25
REMARK                            x       y       z     vdW  Elec       q    Type
REMARK                         _______ _______ _______ _____ _____    ______ ____
ROOT
ATOM      1  C   UNL     1      -3.497  -2.317   1.781  0.00  0.00    +0.115 C 
ENDROOT
BRANCH   1   2
ATOM      2  C   UNL     1      -4.874  -2.930   1.814  0.00  0.00    +0.220 C 
ATOM      3  O   UNL     1      -5.310  -3.494   0.833  0.00  0.00    -0.275 OA
ATOM      4  N   UNL     1      -5.620  -2.852   2.934  0.00  0.00    -0.263 N 
ATOM      5  C   UNL     1      -6.890  -3.417   2.964  0.00  0.00    +0.188 A 
ATOM      6  N   UNL     1      -7.533  -4.069   2.015  0.00  0.00    -0.126 NA
ATOM      7  N   UNL     1      -8.696  -4.530   2.192  0.00  0.00    -0.144 NA
ATOM      8  C   UNL     1      -9.284  -4.354   3.358  0.00  0.00    +0.107 A 
ATOM      9  S   UNL     1      -8.007  -3.454   4.226  0.00  0.00    -0.035 S 
ATOM     10  H   UNL     1      -5.271  -2.401   3.718  0.00  0.00    +0.157 HD
BRANCH   8  11
ATOM     11  C   UNL     1     -10.647  -4.794   3.829  0.00  0.00    +0.047 C 
ATOM     12  C   UNL     1     -10.745  -6.319   3.754  0.00  0.00    +0.010 C 
ATOM     13  C   UNL     1     -12.128  -6.766   4.232  0.00  0.00    +0.001 C 
ATOM     14  C   UNL     1     -13.202  -6.141   3.340  0.00  0.00    +0.000 C 
ATOM     15  C   UNL     1     -13.104  -4.616   3.415  0.00  0.00    +0.001 C 
ATOM     16  C   UNL     1     -11.721  -4.170   2.937  0.00  0.00    +0.010 C 
ENDBRANCH   8  11
ENDBRANCH   1   2
BRANCH   1  17
ATOM     17  C   UNL     1      -2.870  -2.546   0.404  0.00  0.00    +0.125 C 
BRANCH  17  28
ATOM     18  C   UNL     1      -0.019   1.526   0.010  0.00  0.00    +0.021 C 
ATOM     19  C   UNL     1       0.002  -0.004   0.002  0.00  0.00    +0.051 C 
ATOM     20  C   UNL     1       0.777  -0.595  -1.201  0.00  0.00    +0.017 C 
ATOM     21  C   UNL     1       1.361  -1.934  -0.713  0.00  0.00    +0.014 C 
ATOM     22  C   UNL     1       0.910  -2.085   0.760  0.00  0.00    +0.082 C 
ATOM     23  C   UNL     1       0.737  -0.613   1.230  0.00  0.00    -0.010 C 
ATOM     24  C   UNL     1       2.093   0.060   1.451  0.00  0.00    +0.012 C 
ATOM     25  C   UNL     1      -0.130  -0.532   2.488  0.00  0.00    +0.012 C 
ATOM     26  C   UNL     1      -0.477  -2.702   0.736  0.00  0.00    +0.225 C 
ATOM     27  O   UNL     1      -0.633  -3.864   1.044  0.00  0.00    -0.275 OA
ATOM     28  N   UNL     1      -1.532  -1.950   0.372  0.00  0.00    -0.241 N 
ATOM     29  C   UNL     1      -1.387  -0.616   0.002  0.00  0.00    +0.228 C 
ATOM     30  O   UNL     1      -2.342   0.039  -0.355  0.00  0.00    -0.275 OA
ENDBRANCH  17  28
ENDBRANCH   1  17
TORSDOF 4
