REMARK  Name = ZINC64208485
REMARK  7 active torsions:
REMARK  status: ('A' for Active; 'I' for Inactive)
REMARK    1  A    between atoms: C_1  and  N_2
REMARK    2  A    between atoms: N_2  and  C_3
REMARK    3  A    between atoms: C_3  and  C_4
REMARK    4  A    between atoms: N_14  and  C_15
REMARK    5  A    between atoms: C_15  and  C_16
REMARK    6  A    between atoms: C_16  and  C_18
REMARK    7  A    between atoms: C_16  and  C_23
REMARK                            x       y       z     vdW  Elec       q    Type
REMARK                         _______ _______ _______ _____ _____    ______ ____
ROOT
ATOM      1  C   UNL     1      -0.022  -0.717  -3.605  0.00  0.00    +0.118 C 
ENDROOT
BRANCH   1   6
ATOM      2  C   UNL     1      -0.018   1.461   0.010  0.00  0.00    +0.134 C 
ATOM      3  N   UNL     1       0.002  -0.004   0.002  0.00  0.00    -0.284 N 
ATOM      4  C   UNL     1       0.000  -0.672  -1.169  0.00  0.00    +0.302 C 
ATOM      5  O   UNL     1       0.017  -1.887  -1.175  0.00  0.00    -0.253 OA
ATOM      6  N   UNL     1      -0.020   0.009  -2.332  0.00  0.00    -0.298 N 
ATOM      7  H   UNL     1      -0.033   0.978  -2.327  0.00  0.00    +0.150 HD
BRANCH   3   8
ATOM      8  C   UNL     1       0.024  -0.743   1.267  0.00  0.00    +0.147 C 
BRANCH   8   9
ATOM      9  C   UNL     1      -1.389  -1.016   1.714  0.00  0.00    +0.005 A 
ATOM     10  C   UNL     1      -1.975  -0.218   2.678  0.00  0.00    +0.011 A 
ATOM     11  C   UNL     1      -3.271  -0.467   3.089  0.00  0.00    +0.039 A 
ATOM     12  C   UNL     1      -3.984  -1.516   2.535  0.00  0.00    +0.126 A 
ATOM     13  C   UNL     1      -3.398  -2.316   1.569  0.00  0.00    +0.077 A 
ATOM     14  C   UNL     1      -2.102  -2.063   1.154  0.00  0.00    +0.131 A 
ATOM     15  F   UNL     1      -1.531  -2.839   0.207  0.00  0.00    -0.205 F 
ATOM     16  F   UNL     1      -5.250  -1.760   2.937  0.00  0.00    -0.205 F 
ENDBRANCH   8   9
ENDBRANCH   3   8
ENDBRANCH   1   6
BRANCH   1  17
ATOM     17  C   UNL     1      -0.047   0.283  -4.762  0.00  0.00    +0.071 C 
BRANCH  17  18
ATOM     18  C   UNL     1      -0.173  -0.461  -6.067  0.00  0.00    -0.032 C 
ATOM     19  C   UNL     1      -1.164  -0.340  -6.979  0.00  0.00    -0.000 A 
ATOM     20  C   UNL     1      -2.376   0.487  -7.028  0.00  0.00    +0.010 A 
ATOM     21  C   UNL     1      -3.197   0.386  -8.098  0.00  0.00    +0.001 A 
ATOM     22  C   UNL     1      -2.921  -0.488  -9.159  0.00  0.00    +0.002 A 
ATOM     23  C   UNL     1      -1.828  -1.280  -9.185  0.00  0.00    +0.026 A 
ATOM     24  C   UNL     1      -0.895  -1.254  -8.112  0.00  0.00    +0.043 A 
ATOM     25  N   UNL     1       0.219  -1.914  -7.908  0.00  0.00    -0.380 N 
ATOM     26  C   UNL     1       0.786  -1.489  -6.624  0.00  0.00    +0.145 C 
ATOM     27  H   UNL     1       0.606  -2.572  -8.508  0.00  0.00    +0.160 HD
ENDBRANCH  17  18
BRANCH  17  28
ATOM     28  C   UNL     1       1.230   1.083  -4.762  0.00  0.00    -0.002 A 
ATOM     29  C   UNL     1       1.398   2.422  -4.634  0.00  0.00    +0.012 A 
ATOM     30  C   UNL     1       2.679   2.943  -4.662  0.00  0.00    +0.008 A 
ATOM     31  C   UNL     1       3.728   2.099  -4.816  0.00  0.00    +0.045 A 
ATOM     32  S   UNL     1       2.914   0.513  -4.921  0.00  0.00    -0.101 S 
ENDBRANCH  17  28
ENDBRANCH   1  17
TORSDOF 6
