REMARK  Name = ZINC06245633
REMARK  12 active torsions:
REMARK  status: ('A' for Active; 'I' for Inactive)
REMARK    1  A    between atoms: C_1  and  C_2
REMARK    2  A    between atoms: C_5  and  S_8
REMARK    3  A    between atoms: S_8  and  N_11
REMARK    4  A    between atoms: N_11  and  C_12
REMARK    5  A    between atoms: C_12  and  C_14
REMARK    6  A    between atoms: C_12  and  C_30
REMARK    7  A    between atoms: C_17  and  N_27
REMARK    8  A    between atoms: C_23  and  N_24
REMARK    9  A    between atoms: N_24  and  C_25
REMARK   10  A    between atoms: N_24  and  C_26
REMARK   11  A    between atoms: N_27  and  C_28
REMARK   12  A    between atoms: N_27  and  C_29
REMARK                            x       y       z     vdW  Elec       q    Type
REMARK                         _______ _______ _______ _____ _____    ______ ____
ROOT
ATOM      1  C   UNL     1       3.799   3.090  -0.067  0.00  0.00    +0.158 C 
ENDROOT
BRANCH   1   2
ATOM      2  C   UNL     1       2.387   3.605   0.046  0.00  0.00    -0.017 A 
ATOM      3  C   UNL     1       2.157   4.941   0.177  0.00  0.00    +0.008 A 
ATOM      4  C   UNL     1       0.863   5.440   0.283  0.00  0.00    +0.024 A 
ATOM      5  C   UNL     1      -0.224   4.590   0.259  0.00  0.00    +0.039 A 
ATOM      6  C   UNL     1      -0.015   3.203   0.124  0.00  0.00    +0.024 A 
ATOM      7  C   UNL     1       1.307   2.706   0.017  0.00  0.00    -0.009 A 
ATOM      8  C   UNL     1       1.516   1.323  -0.117  0.00  0.00    +0.009 A 
ATOM      9  C   UNL     1       0.453   0.473  -0.143  0.00  0.00    +0.002 A 
ATOM     10  C   UNL     1      -0.851   0.950  -0.044  0.00  0.00    +0.024 A 
ATOM     11  C   UNL     1      -1.098   2.300   0.095  0.00  0.00    +0.039 A 
BRANCH  11  12
ATOM     12  N   UNL     1      -2.405   2.768   0.199  0.00  0.00    -0.335 N 
ATOM     13  C   UNL     1      -3.190   2.408  -0.990  0.00  0.00    +0.129 C 
ATOM     14  C   UNL     1      -3.047   2.271   1.423  0.00  0.00    +0.129 C 
ENDBRANCH  11  12
BRANCH   5  15
ATOM     15  N   UNL     1      -1.516   5.099   0.365  0.00  0.00    -0.335 N 
ATOM     16  C   UNL     1      -1.694   5.821   1.632  0.00  0.00    +0.129 C 
ATOM     17  C   UNL     1      -1.839   5.960  -0.781  0.00  0.00    +0.129 C 
ENDBRANCH   5  15
ENDBRANCH   1   2
BRANCH   1  18
ATOM     18  C   UNL     1       4.165   2.926  -1.543  0.00  0.00    +0.211 C 
ATOM     19 CL   UNL     1       3.899   4.487  -2.405  0.00  0.00    -0.081 Cl
ATOM     20 CL   UNL     1       5.899   2.451  -1.683  0.00  0.00    -0.081 Cl
ATOM     21 CL   UNL     1       3.130   1.648  -2.281  0.00  0.00    -0.081 Cl
ENDBRANCH   1  18
BRANCH   1  22
ATOM     22  N   UNL     1       4.718   4.043   0.562  0.00  0.00    -0.178 NA
ATOM     23  H   UNL     1       5.046   4.804   0.058  0.00  0.00    +0.149 HD
BRANCH  22  24
ATOM     24  S   UNL     1       5.195   3.819   2.132  0.00  0.00    +0.059 S 
ATOM     25  O   UNL     1       6.127   4.852   2.423  0.00  0.00    -0.153 OA
ATOM     26  O   UNL     1       4.011   3.625   2.893  0.00  0.00    -0.153 OA
BRANCH  24  31
ATOM     27  C   UNL     1       8.256  -1.376   2.345  0.00  0.00    +0.044 C 
ATOM     28  C   UNL     1       7.491  -0.078   2.292  0.00  0.00    -0.050 A 
ATOM     29  C   UNL     1       8.138   1.091   1.937  0.00  0.00    +0.005 A 
ATOM     30  C   UNL     1       7.437   2.281   1.888  0.00  0.00    +0.029 A 
ATOM     31  C   UNL     1       6.089   2.302   2.194  0.00  0.00    +0.105 A 
ATOM     32  C   UNL     1       5.443   1.134   2.554  0.00  0.00    +0.029 A 
ATOM     33  C   UNL     1       6.144  -0.057   2.598  0.00  0.00    +0.005 A 
ENDBRANCH  24  31
ENDBRANCH  22  24
ENDBRANCH   1  22
TORSDOF 7
