REMARK  Name = ZINC63796100
REMARK  5 active torsions:
REMARK  status: ('A' for Active; 'I' for Inactive)
REMARK    1  A    between atoms: C_13  and  C_15
REMARK    2  A    between atoms: C_15  and  C_16
REMARK    3  A    between atoms: C_16  and  C_17
REMARK    4  A    between atoms: C_17  and  N_19
REMARK    5  A    between atoms: C_23  and  C_26
REMARK                            x       y       z     vdW  Elec       q    Type
REMARK                         _______ _______ _______ _____ _____    ______ ____
ROOT
ATOM      1  C   UNL     1       2.370   1.437   0.014  0.00  0.00    +0.005 A 
ATOM      2  C   UNL     1       1.127   2.057   0.003  0.00  0.00    +0.018 A 
ATOM      3  C   UNL     1      -0.015   1.282  -0.017  0.00  0.00    +0.084 A 
ATOM      4  N   UNL     1       0.061  -0.036  -0.024  0.00  0.00    -0.350 N 
ATOM      5  C   UNL     1       1.227  -0.664  -0.014  0.00  0.00    +0.099 A 
ATOM      6  C   UNL     1       2.418   0.054   0.005  0.00  0.00    +0.042 A 
ATOM      7  N   UNL     1       1.260  -2.054  -0.022  0.00  0.00    -0.314 N 
ATOM      8  C   UNL     1       2.538  -2.770  -0.142  0.00  0.00    +0.125 C 
ATOM      9  C   UNL     1       2.671  -3.737   1.041  0.00  0.00    +0.126 C 
ATOM     10  N   UNL     1       1.430  -4.516   1.153  0.00  0.00    -0.298 N 
ATOM     11  C   UNL     1       0.152  -3.799   1.273  0.00  0.00    +0.126 C 
ATOM     12  C   UNL     1       0.020  -2.833   0.096  0.00  0.00    +0.125 C 
ATOM     13  C   UNL     1       1.462  -5.863   1.145  0.00  0.00    +0.216 C 
ATOM     14  O   UNL     1       2.522  -6.443   1.045  0.00  0.00    -0.276 OA
ATOM     15  H   UNL     1      -0.757  -0.557  -0.038  0.00  0.00    +0.166 HD
ENDROOT
BRANCH  13  16
ATOM     16  C   UNL     1       0.181  -6.649   1.261  0.00  0.00    +0.105 C 
BRANCH  16  17
ATOM     17  C   UNL     1       0.496  -8.145   1.226  0.00  0.00    +0.107 C 
BRANCH  17  18
ATOM     18  C   UNL     1      -0.785  -8.931   1.341  0.00  0.00    +0.239 C 
ATOM     19  O   UNL     1      -1.847  -8.350   1.442  0.00  0.00    -0.274 OA
BRANCH  18  20
ATOM     20  N   UNL     1      -0.753 -10.265   1.334  0.00  0.00    -0.154 NA
ATOM     21  C   UNL     1      -1.878 -10.955   1.435  0.00  0.00    +0.204 C 
ATOM     22  N   UNL     1      -2.038 -12.317   1.451  0.00  0.00    -0.129 NA
ATOM     23  N   UNL     1      -3.106 -12.884   1.547  0.00  0.00    -0.168 NA
ATOM     24  C   UNL     1      -4.293 -12.003   1.653  0.00  0.00    +0.221 C 
ATOM     25  S   UNL     1      -3.452 -10.366   1.583  0.00  0.00    -0.056 S 
BRANCH  24  26
ATOM     26  C   UNL     1      -5.244 -12.202   0.471  0.00  0.00    +0.155 C 
ATOM     27  C   UNL     1      -4.474 -12.069  -0.867  0.00  0.00    +0.037 C 
ATOM     28  C   UNL     1      -5.380 -12.903  -1.813  0.00  0.00    +0.031 C 
ATOM     29  C   UNL     1      -5.899 -14.014  -0.874  0.00  0.00    +0.160 C 
ATOM     30  O   UNL     1      -5.769 -13.539   0.473  0.00  0.00    -0.374 OA
ENDBRANCH  24  26
ENDBRANCH  18  20
ENDBRANCH  17  18
ENDBRANCH  16  17
ENDBRANCH  13  16
TORSDOF 5
