REMARK  Name = ZINC08677256
REMARK  7 active torsions:
REMARK  status: ('A' for Active; 'I' for Inactive)
REMARK    1  A    between atoms: N_14  and  C_15
REMARK    2  A    between atoms: C_15  and  C_16
REMARK    3  A    between atoms: C_16  and  C_18
REMARK    4  A    between atoms: C_16  and  O_27
REMARK    5  A    between atoms: C_18  and  N_19
REMARK    6  A    between atoms: N_19  and  C_20
REMARK    7  A    between atoms: C_20  and  C_21
REMARK                            x       y       z     vdW  Elec       q    Type
REMARK                         _______ _______ _______ _____ _____    ______ ____
ROOT
ATOM      1  C   UNL     1      -0.017   1.383   0.010  0.00  0.00    +0.017 A 
ATOM      2  C   UNL     1       1.161   2.099   0.002  0.00  0.00    +0.027 A 
ATOM      3  C   UNL     1       2.382   1.433  -0.013  0.00  0.00    +0.050 A 
ATOM      4  C   UNL     1       2.400   0.030  -0.021  0.00  0.00    +0.009 A 
ATOM      5  C   UNL     1       1.203  -0.682  -0.013  0.00  0.00    +0.026 A 
ATOM      6  C   UNL     1       0.002  -0.004   0.002  0.00  0.00    +0.019 A 
ATOM      7 BR   UNL     1      -1.625  -0.969   0.012  0.00  0.00    -0.050 Br
ATOM      8  C   UNL     1       3.819  -0.370  -0.037  0.00  0.00    +0.009 A 
ATOM      9  C   UNL     1       4.466  -1.603  -0.050  0.00  0.00    +0.026 A 
ATOM     10  C   UNL     1       5.845  -1.653  -0.064  0.00  0.00    +0.019 A 
ATOM     11  C   UNL     1       6.586  -0.480  -0.064  0.00  0.00    +0.017 A 
ATOM     12  C   UNL     1       5.957   0.746  -0.052  0.00  0.00    +0.027 A 
ATOM     13  C   UNL     1       4.567   0.816  -0.038  0.00  0.00    +0.050 A 
ATOM     14  N   UNL     1       3.689   1.886  -0.023  0.00  0.00    -0.337 N 
ATOM     15 BR   UNL     1       6.727  -3.325  -0.082  0.00  0.00    -0.050 Br
ENDROOT
BRANCH  14  16
ATOM     16  C   UNL     1       4.087   3.296  -0.020  0.00  0.00    +0.151 C 
BRANCH  16  17
ATOM     17  C   UNL     1       4.240   3.780   1.423  0.00  0.00    +0.117 C 
BRANCH  17  18
ATOM     18  O   UNL     1       2.968   3.744   2.075  0.00  0.00    -0.392 OA
ATOM     19  H   UNL     1       2.297   4.301   1.657  0.00  0.00    +0.210 HD
ENDBRANCH  17  18
BRANCH  17  20
ATOM     20  C   UNL     1       4.775   5.213   1.427  0.00  0.00    -0.049 C 
BRANCH  20  21
ATOM     21  N   UNL     1       5.035   5.635   2.810  0.00  0.00    +0.382 N 
ATOM     22  H   UNL     1       4.178   5.595   3.341  0.00  0.00    -0.086 HD
ATOM     23  H   UNL     1       5.718   5.020   3.227  0.00  0.00    -0.086 HD
BRANCH  21  24
ATOM     24  C   UNL     1       5.549   7.011   2.814  0.00  0.00    -0.051 C 
BRANCH  24  25
ATOM     25  C   UNL     1       5.819   7.451   4.254  0.00  0.00    +0.101 C 
ATOM     26  C   UNL     1       6.329   8.913   4.283  0.00  0.00    +0.032 C 
ATOM     27  C   UNL     1       5.920   9.340   5.719  0.00  0.00    +0.030 C 
ATOM     28  C   UNL     1       4.603   8.562   5.929  0.00  0.00    +0.160 C 
ATOM     29  O   UNL     1       4.597   7.462   5.010  0.00  0.00    -0.378 OA
ENDBRANCH  24  25
ENDBRANCH  21  24
ENDBRANCH  20  21
ENDBRANCH  17  20
ENDBRANCH  16  17
ENDBRANCH  14  16
TORSDOF 7
