REMARK  Name = ZINC65985566
REMARK  5 active torsions:
REMARK  status: ('A' for Active; 'I' for Inactive)
REMARK    1  A    between atoms: C_1  and  C_2
REMARK    2  A    between atoms: C_2  and  C_3
REMARK    3  A    between atoms: C_2  and  C_4
REMARK    4  A    between atoms: C_15  and  C_18
REMARK    5  A    between atoms: N_20  and  C_21
REMARK                            x       y       z     vdW  Elec       q    Type
REMARK                         _______ _______ _______ _____ _____    ______ ____
ROOT
ATOM      1  C   UNL     1      -1.414  -0.520   0.010  0.00  0.00    +0.106 A 
ATOM      2  N   UNL     1      -2.375  -0.339   0.893  0.00  0.00    -0.144 NA
ATOM      3  N   UNL     1      -3.500  -0.880   0.697  0.00  0.00    -0.126 NA
ATOM      4  C   UNL     1      -3.740  -1.622  -0.366  0.00  0.00    +0.189 A 
ATOM      5  S   UNL     1      -2.263  -1.556  -1.174  0.00  0.00    -0.035 S 
ATOM      6  N   UNL     1      -4.910  -2.283  -0.728  0.00  0.00    -0.247 N 
ATOM      7  C   UNL     1      -5.999  -2.207   0.062  0.00  0.00    +0.308 C 
ATOM      8  O   UNL     1      -5.933  -1.639   1.135  0.00  0.00    -0.252 OA
ATOM      9  N   UNL     1      -7.161  -2.760  -0.338  0.00  0.00    -0.285 N 
ATOM     10  C   UNL     1      -7.228  -3.549  -1.576  0.00  0.00    +0.110 C 
ATOM     11  C   UNL     1      -8.343  -2.984  -2.461  0.00  0.00    +0.032 C 
ATOM     12  C   UNL     1      -9.651  -2.948  -1.666  0.00  0.00    +0.078 C 
ATOM     13  C   UNL     1      -9.487  -2.032  -0.452  0.00  0.00    +0.032 C 
ATOM     14  C   UNL     1      -8.384  -2.591   0.459  0.00  0.00    +0.110 C 
ATOM     15  H   UNL     1      -4.941  -2.798  -1.549  0.00  0.00    +0.158 HD
ENDROOT
BRANCH  12  16
ATOM     16  C   UNL     1     -10.758  -2.425  -2.545  0.00  0.00    +0.216 C 
ATOM     17  O   UNL     1     -10.524  -2.111  -3.693  0.00  0.00    -0.276 OA
ATOM     18  N   UNL     1     -12.008  -2.305  -2.055  0.00  0.00    -0.312 N 
ATOM     19  H   UNL     1     -12.195  -2.556  -1.137  0.00  0.00    +0.149 HD
BRANCH  18  20
ATOM     20  C   UNL     1     -13.084  -1.796  -2.909  0.00  0.00    +0.073 C 
ATOM     21  C   UNL     1     -13.082  -0.266  -2.874  0.00  0.00    +0.022 C 
ATOM     22  C   UNL     1     -14.206   0.265  -3.766  0.00  0.00    +0.002 C 
ATOM     23  C   UNL     1     -15.551  -0.254  -3.255  0.00  0.00    +0.000 C 
ATOM     24  C   UNL     1     -15.553  -1.784  -3.290  0.00  0.00    +0.002 C 
ATOM     25  C   UNL     1     -14.429  -2.316  -2.398  0.00  0.00    +0.022 C 
ENDBRANCH  18  20
ENDBRANCH  12  16
BRANCH   1  27
ATOM     26  C   UNL     1      -0.023   1.533   0.006  0.00  0.00    +0.014 C 
ATOM     27  C   UNL     1      -0.001   0.003  -0.002  0.00  0.00    +0.040 C 
ATOM     28  C   UNL     1       0.741  -0.502   1.238  0.00  0.00    +0.014 C 
ENDBRANCH   1  27
TORSDOF 3
