REMARK  Name = ZINC14275235
REMARK  14 active torsions:
REMARK  status: ('A' for Active; 'I' for Inactive)
REMARK    1  A    between atoms: C_1  and  C_2
REMARK    2  A    between atoms: C_2  and  O_3
REMARK    3  A    between atoms: O_3  and  C_4
REMARK    4  A    between atoms: C_6  and  C_16
REMARK    5  A    between atoms: C_8  and  O_13
REMARK    6  A    between atoms: C_9  and  O_10
REMARK    7  A    between atoms: O_10  and  C_11
REMARK    8  A    between atoms: C_11  and  C_12
REMARK    9  A    between atoms: O_13  and  C_14
REMARK   10  A    between atoms: C_14  and  C_15
REMARK   11  A    between atoms: N_18  and  C_19
REMARK   12  A    between atoms: C_19  and  N_21
REMARK   13  A    between atoms: N_21  and  C_22
REMARK   14  A    between atoms: C_25  and  N_29
REMARK                            x       y       z     vdW  Elec       q    Type
REMARK                         _______ _______ _______ _____ _____    ______ ____
ROOT
ATOM      1  C   UNL     1      -0.806   7.573   1.486  0.00  0.00    +0.250 C 
ATOM      2  O   UNL     1      -1.638   8.182   0.842  0.00  0.00    -0.270 OA
ATOM      3  N   UNL     1       0.002   8.233   2.338  0.00  0.00    -0.264 N 
ATOM      4  H   UNL     1       0.666   7.747   2.852  0.00  0.00    +0.157 HD
ENDROOT
BRANCH   1   7
ATOM      5  C   UNL     1       0.384   4.038   1.935  0.00  0.00    +0.166 A 
ATOM      6  C   UNL     1       0.274   5.409   2.074  0.00  0.00    +0.062 A 
ATOM      7  C   UNL     1      -0.682   6.111   1.334  0.00  0.00    +0.044 A 
ATOM      8  C   UNL     1      -1.520   5.425   0.451  0.00  0.00    +0.062 A 
ATOM      9  C   UNL     1      -1.401   4.055   0.311  0.00  0.00    +0.166 A 
ATOM     10  C   UNL     1      -0.449   3.358   1.050  0.00  0.00    +0.204 A 
BRANCH   5  11
ATOM     11  O   UNL     1       1.309   3.354   2.660  0.00  0.00    -0.488 OA
BRANCH  11  13
ATOM     12  C   UNL     1       3.102   3.181   4.271  0.00  0.00    +0.048 C 
ATOM     13  C   UNL     1       2.129   4.115   3.549  0.00  0.00    +0.226 C 
ENDBRANCH  11  13
ENDBRANCH   5  11
BRANCH  10  14
ATOM     14  O   UNL     1      -0.335   2.011   0.911  0.00  0.00    -0.485 OA
BRANCH  14  15
ATOM     15  C   UNL     1       0.568   1.536  -0.090  0.00  0.00    +0.226 C 
ATOM     16  C   UNL     1       0.562   0.006  -0.098  0.00  0.00    +0.048 C 
ENDBRANCH  14  15
ENDBRANCH  10  14
BRANCH   9  17
ATOM     17  O   UNL     1      -2.216   3.386  -0.548  0.00  0.00    -0.488 OA
BRANCH  17  18
ATOM     18  C   UNL     1      -3.170   4.164  -1.274  0.00  0.00    +0.226 C 
ATOM     19  C   UNL     1      -3.990   3.246  -2.183  0.00  0.00    +0.048 C 
ENDBRANCH  17  18
ENDBRANCH   9  17
ENDBRANCH   1   7
BRANCH   3  20
ATOM     20  C   UNL     1      -0.112   9.569   2.477  0.00  0.00    +0.141 C 
ATOM     21  S   UNL     1      -1.283  10.427   1.570  0.00  0.00    -0.018 S 
BRANCH  20  22
ATOM     22  N   UNL     1       0.697  10.229   3.329  0.00  0.00    -0.296 N 
ATOM     23  H   UNL     1       1.318   9.737   3.889  0.00  0.00    +0.154 HD
BRANCH  22  24
ATOM     24  C   UNL     1       0.641  11.625   3.407  0.00  0.00    +0.047 A 
ATOM     25  C   UNL     1      -0.586  12.268   3.509  0.00  0.00    +0.026 A 
ATOM     26  C   UNL     1      -0.637  13.646   3.585  0.00  0.00    +0.034 A 
ATOM     27  C   UNL     1       0.531  14.386   3.561  0.00  0.00    +0.127 A 
ATOM     28  C   UNL     1       1.754  13.750   3.460  0.00  0.00    +0.049 A 
ATOM     29  C   UNL     1       1.813  12.371   3.388  0.00  0.00    +0.041 A 
ATOM     30 BR   UNL     1       3.487  11.501   3.258  0.00  0.00    -0.048 Br
BRANCH  27  31
ATOM     31  N   UNL     1       0.471  15.863   3.643  0.00  0.00    +0.056 N 
ATOM     32  O   UNL     1      -0.606  16.425   3.732  0.00  0.00    -0.126 OA
ATOM     33  O   UNL     1       1.499  16.516   3.622  0.00  0.00    -0.126 OA
ENDBRANCH  27  31
ENDBRANCH  22  24
ENDBRANCH  20  22
ENDBRANCH   3  20
TORSDOF 11
