REMARK  Name = ZINC01879449
REMARK  6 active torsions:
REMARK  status: ('A' for Active; 'I' for Inactive)
REMARK    1  A    between atoms: C_1  and  C_2
REMARK    2  A    between atoms: C_5  and  N_8
REMARK    3  A    between atoms: C_12  and  C_17
REMARK    4  A    between atoms: C_17  and  N_57
REMARK    5  A    between atoms: C_20  and  C_23
REMARK    6  A    between atoms: C_23  and  C_24
REMARK                            x       y       z     vdW  Elec       q    Type
REMARK                         _______ _______ _______ _____ _____    ______ ____
ROOT
ATOM      1  N   UNL     1       6.172   0.279   4.191  0.00  0.00    -0.213 NA
ATOM      2  C   UNL     1       7.279   0.272   3.464  0.00  0.00    +0.233 A 
ATOM      3  N   UNL     1       7.220   0.049   2.104  0.00  0.00    -0.314 N 
ATOM      4  H   UNL     1       6.367  -0.104   1.668  0.00  0.00    +0.170 HD
ATOM      5  C   UNL     1       8.366   0.053   1.386  0.00  0.00    +0.097 A 
ATOM      6  N   UNL     1       9.512   0.256   1.983  0.00  0.00    -0.204 NA
ATOM      7  C   UNL     1       9.571   0.468   3.306  0.00  0.00    +0.217 A 
ATOM      8  N   UNL     1       8.472   0.477   4.042  0.00  0.00    -0.179 NA
ATOM      9  N   UNL     1      10.790   0.678   3.906  0.00  0.00    -0.327 N 
ATOM     10  H   UNL     1      10.840   0.831   4.862  0.00  0.00    +0.145 HD
ATOM     11  H   UNL     1      11.600   0.672   3.373  0.00  0.00    +0.145 HD
ENDROOT
BRANCH   1  16
ATOM     12  C   UNL     1       6.407   1.610   9.670  0.00  0.00    +0.044 C 
ATOM     13  C   UNL     1       6.340   1.254   8.207  0.00  0.00    -0.050 A 
ATOM     14  C   UNL     1       6.392  -0.073   7.818  0.00  0.00    +0.005 A 
ATOM     15  C   UNL     1       6.337  -0.406   6.481  0.00  0.00    +0.028 A 
ATOM     16  C   UNL     1       6.228   0.601   5.518  0.00  0.00    +0.068 A 
ATOM     17  C   UNL     1       6.175   1.939   5.918  0.00  0.00    +0.028 A 
ATOM     18  C   UNL     1       6.231   2.257   7.259  0.00  0.00    +0.005 A 
ENDBRANCH   1  16
BRANCH   5  19
ATOM     19  C   UNL     1       8.323  -0.183  -0.102  0.00  0.00    -0.003 C 
BRANCH  19  25
ATOM     20  C   UNL     1       9.271   2.036  -0.298  0.00  0.00    -0.078 C 
ATOM     21  C   UNL     1      10.248   2.895  -1.105  0.00  0.00    -0.015 C 
ATOM     22  C   UNL     1      11.668   2.352  -0.922  0.00  0.00    -0.010 C 
ATOM     23  C   UNL     1      11.706   0.886  -1.363  0.00  0.00    -0.015 C 
ATOM     24  C   UNL     1      10.687   0.086  -0.549  0.00  0.00    -0.078 C 
ATOM     25  N   UNL     1       9.339   0.643  -0.787  0.00  0.00    +0.384 N 
ATOM     26  H   UNL     1       9.149   0.635  -1.796  0.00  0.00    -0.081 HD
BRANCH  22  27
ATOM     27  C   UNL     1      12.641   3.169  -1.774  0.00  0.00    +0.038 C 
BRANCH  27  28
ATOM     28  C   UNL     1      12.693   4.584  -1.260  0.00  0.00    -0.047 A 
ATOM     29  C   UNL     1      11.825   5.535  -1.763  0.00  0.00    +0.003 A 
ATOM     30  C   UNL     1      11.871   6.833  -1.288  0.00  0.00    +0.000 A 
ATOM     31  C   UNL     1      12.790   7.181  -0.317  0.00  0.00    +0.000 A 
ATOM     32  C   UNL     1      13.662   6.231   0.183  0.00  0.00    +0.000 A 
ATOM     33  C   UNL     1      13.613   4.933  -0.289  0.00  0.00    +0.003 A 
ENDBRANCH  27  28
ENDBRANCH  22  27
ENDBRANCH  19  25
ENDBRANCH   5  19
TORSDOF 5
