REMARK  Name = ZINC58948735
REMARK  11 active torsions:
REMARK  status: ('A' for Active; 'I' for Inactive)
REMARK    1  A    between atoms: C_1  and  C_2
REMARK    2  A    between atoms: C_3  and  C_14
REMARK    3  A    between atoms: C_4  and  C_13
REMARK    4  A    between atoms: C_9  and  S_11
REMARK    5  A    between atoms: S_11  and  C_12
REMARK    6  A    between atoms: C_14  and  C_15
REMARK    7  A    between atoms: N_17  and  C_18
REMARK    8  A    between atoms: C_18  and  C_19
REMARK    9  A    between atoms: C_22  and  C_25
REMARK   10  A    between atoms: C_25  and  N_26
REMARK   11  A    between atoms: C_30  and  C_33
REMARK                            x       y       z     vdW  Elec       q    Type
REMARK                         _______ _______ _______ _____ _____    ______ ____
ROOT
ATOM      1  C   UNL     1      -2.893   0.356   1.435  0.00  0.00    +0.218 C 
ATOM      2  O   UNL     1      -2.159   0.039   2.347  0.00  0.00    -0.275 OA
ATOM      3  N   UNL     1      -4.040   1.015   1.690  0.00  0.00    -0.311 N 
ATOM      4  H   UNL     1      -4.626   1.269   0.960  0.00  0.00    +0.149 HD
ENDROOT
BRANCH   1   5
ATOM      5  C   UNL     1      -2.520   0.013   0.015  0.00  0.00    +0.134 C 
BRANCH   5   8
ATOM      6  C   UNL     1      -0.018   1.503   0.010  0.00  0.00    +0.066 C 
ATOM      7  C   UNL     1       0.002  -0.004   0.002  0.00  0.00    +0.047 A 
ATOM      8  C   UNL     1      -1.202  -0.717   0.004  0.00  0.00    +0.004 A 
ATOM      9  C   UNL     1      -1.169  -2.075  -0.004  0.00  0.00    +0.049 A 
ATOM     10  N   UNL     1       0.035  -2.706  -0.014  0.00  0.00    -0.200 N 
ATOM     11  C   UNL     1       1.192  -1.980  -0.015  0.00  0.00    +0.254 A 
ATOM     12  N   UNL     1       1.151  -0.643  -0.012  0.00  0.00    -0.216 NA
ATOM     13  N   UNL     1       2.202  -2.844  -0.025  0.00  0.00    -0.183 NA
ATOM     14  C   UNL     1       1.728  -4.088  -0.030  0.00  0.00    +0.211 A 
ATOM     15  N   UNL     1       0.410  -4.055  -0.023  0.00  0.00    -0.137 NA
ATOM     16  C   UNL     1      -2.449  -2.871  -0.002  0.00  0.00    +0.066 C 
BRANCH  14  17
ATOM     17  S   UNL     1       2.710  -5.551  -0.044  0.00  0.00    -0.088 S 
ATOM     18  C   UNL     1       4.416  -4.935  -0.049  0.00  0.00    +0.093 C 
ENDBRANCH  14  17
ENDBRANCH   5   8
ENDBRANCH   1   5
BRANCH   3  19
ATOM     19  C   UNL     1      -4.402   1.349   3.070  0.00  0.00    +0.139 C 
BRANCH  19  20
ATOM     20  C   UNL     1      -5.720   2.079   3.081  0.00  0.00    -0.030 A 
ATOM     21  C   UNL     1      -5.747   3.458   2.979  0.00  0.00    +0.005 A 
ATOM     22  C   UNL     1      -6.957   4.127   2.990  0.00  0.00    +0.002 A 
ATOM     23  C   UNL     1      -8.138   3.419   3.101  0.00  0.00    -0.064 A 
ATOM     24  C   UNL     1      -8.111   2.040   3.201  0.00  0.00    +0.002 A 
ATOM     25  C   UNL     1      -6.902   1.370   3.187  0.00  0.00    +0.005 A 
BRANCH  23  26
ATOM     26  C   UNL     1      -9.457   4.149   3.113  0.00  0.00    -0.043 C 
BRANCH  26  27
ATOM     27  N   UNL     1      -9.954   4.285   1.738  0.00  0.00    +0.383 N 
ATOM     28  C   UNL     1      -9.037   5.135   0.969  0.00  0.00    -0.078 C 
ATOM     29  C   UNL     1      -9.506   5.213  -0.485  0.00  0.00    -0.018 C 
ATOM     30  C   UNL     1     -10.916   5.810  -0.529  0.00  0.00    -0.001 C 
ATOM     31  C   UNL     1     -11.848   4.957   0.336  0.00  0.00    -0.031 C 
ATOM     32  C   UNL     1     -11.292   4.888   1.760  0.00  0.00    -0.075 C 
ATOM     33  C   UNL     1     -13.242   5.589   0.361  0.00  0.00    +0.005 C 
ATOM     34  H   UNL     1     -10.005   3.373   1.308  0.00  0.00    -0.081 HD
ENDBRANCH  26  27
ENDBRANCH  23  26
ENDBRANCH  19  20
ENDBRANCH   3  19
TORSDOF 7
