REMARK  Name = ZINC49573590
REMARK  6 active torsions:
REMARK  status: ('A' for Active; 'I' for Inactive)
REMARK    1  A    between atoms: C_1  and  C_2
REMARK    2  A    between atoms: C_5  and  C_8
REMARK    3  A    between atoms: C_14  and  C_15
REMARK    4  A    between atoms: C_18  and  O_23
REMARK    5  A    between atoms: C_19  and  O_21
REMARK    6  A    between atoms: O_21  and  C_22
REMARK                            x       y       z     vdW  Elec       q    Type
REMARK                         _______ _______ _______ _____ _____    ______ ____
ROOT
ATOM      1  C   UNL     1       0.404  -4.417  -0.486  0.00  0.00    +0.130 C 
ATOM      2  N   UNL     1       0.480  -5.126   0.614  0.00  0.00    -0.164 NA
ATOM      3  N   UNL     1       0.269  -6.489   0.596  0.00  0.00    -0.153 N 
ATOM      4  C   UNL     1       0.234  -7.332   1.728  0.00  0.00    +0.132 C 
ATOM      5  N   UNL     1      -0.021  -6.902   2.935  0.00  0.00    -0.385 N 
ATOM      6  C   UNL     1       0.517  -8.760   1.410  0.00  0.00    +0.079 C 
ATOM      7  C   UNL     1       1.170  -9.586   2.297  0.00  0.00    +0.024 C 
ATOM      8  C   UNL     1       0.057  -9.245   0.085  0.00  0.00    +0.273 C 
ATOM      9  O   UNL     1      -0.181 -10.427  -0.103  0.00  0.00    -0.268 OA
ATOM     10  N   UNL     1      -0.092  -8.342  -0.904  0.00  0.00    -0.152 NA
ATOM     11  C   UNL     1       0.046  -7.068  -0.635  0.00  0.00    +0.181 C 
ATOM     12  S   UNL     1       0.017  -5.659  -1.712  0.00  0.00    -0.033 S 
ATOM     13  H   UNL     1      -0.199  -5.961   3.088  0.00  0.00    +0.157 HD
ATOM     14  H   UNL     1      -0.033  -7.525   3.679  0.00  0.00    +0.157 HD
ENDROOT
BRANCH   1  19
ATOM     15  C   UNL     1       1.109   1.253  -1.185  0.00  0.00    +0.044 C 
ATOM     16  C   UNL     1       0.924  -0.232  -1.002  0.00  0.00    -0.050 A 
ATOM     17  C   UNL     1       0.626  -1.028  -2.093  0.00  0.00    +0.004 A 
ATOM     18  C   UNL     1       0.456  -2.388  -1.932  0.00  0.00    +0.011 A 
ATOM     19  C   UNL     1       0.585  -2.959  -0.666  0.00  0.00    +0.009 A 
ATOM     20  C   UNL     1       0.886  -2.151   0.430  0.00  0.00    +0.011 A 
ATOM     21  C   UNL     1       1.059  -0.793   0.256  0.00  0.00    +0.004 A 
ENDBRANCH   1  19
BRANCH   7  22
ATOM     22  C   UNL     1       1.595 -10.923   1.877  0.00  0.00    -0.021 A 
ATOM     23  C   UNL     1       2.068 -11.133   0.574  0.00  0.00    +0.012 A 
ATOM     24  C   UNL     1       2.467 -12.391   0.182  0.00  0.00    +0.050 A 
ATOM     25  C   UNL     1       2.401 -13.454   1.075  0.00  0.00    +0.158 A 
ATOM     26  C   UNL     1       1.931 -13.254   2.373  0.00  0.00    +0.162 A 
ATOM     27  C   UNL     1       1.536 -11.995   2.778  0.00  0.00    +0.057 A 
BRANCH  26  28
ATOM     28  O   UNL     1       1.869 -14.298   3.242  0.00  0.00    -0.491 OA
ATOM     29  C   UNL     1       1.378 -14.021   4.555  0.00  0.00    +0.277 C 
ENDBRANCH  26  28
BRANCH  25  30
ATOM     30  O   UNL     1       2.796 -14.692   0.681  0.00  0.00    -0.503 OA
ATOM     31  H   UNL     1       3.733 -14.875   0.838  0.00  0.00    +0.292 HD
ENDBRANCH  25  30
ENDBRANCH   7  22
TORSDOF 4
