REMARK  Name = ZINC07726656
REMARK  4 active torsions:
REMARK  status: ('A' for Active; 'I' for Inactive)
REMARK    1  A    between atoms: C_4  and  N_19
REMARK    2  A    between atoms: C_5  and  N_7
REMARK    3  A    between atoms: N_7  and  S_8
REMARK    4  A    between atoms: S_8  and  C_11
REMARK                            x       y       z     vdW  Elec       q    Type
REMARK                         _______ _______ _______ _____ _____    ______ ____
ROOT
ATOM      1  C   UNL     1      -0.017   1.378   0.010  0.00  0.00    +0.002 A 
ATOM      2  C   UNL     1       1.169   2.090   0.002  0.00  0.00    +0.002 A 
ATOM      3  C   UNL     1       2.380   1.423  -0.013  0.00  0.00    +0.025 A 
ATOM      4  C   UNL     1       2.408   0.037  -0.021  0.00  0.00    +0.061 A 
ATOM      5  C   UNL     1       1.213  -0.681  -0.013  0.00  0.00    +0.096 A 
ATOM      6  C   UNL     1       0.002  -0.004   0.002  0.00  0.00    +0.028 A 
ENDROOT
BRANCH   4   7
ATOM      7  N   UNL     1       3.635  -0.641  -0.036  0.00  0.00    -0.270 N 
ATOM      8  C   UNL     1       4.351  -1.030  -1.257  0.00  0.00    +0.114 C 
ATOM      9  C   UNL     1       5.797  -1.334  -0.808  0.00  0.00    +0.029 C 
ATOM     10  C   UNL     1       5.593  -1.715   0.676  0.00  0.00    +0.098 C 
ATOM     11  C   UNL     1       4.310  -1.013   1.065  0.00  0.00    +0.220 C 
ATOM     12  O   UNL     1       3.943  -0.817   2.204  0.00  0.00    -0.275 OA
ENDBRANCH   4   7
BRANCH   5  13
ATOM     13  N   UNL     1       1.234  -2.080  -0.021  0.00  0.00    -0.096 NA
BRANCH  13  14
ATOM     14  S   UNL     1      -0.187  -2.930  -0.012  0.00  0.00    +0.097 S 
ATOM     15  O   UNL     1      -0.806  -2.673   1.241  0.00  0.00    -0.148 OA
ATOM     16  O   UNL     1      -0.830  -2.659  -1.250  0.00  0.00    -0.148 OA
BRANCH  14  17
ATOM     17  C   UNL     1       0.230  -4.642  -0.026  0.00  0.00    +0.180 A 
ATOM     18  C   UNL     1       0.388  -5.307  -1.230  0.00  0.00    +0.153 A 
ATOM     19  C   UNL     1       0.715  -6.652  -1.239  0.00  0.00    +0.040 A 
ATOM     20  C   UNL     1       0.885  -7.331  -0.048  0.00  0.00    +0.006 A 
ATOM     21  C   UNL     1       0.727  -6.668   1.155  0.00  0.00    +0.040 A 
ATOM     22  C   UNL     1       0.405  -5.322   1.167  0.00  0.00    +0.153 A 
ATOM     23  F   UNL     1       0.257  -4.673   2.343  0.00  0.00    -0.203 F 
ATOM     24  F   UNL     1       0.222  -4.643  -2.395  0.00  0.00    -0.203 F 
ENDBRANCH  14  17
ENDBRANCH  13  14
ENDBRANCH   5  13
TORSDOF 4
