REMARK  Name = ZINC36579525
REMARK  12 active torsions:
REMARK  status: ('A' for Active; 'I' for Inactive)
REMARK    1  A    between atoms: C_1  and  C_2
REMARK    2  A    between atoms: C_2  and  C_3
REMARK    3  A    between atoms: C_2  and  C_4
REMARK    4  A    between atoms: C_2  and  N_5
REMARK    5  A    between atoms: N_5  and  C_6
REMARK    6  A    between atoms: C_6  and  C_8
REMARK    7  A    between atoms: C_6  and  C_13
REMARK    8  A    between atoms: N_15  and  C_16
REMARK    9  A    between atoms: C_22  and  C_24
REMARK   10  A    between atoms: C_30  and  O_32
REMARK   11  A    between atoms: O_32  and  C_33
REMARK   12  A    between atoms: C_33  and  C_34
REMARK                            x       y       z     vdW  Elec       q    Type
REMARK                         _______ _______ _______ _____ _____    ______ ____
ROOT
ATOM      1  N   UNL     1       0.693   0.010  -0.635  0.00  0.00    -0.277 N 
ATOM      2  C   UNL     1       0.888  -1.228  -1.132  0.00  0.00    +0.238 C 
ATOM      3  O   UNL     1       2.013  -1.616  -1.367  0.00  0.00    -0.274 OA
ENDROOT
BRANCH   2   4
ATOM      4  C   UNL     1      -0.291  -2.128  -1.396  0.00  0.00    +0.165 C 
ATOM      5  C   UNL     1      -0.482  -3.103  -0.215  0.00  0.00    +0.033 C 
ATOM      6  C   UNL     1      -0.890  -4.425  -0.917  0.00  0.00    +0.021 C 
ATOM      7  C   UNL     1      -0.042  -4.364  -2.212  0.00  0.00    +0.112 C 
ATOM      8  N   UNL     1      -0.042  -2.938  -2.598  0.00  0.00    -0.256 N 
ATOM      9  C   UNL     1       0.153  -2.458  -3.842  0.00  0.00    +0.404 C 
ATOM     10  O   UNL     1       0.130  -1.259  -4.041  0.00  0.00    -0.226 OA
BRANCH   9  11
ATOM     11  O   UNL     1       0.372  -3.306  -4.865  0.00  0.00    -0.445 OA
BRANCH  11  12
ATOM     12  C   UNL     1       0.570  -2.728  -6.156  0.00  0.00    +0.269 C 
BRANCH  12  13
ATOM     13  C   UNL     1       0.799  -3.822  -7.167  0.00  0.00    -0.010 A 
ATOM     14  C   UNL     1       2.081  -4.271  -7.420  0.00  0.00    +0.007 A 
ATOM     15  C   UNL     1       2.291  -5.275  -8.347  0.00  0.00    +0.000 A 
ATOM     16  C   UNL     1       1.219  -5.829  -9.021  0.00  0.00    +0.000 A 
ATOM     17  C   UNL     1      -0.064  -5.380  -8.767  0.00  0.00    +0.000 A 
ATOM     18  C   UNL     1      -0.274  -4.380  -7.837  0.00  0.00    +0.007 A 
ENDBRANCH  12  13
ENDBRANCH  11  12
ENDBRANCH   9  11
ENDBRANCH   2   4
BRANCH   1  20
ATOM     19  C   UNL     1      -1.537   0.684  -1.381  0.00  0.00    +0.031 C 
ATOM     20  C   UNL     1      -0.638   0.412  -0.173  0.00  0.00    +0.030 C 
ATOM     21  C   UNL     1      -0.522   1.681   0.673  0.00  0.00    +0.031 C 
ATOM     22  C   UNL     1      -1.245  -0.711   0.672  0.00  0.00    +0.031 C 
ENDBRANCH   1  20
BRANCH   1  23
ATOM     23  C   UNL     1       1.811   0.953  -0.557  0.00  0.00    +0.229 C 
BRANCH  23  24
ATOM     24  C   UNL     1       2.254   1.089   0.877  0.00  0.00    +0.134 A 
ATOM     25  C   UNL     1       3.528   1.116   1.308  0.00  0.00    +0.047 A 
ATOM     26  C   UNL     1       3.482   1.256   2.714  0.00  0.00    +0.041 A 
ATOM     27  C   UNL     1       2.182   1.306   3.059  0.00  0.00    +0.195 A 
ATOM     28  O   UNL     1       1.443   1.210   1.941  0.00  0.00    -0.465 OA
ENDBRANCH  23  24
BRANCH  23  29
ATOM     29  C   UNL     1       1.372   2.297  -1.077  0.00  0.00    +0.241 C 
ATOM     30  O   UNL     1       0.308   2.408  -1.649  0.00  0.00    -0.273 OA
ATOM     31  N   UNL     1       2.161   3.376  -0.906  0.00  0.00    -0.311 N 
ATOM     32  H   UNL     1       3.011   3.288  -0.449  0.00  0.00    +0.149 HD
BRANCH  31  33
ATOM     33  C   UNL     1       1.734   4.683  -1.412  0.00  0.00    +0.073 C 
ATOM     34  C   UNL     1       2.125   4.813  -2.885  0.00  0.00    +0.022 C 
ATOM     35  C   UNL     1       1.679   6.178  -3.413  0.00  0.00    +0.002 C 
ATOM     36  C   UNL     1       2.360   7.285  -2.606  0.00  0.00    +0.000 C 
ATOM     37  C   UNL     1       1.969   7.155  -1.132  0.00  0.00    +0.002 C 
ATOM     38  C   UNL     1       2.415   5.790  -0.604  0.00  0.00    +0.022 C 
ENDBRANCH  31  33
ENDBRANCH  23  29
ENDBRANCH   1  23
TORSDOF 9
