REMARK  Name = ZINC36544620
REMARK  11 active torsions:
REMARK  status: ('A' for Active; 'I' for Inactive)
REMARK    1  A    between atoms: C_1  and  C_2
REMARK    2  A    between atoms: C_2  and  C_3
REMARK    3  A    between atoms: C_3  and  C_4
REMARK    4  A    between atoms: C_4  and  N_5
REMARK    5  A    between atoms: C_6  and  C_8
REMARK    6  A    between atoms: C_8  and  C_10
REMARK    7  A    between atoms: C_8  and  N_17
REMARK    8  A    between atoms: C_13  and  O_16
REMARK    9  A    between atoms: N_17  and  C_18
REMARK   10  A    between atoms: C_25  and  C_27
REMARK   11  A    between atoms: C_29  and  N_34
REMARK                            x       y       z     vdW  Elec       q    Type
REMARK                         _______ _______ _______ _____ _____    ______ ____
ROOT
ATOM      1  N   UNL     1       1.981  -5.711  -4.221  0.00  0.00    -0.250 N 
ATOM      2  C   UNL     1       1.543  -6.019  -5.458  0.00  0.00    +0.256 C 
ATOM      3  O   UNL     1       1.103  -5.146  -6.182  0.00  0.00    -0.269 OA
ENDROOT
BRANCH   1   4
ATOM      4  C   UNL     1       2.394  -6.727  -3.352  0.00  0.00    +0.056 A 
ATOM      5  C   UNL     1       1.474  -7.342  -2.514  0.00  0.00    +0.025 A 
ATOM      6  C   UNL     1       1.885  -8.345  -1.657  0.00  0.00    +0.002 A 
ATOM      7  C   UNL     1       3.211  -8.737  -1.634  0.00  0.00    +0.002 A 
ATOM      8  C   UNL     1       4.130  -8.127  -2.468  0.00  0.00    +0.022 A 
ATOM      9  C   UNL     1       3.725  -7.127  -3.331  0.00  0.00    +0.062 A 
ATOM     10 CL   UNL     1       4.878  -6.366  -4.382  0.00  0.00    -0.082 Cl
ENDBRANCH   1   4
BRANCH   2  11
ATOM     11  C   UNL     1       1.598  -7.413  -5.934  0.00  0.00    +0.086 A 
ATOM     12  C   UNL     1       0.993  -8.433  -5.195  0.00  0.00    +0.049 A 
ATOM     13  C   UNL     1       1.048  -9.734  -5.645  0.00  0.00    +0.127 A 
ATOM     14  C   UNL     1       1.702 -10.037  -6.829  0.00  0.00    +0.036 A 
ATOM     15  C   UNL     1       2.305  -9.040  -7.568  0.00  0.00    +0.054 A 
ATOM     16  C   UNL     1       2.254  -7.723  -7.133  0.00  0.00    +0.191 A 
ATOM     17  O   UNL     1       2.841  -6.742  -7.863  0.00  0.00    -0.287 OA
BRANCH  13  18
ATOM     18  N   UNL     1       0.406 -10.813  -4.861  0.00  0.00    +0.056 N 
ATOM     19  O   UNL     1      -0.165 -10.551  -3.828  0.00  0.00    -0.126 OA
ATOM     20  O   UNL     1       0.453 -11.955  -5.253  0.00  0.00    -0.126 OA
ENDBRANCH  13  18
ENDBRANCH   2  11
BRANCH   1  21
ATOM     21  C   UNL     1       2.024  -4.313  -3.786  0.00  0.00    +0.197 C 
BRANCH  21  22
ATOM     22  C   UNL     1       3.410  -3.981  -3.296  0.00  0.00    -0.018 A 
ATOM     23  C   UNL     1       4.135  -2.974  -3.907  0.00  0.00    +0.009 A 
ATOM     24  C   UNL     1       5.406  -2.669  -3.460  0.00  0.00    +0.046 A 
ATOM     25  C   UNL     1       5.955  -3.373  -2.398  0.00  0.00    +0.117 A 
ATOM     26  C   UNL     1       5.225  -4.383  -1.787  0.00  0.00    +0.046 A 
ATOM     27  C   UNL     1       3.953  -4.681  -2.234  0.00  0.00    +0.009 A 
BRANCH  25  28
ATOM     28  O   UNL     1       7.206  -3.075  -1.957  0.00  0.00    -0.507 OA
ATOM     29  H   UNL     1       7.228  -2.401  -1.264  0.00  0.00    +0.292 HD
ENDBRANCH  25  28
ENDBRANCH  21  22
BRANCH  21  31
ATOM     30  N   UNL     1       0.898  -2.885  -2.108  0.00  0.00    -0.313 N 
ATOM     31  C   UNL     1       1.034  -4.103  -2.670  0.00  0.00    +0.238 C 
ATOM     32  O   UNL     1       0.358  -5.030  -2.276  0.00  0.00    -0.273 OA
ATOM     33  H   UNL     1       1.438  -2.143  -2.423  0.00  0.00    +0.149 HD
BRANCH  30  34
ATOM     34  C   UNL     1      -0.064  -2.682  -1.023  0.00  0.00    +0.104 C 
BRANCH  34  35
ATOM     35  C   UNL     1      -0.019  -1.221  -0.569  0.00  0.00    +0.018 C 
BRANCH  35  37
ATOM     36  C   UNL     1      -0.980   0.452   1.019  0.00  0.00    +0.004 C 
ATOM     37  C   UNL     1      -1.025  -1.009   0.565  0.00  0.00    -0.002 C 
ENDBRANCH  35  37
ENDBRANCH  34  35
ENDBRANCH  30  34
ENDBRANCH  21  31
ENDBRANCH   1  21
TORSDOF 10
