REMARK  Name = ZINC38806371
REMARK  11 active torsions:
REMARK  status: ('A' for Active; 'I' for Inactive)
REMARK    1  A    between atoms: C_1  and  C_2
REMARK    2  A    between atoms: C_2  and  O_3
REMARK    3  A    between atoms: O_3  and  C_4
REMARK    4  A    between atoms: C_4  and  C_6
REMARK    5  A    between atoms: C_10  and  N_11
REMARK    6  A    between atoms: C_12  and  C_14
REMARK    7  A    between atoms: C_16  and  C_26
REMARK    8  A    between atoms: C_27  and  C_33
REMARK    9  A    between atoms: C_27  and  C_34
REMARK   10  A    between atoms: C_29  and  C_31
REMARK   11  A    between atoms: C_29  and  C_32
REMARK                            x       y       z     vdW  Elec       q    Type
REMARK                         _______ _______ _______ _____ _____    ______ ____
ROOT
ATOM      1  C   UNL     1      -2.715  -2.586   0.045  0.00  0.00    +0.091 A 
ATOM      2  C   UNL     1      -3.416  -2.905  -1.179  0.00  0.00    -0.024 A 
ATOM      3  C   UNL     1      -4.657  -3.415  -1.002  0.00  0.00    -0.016 A 
ATOM      4  S   UNL     1      -4.861  -3.475   0.753  0.00  0.00    -0.079 S 
ATOM      5  C   UNL     1      -3.387  -2.832   1.237  0.00  0.00    +0.086 A 
ATOM      6  C   UNL     1      -5.612  -3.815  -2.076  0.00  0.00    -0.041 C 
ATOM      7  N   UNL     1      -4.997  -3.786  -3.403  0.00  0.00    +0.389 N 
ATOM      8  C   UNL     1      -3.542  -3.836  -3.448  0.00  0.00    -0.069 C 
ATOM      9  C   UNL     1      -2.902  -2.730  -2.600  0.00  0.00    +0.024 C 
ATOM     10  C   UNL     1      -3.094  -3.630  -4.907  0.00  0.00    -0.010 C 
ATOM     11  C   UNL     1      -3.021  -5.198  -2.985  0.00  0.00    -0.010 C 
ATOM     12  C   UNL     1      -6.162  -5.217  -1.778  0.00  0.00    -0.005 C 
ATOM     13  C   UNL     1      -6.797  -2.830  -2.059  0.00  0.00    -0.005 C 
ATOM     14  H   UNL     1      -5.365  -4.568  -3.947  0.00  0.00    -0.084 HD
ATOM     15  H   UNL     1      -5.308  -2.941  -3.886  0.00  0.00    -0.084 HD
ENDROOT
BRANCH   5  16
ATOM     16  N   UNL     1      -2.942  -2.595   2.528  0.00  0.00    -0.276 N 
ATOM     17  C   UNL     1      -3.731  -2.897   3.578  0.00  0.00    +0.262 C 
ATOM     18  O   UNL     1      -4.863  -3.290   3.393  0.00  0.00    -0.271 OA
ATOM     19  H   UNL     1      -2.062  -2.213   2.675  0.00  0.00    +0.155 HD
BRANCH  17  20
ATOM     20  C   UNL     1      -3.206  -2.744   4.983  0.00  0.00    +0.299 C 
ATOM     21  C   UNL     1      -3.114  -1.255   5.342  0.00  0.00    +0.220 C 
ATOM     22  O   UNL     1      -4.426  -0.689   5.246  0.00  0.00    -0.481 OA
ATOM     23  C   UNL     1      -5.439  -1.392   5.823  0.00  0.00    +0.163 A 
ATOM     24  C   UNL     1      -6.643  -0.756   6.088  0.00  0.00    +0.049 A 
ATOM     25  C   UNL     1      -7.682  -1.457   6.670  0.00  0.00    +0.004 A 
ATOM     26  C   UNL     1      -7.524  -2.793   6.989  0.00  0.00    +0.004 A 
ATOM     27  C   UNL     1      -6.327  -3.432   6.729  0.00  0.00    +0.049 A 
ATOM     28  C   UNL     1      -5.279  -2.734   6.147  0.00  0.00    +0.163 A 
ATOM     29  O   UNL     1      -4.103  -3.375   5.904  0.00  0.00    -0.472 OA
ATOM     30  C   UNL     1      -2.172  -0.546   4.367  0.00  0.00    +0.056 C 
ENDBRANCH  17  20
ENDBRANCH   5  16
BRANCH   1  31
ATOM     31  C   UNL     1      -1.364  -2.022   0.041  0.00  0.00    +0.342 C 
ATOM     32  O   UNL     1      -0.397  -2.760   0.068  0.00  0.00    -0.245 OA
BRANCH  31  33
ATOM     33  O   UNL     1      -1.190  -0.685   0.008  0.00  0.00    -0.461 OA
BRANCH  33  35
ATOM     34  C   UNL     1       0.151   1.324  -0.033  0.00  0.00    +0.048 C 
ATOM     35  C   UNL     1       0.155  -0.205   0.007  0.00  0.00    +0.229 C 
ENDBRANCH  33  35
ENDBRANCH  31  33
ENDBRANCH   1  31
TORSDOF 5
