REMARK  Name = ZINC65246716
REMARK  5 active torsions:
REMARK  status: ('A' for Active; 'I' for Inactive)
REMARK    1  A    between atoms: C_1  and  C_2
REMARK    2  A    between atoms: C_5  and  N_9
REMARK    3  A    between atoms: C_6  and  C_8
REMARK    4  A    between atoms: N_9  and  S_10
REMARK    5  A    between atoms: S_10  and  C_13
REMARK                            x       y       z     vdW  Elec       q    Type
REMARK                         _______ _______ _______ _____ _____    ______ ____
ROOT
ATOM      1  S   UNL     1       0.062  -4.987  -1.460  0.00  0.00    +0.089 S 
ATOM      2  O   UNL     1      -1.190  -4.727  -2.079  0.00  0.00    -0.149 OA
ATOM      3  O   UNL     1       1.300  -4.694  -2.091  0.00  0.00    -0.149 OA
ENDROOT
BRANCH   1   4
ATOM      4  C   UNL     1       0.087  -6.708  -1.079  0.00  0.00    +0.104 C 
ATOM      5  C   UNL     1       1.133  -7.498  -1.184  0.00  0.00    +0.097 C 
ATOM      6  N   UNL     1       0.869  -8.800  -0.850  0.00  0.00    -0.302 N 
ATOM      7  C   UNL     1       1.670 -10.013  -1.065  0.00  0.00    +0.271 C 
ATOM      8  N   UNL     1       0.773 -11.010  -1.665  0.00  0.00    -0.176 NA
ATOM      9  N   UNL     1      -0.449 -10.947  -1.618  0.00  0.00    -0.082 NA
ATOM     10  C   UNL     1      -1.186  -9.986  -1.033  0.00  0.00    +0.274 C 
ATOM     11  O   UNL     1      -2.391 -10.001  -1.121  0.00  0.00    -0.270 OA
ATOM     12  C   UNL     1      -0.490  -8.889  -0.263  0.00  0.00    +0.170 C 
ATOM     13  C   UNL     1      -1.092  -7.512  -0.571  0.00  0.00    +0.090 C 
ENDBRANCH   1   4
BRANCH   1  14
ATOM     14  N   UNL     1       0.058  -4.167  -0.021  0.00  0.00    -0.098 NA
BRANCH  14  19
ATOM     15  C   UNL     1      -0.018   1.503   0.010  0.00  0.00    +0.044 C 
ATOM     16  C   UNL     1       0.002  -0.004   0.002  0.00  0.00    -0.050 A 
ATOM     17  C   UNL     1       0.006  -0.687  -1.200  0.00  0.00    +0.005 A 
ATOM     18  C   UNL     1       0.024  -2.068  -1.212  0.00  0.00    +0.027 A 
ATOM     19  C   UNL     1       0.040  -2.771  -0.013  0.00  0.00    +0.077 A 
ATOM     20  C   UNL     1       0.036  -2.081   1.192  0.00  0.00    -0.026 A 
ATOM     21  C   UNL     1       0.023  -0.700   1.196  0.00  0.00    +0.008 A 
ATOM     22  C   UNL     1       0.052  -2.839   2.495  0.00  0.00    +0.046 C 
ENDBRANCH  14  19
ENDBRANCH   1  14
TORSDOF 3
