REMARK  Name = ZINC16902134
REMARK  8 active torsions:
REMARK  status: ('A' for Active; 'I' for Inactive)
REMARK    1  A    between atoms: C_1  and  C_2
REMARK    2  A    between atoms: C_4  and  C_30
REMARK    3  A    between atoms: C_5  and  N_9
REMARK    4  A    between atoms: C_6  and  C_8
REMARK    5  A    between atoms: N_9  and  C_10
REMARK    6  A    between atoms: N_15  and  C_18
REMARK    7  A    between atoms: C_20  and  C_27
REMARK    8  A    between atoms: C_22  and  C_24
REMARK                            x       y       z     vdW  Elec       q    Type
REMARK                         _______ _______ _______ _____ _____    ______ ____
ROOT
ATOM      1  C   UNL     1      -0.416  -4.303   1.338  0.00  0.00    +0.166 C 
ATOM      2  C   UNL     1      -0.426  -5.034   2.696  0.00  0.00    +0.128 C 
ATOM      3  C   UNL     1       0.465  -6.234   2.459  0.00  0.00    +0.228 C 
ATOM      4  O   UNL     1       0.732  -7.084   3.281  0.00  0.00    -0.275 OA
ATOM      5  N   UNL     1       0.912  -6.208   1.197  0.00  0.00    -0.209 N 
ATOM      6  C   UNL     1       0.480  -5.163   0.474  0.00  0.00    +0.247 C 
ATOM      7  O   UNL     1       0.760  -4.943  -0.684  0.00  0.00    -0.273 OA
ENDROOT
BRANCH   5   8
ATOM      8  C   UNL     1       1.763  -7.192   0.673  0.00  0.00    +0.045 A 
ATOM      9  C   UNL     1       3.135  -6.996   0.684  0.00  0.00    +0.039 A 
ATOM     10  C   UNL     1       3.987  -7.973   0.162  0.00  0.00    +0.066 A 
ATOM     11  C   UNL     1       3.455  -9.148  -0.369  0.00  0.00    +0.030 A 
ATOM     12  C   UNL     1       2.074  -9.341  -0.377  0.00  0.00    +0.066 A 
ATOM     13  C   UNL     1       1.230  -8.361   0.151  0.00  0.00    +0.039 A 
BRANCH  12  14
ATOM     14  C   UNL     1       1.506 -10.582  -0.938  0.00  0.00    +0.387 C 
ATOM     15  O   UNL     1       2.245 -11.442  -1.395  0.00  0.00    -0.241 OA
ATOM     16  O   UNL     1       0.294 -10.751  -0.944  0.00  0.00    -0.241 OA
ENDBRANCH  12  14
BRANCH  10  17
ATOM     17  C   UNL     1       5.448  -7.763   0.173  0.00  0.00    +0.387 C 
ATOM     18  O   UNL     1       5.913  -6.732   0.639  0.00  0.00    -0.241 OA
ATOM     19  O   UNL     1       6.192  -8.619  -0.283  0.00  0.00    -0.241 OA
ENDBRANCH  10  17
ENDBRANCH   5   8
BRANCH   1  20
ATOM     20  N   UNL     1      -1.768  -4.240   0.777  0.00  0.00    -0.332 N 
ATOM     21  H   UNL     1      -2.088  -4.953   0.202  0.00  0.00    +0.147 HD
BRANCH  20  26
ATOM     22  C   UNL     1      -5.130   0.169   1.967  0.00  0.00    +0.044 C 
ATOM     23  C   UNL     1      -4.236  -1.003   1.651  0.00  0.00    -0.050 A 
ATOM     24  C   UNL     1      -4.491  -2.237   2.219  0.00  0.00    +0.008 A 
ATOM     25  C   UNL     1      -3.674  -3.313   1.932  0.00  0.00    -0.029 A 
ATOM     26  C   UNL     1      -2.596  -3.154   1.070  0.00  0.00    +0.034 A 
ATOM     27  C   UNL     1      -2.344  -1.913   0.501  0.00  0.00    -0.029 A 
ATOM     28  C   UNL     1      -3.167  -0.842   0.788  0.00  0.00    +0.008 A 
ATOM     29  C   UNL     1      -1.175  -1.735  -0.434  0.00  0.00    +0.045 C 
ATOM     30  C   UNL     1      -3.952  -4.658   2.552  0.00  0.00    +0.045 C 
ENDBRANCH  20  26
ENDBRANCH   1  20
TORSDOF 5
