REMARK  Name = ZINC21375543
REMARK  6 active torsions:
REMARK  status: ('A' for Active; 'I' for Inactive)
REMARK    1  A    between atoms: N_11  and  C_12
REMARK    2  A    between atoms: C_12  and  C_13
REMARK    3  A    between atoms: C_13  and  O_15
REMARK    4  A    between atoms: O_15  and  C_16
REMARK    5  A    between atoms: C_16  and  C_17
REMARK    6  A    between atoms: N_22  and  C_23
REMARK                            x       y       z     vdW  Elec       q    Type
REMARK                         _______ _______ _______ _____ _____    ______ ____
ROOT
ATOM      1  C   UNL     1      -7.192   1.201   2.099  0.00  0.00    +0.258 C 
ATOM      2  O   UNL     1      -6.796   1.898   3.008  0.00  0.00    -0.272 OA
ATOM      3  N   UNL     1      -6.368   0.892   1.079  0.00  0.00    -0.237 N 
ATOM      4  C   UNL     1      -5.103   1.358   1.069  0.00  0.00    +0.306 C 
ATOM      5  O   UNL     1      -4.707   2.057   1.980  0.00  0.00    -0.252 OA
ATOM      6  N   UNL     1      -4.279   1.049   0.049  0.00  0.00    -0.294 N 
ATOM      7  H   UNL     1      -6.727   0.259   0.254  0.00  0.00    +0.159 HD
ATOM      8  H   UNL     1      -4.638   0.417  -0.776  0.00  0.00    +0.151 HD
ENDROOT
BRANCH   6   9
ATOM      9  C   UNL     1      -2.904   1.556   0.038  0.00  0.00    +0.037 C 
ATOM     10  C   UNL     1      -2.188   1.063  -1.221  0.00  0.00    +0.029 C 
ATOM     11  C   UNL     1      -0.753   1.593  -1.232  0.00  0.00    -0.008 C 
ATOM     12  C   UNL     1      -0.013   1.086   0.008  0.00  0.00    +0.007 C 
ATOM     13  C   UNL     1      -0.729   1.579   1.267  0.00  0.00    -0.008 C 
ATOM     14  C   UNL     1      -2.164   1.050   1.278  0.00  0.00    +0.029 C 
ATOM     15  C   UNL     1      -0.750   3.109   1.275  0.00  0.00    +0.007 C 
ATOM     16  C   UNL     1      -1.490   3.616   0.036  0.00  0.00    -0.008 C 
ATOM     17  C   UNL     1      -0.773   3.123  -1.223  0.00  0.00    +0.007 C 
ATOM     18  C   UNL     1      -2.925   3.086   0.047  0.00  0.00    +0.029 C 
ENDBRANCH   6   9
BRANCH   1  19
ATOM     19  C   UNL     1      -8.606   0.679   2.110  0.00  0.00    +0.328 C 
BRANCH  19  20
ATOM     20  O   UNL     1      -9.286   1.147   3.304  0.00  0.00    -0.454 OA
BRANCH  20  21
ATOM     21  C   UNL     1     -10.563   0.768   3.467  0.00  0.00    +0.328 C 
ATOM     22  O   UNL     1     -11.096   0.069   2.638  0.00  0.00    -0.249 OA
BRANCH  21  23
ATOM     23  C   UNL     1     -11.333   1.216   4.683  0.00  0.00    +0.245 C 
BRANCH  23  34
ATOM     24  C   UNL     1     -13.575  -3.023   6.306  0.00  0.00    +0.002 A 
ATOM     25  C   UNL     1     -12.282  -2.520   6.365  0.00  0.00    +0.002 A 
ATOM     26  C   UNL     1     -11.982  -1.296   5.810  0.00  0.00    +0.028 A 
ATOM     27  C   UNL     1     -12.981  -0.555   5.185  0.00  0.00    +0.071 A 
ATOM     28  C   UNL     1     -14.292  -1.065   5.125  0.00  0.00    +0.088 A 
ATOM     29  C   UNL     1     -14.570  -2.315   5.698  0.00  0.00    +0.030 A 
ATOM     30  N   UNL     1     -15.273  -0.363   4.525  0.00  0.00    -0.248 NA
ATOM     31  C   UNL     1     -15.035   0.798   3.987  0.00  0.00    +0.181 A 
ATOM     32  C   UNL     1     -13.685   1.371   4.031  0.00  0.00    +0.270 A 
ATOM     33  O   UNL     1     -13.461   2.460   3.534  0.00  0.00    -0.266 OA
ATOM     34  N   UNL     1     -12.693   0.674   4.626  0.00  0.00    -0.295 N 
ENDBRANCH  23  34
ENDBRANCH  21  23
ENDBRANCH  20  21
ENDBRANCH  19  20
ENDBRANCH   1  19
TORSDOF 6
