REMARK  Name = ZINC39607226
REMARK  9 active torsions:
REMARK  status: ('A' for Active; 'I' for Inactive)
REMARK    1  A    between atoms: C_1  and  C_2
REMARK    2  A    between atoms: C_5  and  C_9
REMARK    3  A    between atoms: C_6  and  C_8
REMARK    4  A    between atoms: C_9  and  N_10
REMARK    5  A    between atoms: C_11  and  C_13
REMARK    6  A    between atoms: C_24  and  C_26
REMARK    7  A    between atoms: C_26  and  O_27
REMARK    8  A    between atoms: O_27  and  C_28
REMARK    9  A    between atoms: C_38  and  C_39
REMARK                            x       y       z     vdW  Elec       q    Type
REMARK                         _______ _______ _______ _____ _____    ______ ____
ROOT
ATOM      1  C   UNL     1      -2.909  -6.633   0.512  0.00  0.00    +0.100 C 
ATOM      2  C   UNL     1      -3.350  -6.313   1.958  0.00  0.00    +0.121 C 
ATOM      3  N   UNL     1      -4.126  -7.502   2.384  0.00  0.00    -0.297 N 
ATOM      4  C   UNL     1      -3.381  -8.651   1.815  0.00  0.00    +0.115 C 
ATOM      5  C   UNL     1      -2.930  -8.168   0.422  0.00  0.00    -0.004 C 
ATOM      6  C   UNL     1      -1.534  -8.697   0.107  0.00  0.00    -0.010 C 
ATOM      7  C   UNL     1      -1.591 -10.221  -0.034  0.00  0.00    -0.082 C 
ATOM      8  N   UNL     1      -2.527 -10.580  -1.107  0.00  0.00    +0.379 N 
ATOM      9  C   UNL     1      -3.884 -10.149  -0.753  0.00  0.00    -0.082 C 
ATOM     10  C   UNL     1      -3.924  -8.622  -0.642  0.00  0.00    -0.010 C 
ATOM     11  C   UNL     1      -5.253  -7.532   3.121  0.00  0.00    +0.253 C 
ATOM     12  O   UNL     1      -5.774  -8.594   3.390  0.00  0.00    -0.272 OA
ATOM     13  H   UNL     1      -2.244 -10.127  -1.963  0.00  0.00    -0.086 HD
ATOM     14  H   UNL     1      -2.517 -11.580  -1.239  0.00  0.00    -0.086 HD
ENDROOT
BRANCH   1  16
ATOM     15  N   UNL     1      -1.149  -5.750  -0.985  0.00  0.00    -0.311 N 
ATOM     16  C   UNL     1      -1.518  -6.111   0.260  0.00  0.00    +0.218 C 
ATOM     17  O   UNL     1      -0.731  -6.015   1.178  0.00  0.00    -0.275 OA
ATOM     18  H   UNL     1      -1.778  -5.827  -1.719  0.00  0.00    +0.149 HD
BRANCH  15  19
ATOM     19  C   UNL     1       0.204  -5.243  -1.230  0.00  0.00    +0.139 C 
BRANCH  19  24
ATOM     20  C   UNL     1       0.801  -3.985  -6.838  0.00  0.00    +0.044 C 
ATOM     21  C   UNL     1       0.645  -4.313  -5.375  0.00  0.00    -0.050 A 
ATOM     22  C   UNL     1       1.145  -5.502  -4.877  0.00  0.00    +0.004 A 
ATOM     23  C   UNL     1       1.003  -5.803  -3.535  0.00  0.00    +0.006 A 
ATOM     24  C   UNL     1       0.360  -4.915  -2.692  0.00  0.00    -0.027 A 
ATOM     25  C   UNL     1      -0.139  -3.726  -3.191  0.00  0.00    -0.046 A 
ATOM     26  C   UNL     1       0.008  -3.423  -4.532  0.00  0.00    +0.007 A 
ATOM     27  C   UNL     1      -0.839  -2.759  -2.272  0.00  0.00    +0.044 C 
ENDBRANCH  19  24
ENDBRANCH  15  19
ENDBRANCH   1  16
BRANCH  11  28
ATOM     28  C   UNL     1      -5.867  -6.246   3.612  0.00  0.00    +0.324 C 
BRANCH  28  29
ATOM     29  O   UNL     1      -7.046  -6.538   4.365  0.00  0.00    -0.479 OA
BRANCH  29  30
ATOM     30  C   UNL     1      -7.725  -5.480   4.884  0.00  0.00    +0.164 A 
ATOM     31  C   UNL     1      -7.271  -4.191   4.667  0.00  0.00    +0.049 A 
ATOM     32  C   UNL     1      -7.955  -3.104   5.191  0.00  0.00    +0.004 A 
ATOM     33  C   UNL     1      -9.098  -3.292   5.934  0.00  0.00    +0.012 A 
ATOM     34  C   UNL     1      -9.571  -4.589   6.162  0.00  0.00    +0.024 A 
ATOM     35  C   UNL     1      -8.883  -5.691   5.629  0.00  0.00    +0.181 A 
ATOM     36  O   UNL     1      -9.345  -6.942   5.847  0.00  0.00    -0.418 OA
ATOM     37  C   UNL     1     -10.458  -7.163   6.562  0.00  0.00    +0.338 A 
ATOM     38  O   UNL     1     -10.837  -8.308   6.733  0.00  0.00    -0.245 OA
ATOM     39  C   UNL     1     -11.202  -6.101   7.122  0.00  0.00    +0.096 A 
ATOM     40  C   UNL     1     -10.786  -4.822   6.950  0.00  0.00    -0.033 A 
ATOM     41  C   UNL     1     -11.560  -3.670   7.538  0.00  0.00    +0.045 C 
ENDBRANCH  29  30
ENDBRANCH  28  29
ENDBRANCH  11  28
TORSDOF 6
