REMARK  Name = ZINC00708446
REMARK  5 active torsions:
REMARK  status: ('A' for Active; 'I' for Inactive)
REMARK    1  A    between atoms: C_1  and  N_2
REMARK    2  A    between atoms: C_3  and  C_22
REMARK    3  A    between atoms: C_6  and  S_7
REMARK    4  A    between atoms: S_7  and  C_8
REMARK    5  A    between atoms: N_11  and  C_16
REMARK                            x       y       z     vdW  Elec       q    Type
REMARK                         _______ _______ _______ _____ _____    ______ ____
ROOT
ATOM      1  C   UNL     1      -3.477   3.386  -0.203  0.00  0.00    +0.055 A 
ATOM      2  C   UNL     1      -3.629   4.126  -1.395  0.00  0.00    +0.149 A 
ATOM      3  N   UNL     1      -4.189   5.303  -1.375  0.00  0.00    -0.171 NA
ATOM      4  N   UNL     1      -4.653   5.860  -0.178  0.00  0.00    -0.196 N 
ATOM      5  C   UNL     1      -4.528   5.189   0.984  0.00  0.00    +0.287 A 
ATOM      6  O   UNL     1      -4.935   5.682   2.025  0.00  0.00    -0.265 OA
ATOM      7  C   UNL     1      -3.935   3.919   0.990  0.00  0.00    +0.099 A 
ATOM      8 BR   UNL     1      -3.755   2.952   2.605  0.00  0.00    -0.043 Br
ENDROOT
BRANCH   4   9
ATOM      9  C   UNL     1      -5.250   7.125  -0.188  0.00  0.00    +0.069 A 
ATOM     10  C   UNL     1      -6.484   7.317   0.421  0.00  0.00    +0.028 A 
ATOM     11  C   UNL     1      -7.069   8.568   0.413  0.00  0.00    +0.002 A 
ATOM     12  C   UNL     1      -6.432   9.627  -0.208  0.00  0.00    +0.000 A 
ATOM     13  C   UNL     1      -5.206   9.438  -0.820  0.00  0.00    +0.002 A 
ATOM     14  C   UNL     1      -4.613   8.191  -0.811  0.00  0.00    +0.028 A 
ENDBRANCH   4   9
BRANCH   1  15
ATOM     15  S   UNL     1      -2.718   1.796  -0.234  0.00  0.00    -0.047 S 
BRANCH  15  21
ATOM     16  C   UNL     1      -0.081  -0.068  -0.936  0.00  0.00    +0.153 C 
ATOM     17  N   UNL     1      -0.044   1.396  -0.949  0.00  0.00    -0.305 N 
ATOM     18  C   UNL     1       1.033   2.197  -1.245  0.00  0.00    +0.165 A 
ATOM     19  N   UNL     1       0.630   3.442  -1.137  0.00  0.00    -0.128 NA
ATOM     20  N   UNL     1      -0.610   3.473  -0.798  0.00  0.00    -0.122 NA
ATOM     21  C   UNL     1      -1.074   2.250  -0.675  0.00  0.00    +0.196 A 
BRANCH  18  22
ATOM     22  C   UNL     1       2.391   1.743  -1.615  0.00  0.00    +0.019 A 
ATOM     23  C   UNL     1       2.797   0.440  -1.325  0.00  0.00    +0.011 A 
ATOM     24  C   UNL     1       4.063   0.020  -1.678  0.00  0.00    +0.001 A 
ATOM     25  C   UNL     1       4.933   0.891  -2.309  0.00  0.00    +0.000 A 
ATOM     26  C   UNL     1       4.538   2.186  -2.595  0.00  0.00    +0.001 A 
ATOM     27  C   UNL     1       3.273   2.617  -2.252  0.00  0.00    +0.011 A 
ENDBRANCH  18  22
ENDBRANCH  15  21
ENDBRANCH   1  15
TORSDOF 4
