REMARK  Name = ZINC09088858
REMARK  7 active torsions:
REMARK  status: ('A' for Active; 'I' for Inactive)
REMARK    1  A    between atoms: C_5  and  C_7
REMARK    2  A    between atoms: C_7  and  O_8
REMARK    3  A    between atoms: O_8  and  C_9
REMARK    4  A    between atoms: C_14  and  C_15
REMARK    5  A    between atoms: C_17  and  C_21
REMARK    6  A    between atoms: N_23  and  N_24
REMARK    7  A    between atoms: C_25  and  C_26
REMARK                            x       y       z     vdW  Elec       q    Type
REMARK                         _______ _______ _______ _____ _____    ______ ____
ROOT
ATOM      1  C   UNL     1      -2.746  -3.705   0.010  0.00  0.00    +0.070 A 
ATOM      2  C   UNL     1      -3.911  -3.896  -0.681  0.00  0.00    +0.062 A 
ATOM      3  C   UNL     1      -4.733  -2.800  -0.340  0.00  0.00    +0.149 A 
ATOM      4  N   UNL     1      -4.053  -2.043   0.498  0.00  0.00    -0.169 NA
ATOM      5  N   UNL     1      -2.895  -2.552   0.722  0.00  0.00    -0.276 N 
ATOM      6  H   UNL     1      -2.223  -2.170   1.309  0.00  0.00    +0.189 HD
ENDROOT
BRANCH   1  12
ATOM      7  C   UNL     1      -0.272  -4.029  -0.017  0.00  0.00    +0.130 A 
ATOM      8  C   UNL     1       0.836  -4.861  -0.027  0.00  0.00    +0.046 A 
ATOM      9  C   UNL     1       0.672  -6.233  -0.033  0.00  0.00    +0.004 A 
ATOM     10  C   UNL     1      -0.597  -6.786  -0.028  0.00  0.00    +0.001 A 
ATOM     11  C   UNL     1      -1.710  -5.971  -0.018  0.00  0.00    +0.013 A 
ATOM     12  C   UNL     1      -1.556  -4.585  -0.007  0.00  0.00    +0.041 A 
BRANCH   7  13
ATOM     13  O   UNL     1      -0.112  -2.680  -0.011  0.00  0.00    -0.487 OA
BRANCH  13  14
ATOM     14  C   UNL     1       1.229  -2.186  -0.022  0.00  0.00    +0.266 C 
BRANCH  14  19
ATOM     15  C   UNL     1      -0.017   1.378   0.010  0.00  0.00    +0.000 A 
ATOM     16  C   UNL     1       1.171   2.086   0.002  0.00  0.00    +0.001 A 
ATOM     17  C   UNL     1       2.377   1.412  -0.013  0.00  0.00    +0.020 A 
ATOM     18  C   UNL     1       2.397   0.029  -0.021  0.00  0.00    +0.047 A 
ATOM     19  C   UNL     1       1.208  -0.679  -0.013  0.00  0.00    +0.008 A 
ATOM     20  C   UNL     1       0.002  -0.004   0.002  0.00  0.00    +0.008 A 
ATOM     21 CL   UNL     1       3.912  -0.818  -0.041  0.00  0.00    -0.083 Cl
ENDBRANCH  14  19
ENDBRANCH  13  14
ENDBRANCH   7  13
ENDBRANCH   1  12
BRANCH   3  22
ATOM     22  C   UNL     1      -6.103  -2.548  -0.832  0.00  0.00    +0.283 C 
ATOM     23  O   UNL     1      -6.623  -3.326  -1.608  0.00  0.00    -0.267 OA
ATOM     24  N   UNL     1      -6.776  -1.455  -0.421  0.00  0.00    -0.202 N 
ATOM     25  H   UNL     1      -6.361  -0.834   0.198  0.00  0.00    +0.178 HD
BRANCH  24  26
ATOM     26  N   UNL     1      -8.075  -1.216  -0.888  0.00  0.00    -0.184 NA
ATOM     27  C   UNL     1      -8.725  -0.161  -0.491  0.00  0.00    +0.176 C 
BRANCH  27  28
ATOM     28  C   UNL     1     -10.084   0.090  -0.980  0.00  0.00    +0.147 A 
ATOM     29  C   UNL     1     -10.871   1.155  -0.650  0.00  0.00    +0.051 A 
ATOM     30  C   UNL     1     -12.084   0.992  -1.344  0.00  0.00    +0.042 A 
ATOM     31  C   UNL     1     -11.984  -0.149  -2.056  0.00  0.00    +0.196 A 
ATOM     32  O   UNL     1     -10.773  -0.689  -1.838  0.00  0.00    -0.462 OA
ENDBRANCH  27  28
ENDBRANCH  24  26
ENDBRANCH   3  22
TORSDOF 7
