REMARK  Name = ZINC57782224
REMARK  10 active torsions:
REMARK  status: ('A' for Active; 'I' for Inactive)
REMARK    1  A    between atoms: C_1  and  C_2
REMARK    2  A    between atoms: C_2  and  C_4
REMARK    3  A    between atoms: C_2  and  S_14
REMARK    4  A    between atoms: N_6  and  C_7
REMARK    5  A    between atoms: C_7  and  C_8
REMARK    6  A    between atoms: C_8  and  C_9
REMARK    7  A    between atoms: S_14  and  C_15
REMARK    8  A    between atoms: C_18  and  C_27
REMARK    9  A    between atoms: N_19  and  C_20
REMARK   10  A    between atoms: C_27  and  N_28
REMARK                            x       y       z     vdW  Elec       q    Type
REMARK                         _______ _______ _______ _____ _____    ______ ____
ROOT
ATOM      1  C   UNL     1      -0.136  -0.087   2.816  0.00  0.00    +0.197 A 
ATOM      2  N   UNL     1      -1.266   0.575   2.730  0.00  0.00    -0.122 NA
ATOM      3  N   UNL     1      -1.739   0.786   3.906  0.00  0.00    -0.135 NA
ATOM      4  C   UNL     1      -0.948   0.277   4.807  0.00  0.00    +0.122 A 
ATOM      5  N   UNL     1       0.102  -0.304   4.145  0.00  0.00    -0.276 N 
ENDROOT
BRANCH   5   6
ATOM      6  C   UNL     1       1.194  -0.978   4.713  0.00  0.00    +0.050 A 
ATOM      7  C   UNL     1       0.996  -2.169   5.397  0.00  0.00    +0.029 A 
ATOM      8  C   UNL     1       2.072  -2.831   5.955  0.00  0.00    +0.040 A 
ATOM      9  C   UNL     1       3.348  -2.307   5.831  0.00  0.00    +0.124 A 
ATOM     10  C   UNL     1       3.547  -1.119   5.148  0.00  0.00    +0.040 A 
ATOM     11  C   UNL     1       2.474  -0.457   4.585  0.00  0.00    +0.029 A 
ATOM     12  F   UNL     1       4.400  -2.956   6.377  0.00  0.00    -0.205 F 
ENDBRANCH   5   6
BRANCH   1  13
ATOM     13  S   UNL     1       0.879  -0.605   1.472  0.00  0.00    -0.073 S 
BRANCH  13  15
ATOM     14  C   UNL     1      -0.019   1.526   0.010  0.00  0.00    +0.029 C 
ATOM     15  C   UNL     1       0.002  -0.004   0.002  0.00  0.00    +0.137 C 
BRANCH  15  16
ATOM     16  C   UNL     1       0.707  -0.490  -1.238  0.00  0.00    +0.226 C 
ATOM     17  O   UNL     1       1.864  -0.849  -1.176  0.00  0.00    -0.275 OA
ATOM     18  N   UNL     1       0.053  -0.526  -2.415  0.00  0.00    -0.314 N 
ATOM     19  H   UNL     1      -0.873  -0.239  -2.465  0.00  0.00    +0.149 HD
BRANCH  18  20
ATOM     20  C   UNL     1       0.738  -0.999  -3.621  0.00  0.00    +0.109 C 
BRANCH  20  21
ATOM     21  C   UNL     1      -0.222  -0.939  -4.810  0.00  0.00    +0.061 C 
BRANCH  21  22
ATOM     22  C   UNL     1       0.483  -1.425  -6.050  0.00  0.00    -0.009 A 
ATOM     23  C   UNL     1       0.562  -2.682  -6.550  0.00  0.00    +0.011 A 
ATOM     24  C   UNL     1       1.272  -2.897  -7.716  0.00  0.00    +0.008 A 
ATOM     25  C   UNL     1       1.868  -1.843  -8.326  0.00  0.00    +0.045 A 
ATOM     26  S   UNL     1       1.425  -0.492  -7.246  0.00  0.00    -0.102 S 
ENDBRANCH  21  22
ENDBRANCH  20  21
ENDBRANCH  18  20
ENDBRANCH  15  16
ENDBRANCH  13  15
ENDBRANCH   1  13
BRANCH   4  27
ATOM     27  C   UNL     1      -1.151   0.313   6.300  0.00  0.00    -0.001 C 
BRANCH  27  28
ATOM     28  N   UNL     1      -1.913  -0.871   6.719  0.00  0.00    +0.384 N 
ATOM     29  C   UNL     1      -3.258  -0.819   6.134  0.00  0.00    -0.078 C 
ATOM     30  C   UNL     1      -4.028  -2.089   6.502  0.00  0.00    -0.019 C 
ATOM     31  C   UNL     1      -4.136  -2.190   8.026  0.00  0.00    -0.004 C 
ATOM     32  C   UNL     1      -2.730  -2.169   8.630  0.00  0.00    -0.019 C 
ATOM     33  C   UNL     1      -2.008  -0.896   8.184  0.00  0.00    -0.078 C 
ATOM     34  H   UNL     1      -1.441  -1.703   6.400  0.00  0.00    -0.081 HD
ENDBRANCH  27  28
ENDBRANCH   4  27
TORSDOF 9
