REMARK  Name = ZINC67128655
REMARK  9 active torsions:
REMARK  status: ('A' for Active; 'I' for Inactive)
REMARK    1  A    between atoms: C_4  and  C_7
REMARK    2  A    between atoms: C_7  and  C_8
REMARK    3  A    between atoms: C_8  and  N_9
REMARK    4  A    between atoms: N_9  and  C_10
REMARK    5  A    between atoms: C_10  and  C_11
REMARK    6  A    between atoms: C_17  and  C_19
REMARK    7  A    between atoms: C_19  and  N_20
REMARK    8  A    between atoms: C_22  and  O_30
REMARK    9  A    between atoms: C_25  and  C_27
REMARK                            x       y       z     vdW  Elec       q    Type
REMARK                         _______ _______ _______ _____ _____    ______ ____
ROOT
ATOM      1  N   UNL     1       5.426  -1.670   1.441  0.00  0.00    -0.298 N 
ATOM      2  C   UNL     1       5.346  -3.015   1.392  0.00  0.00    +0.199 C 
ATOM      3  O   UNL     1       4.265  -3.561   1.450  0.00  0.00    -0.278 OA
ENDROOT
BRANCH   1   4
ATOM      4  C   UNL     1       4.221  -0.873   1.680  0.00  0.00    +0.112 C 
BRANCH   4   5
ATOM      5  C   UNL     1       3.562  -0.530   0.342  0.00  0.00    +0.054 C 
BRANCH   5   9
ATOM      6  C   UNL     1       0.047   1.795   1.038  0.00  0.00    +0.000 A 
ATOM      7  C   UNL     1       1.266   2.421   0.864  0.00  0.00    +0.000 A 
ATOM      8  C   UNL     1       2.404   1.669   0.639  0.00  0.00    +0.004 A 
ATOM      9  C   UNL     1       2.322   0.290   0.589  0.00  0.00    -0.046 A 
ATOM     10  C   UNL     1       1.103  -0.337   0.764  0.00  0.00    +0.004 A 
ATOM     11  C   UNL     1      -0.035   0.416   0.988  0.00  0.00    +0.000 A 
ENDBRANCH   5   9
ENDBRANCH   4   5
ENDBRANCH   1   4
BRANCH   1  12
ATOM     12  C   UNL     1       6.719  -1.006   1.254  0.00  0.00    +0.142 C 
BRANCH  12  13
ATOM     13  C   UNL     1       7.333  -0.716   2.599  0.00  0.00    -0.030 A 
ATOM     14  C   UNL     1       6.961   0.416   3.300  0.00  0.00    +0.005 A 
ATOM     15  C   UNL     1       7.525   0.682   4.534  0.00  0.00    +0.000 A 
ATOM     16  C   UNL     1       8.460  -0.185   5.067  0.00  0.00    +0.000 A 
ATOM     17  C   UNL     1       8.832  -1.318   4.367  0.00  0.00    +0.000 A 
ATOM     18  C   UNL     1       8.265  -1.586   3.135  0.00  0.00    +0.005 A 
ENDBRANCH  12  13
ENDBRANCH   1  12
BRANCH   2  19
ATOM     19  C   UNL     1       6.601  -3.840   1.264  0.00  0.00    +0.020 C 
BRANCH  19  20
ATOM     20  N   UNL     1       6.255  -5.267   1.304  0.00  0.00    +0.395 N 
ATOM     21  C   UNL     1       5.512  -5.646   0.083  0.00  0.00    -0.045 C 
ATOM     22  C   UNL     1       5.944  -7.078  -0.283  0.00  0.00    +0.097 C 
ATOM     23  C   UNL     1       6.993  -7.468   0.784  0.00  0.00    +0.023 C 
ATOM     24  C   UNL     1       7.489  -6.094   1.301  0.00  0.00    +0.022 C 
ATOM     25  H   UNL     1       5.703  -5.469   2.125  0.00  0.00    -0.080 HD
BRANCH  24  26
ATOM     26  C   UNL     1       8.048  -6.220   2.695  0.00  0.00    +0.197 C 
ATOM     27  O   UNL     1       7.487  -5.679   3.624  0.00  0.00    -0.278 OA
ATOM     28  N   UNL     1       9.171  -6.934   2.908  0.00  0.00    -0.331 N 
ATOM     29  H   UNL     1       9.619  -7.367   2.164  0.00  0.00    +0.145 HD
ATOM     30  H   UNL     1       9.531  -7.015   3.805  0.00  0.00    +0.145 HD
ENDBRANCH  24  26
BRANCH  22  31
ATOM     31  O   UNL     1       4.824  -7.964  -0.226  0.00  0.00    -0.394 OA
ATOM     32  H   UNL     1       5.037  -8.881  -0.447  0.00  0.00    +0.210 HD
ENDBRANCH  22  31
ENDBRANCH  19  20
ENDBRANCH   2  19
TORSDOF 9
