REMARK  Name = ZINC45922517
REMARK  5 active torsions:
REMARK  status: ('A' for Active; 'I' for Inactive)
REMARK    1  A    between atoms: C_1  and  O_2
REMARK    2  A    between atoms: O_2  and  C_3
REMARK    3  A    between atoms: C_3  and  C_5
REMARK    4  A    between atoms: C_9  and  N_10
REMARK    5  A    between atoms: N_13  and  N_14
REMARK                            x       y       z     vdW  Elec       q    Type
REMARK                         _______ _______ _______ _____ _____    ______ ____
ROOT
ATOM      1  C   UNL     1       0.659  -2.064  -1.123  0.00  0.00    +0.091 A 
ATOM      2  C   UNL     1      -0.389  -2.830  -1.776  0.00  0.00    -0.021 A 
ATOM      3  C   UNL     1      -0.188  -4.165  -1.760  0.00  0.00    -0.004 A 
ATOM      4  S   UNL     1       1.345  -4.379  -0.903  0.00  0.00    -0.077 S 
ATOM      5  C   UNL     1       1.718  -2.774  -0.578  0.00  0.00    +0.088 A 
ATOM      6  C   UNL     1      -1.080  -5.216  -2.344  0.00  0.00    +0.043 C 
ATOM      7  C   UNL     1      -2.447  -4.581  -2.636  0.00  0.00    +0.005 C 
ATOM      8  C   UNL     1      -2.231  -3.260  -3.380  0.00  0.00    +0.005 C 
ATOM      9  C   UNL     1      -1.619  -2.224  -2.433  0.00  0.00    +0.037 C 
ENDROOT
BRANCH   5  10
ATOM     10  N   UNL     1       2.828  -2.275   0.085  0.00  0.00    -0.262 N 
ATOM     11  C   UNL     1       3.769  -3.119   0.553  0.00  0.00    +0.318 C 
ATOM     12  O   UNL     1       3.644  -4.317   0.394  0.00  0.00    -0.251 OA
ATOM     13  N   UNL     1       4.849  -2.633   1.198  0.00  0.00    -0.237 N 
ATOM     14  H   UNL     1       2.928  -1.319   0.212  0.00  0.00    +0.157 HD
ATOM     15  H   UNL     1       5.526  -3.240   1.535  0.00  0.00    +0.170 HD
BRANCH  13  16
ATOM     16  N   UNL     1       4.989  -1.286   1.376  0.00  0.00    -0.253 NA
ATOM     17  H   UNL     1       5.842  -1.074   1.873  0.00  0.00    +0.141 HD
ATOM     18  H   UNL     1       4.954  -0.798   0.493  0.00  0.00    +0.141 HD
ENDBRANCH  13  16
ENDBRANCH   5  10
BRANCH   1  19
ATOM     19  C   UNL     1       0.601  -0.603  -1.048  0.00  0.00    +0.342 C 
ATOM     20  O   UNL     1       1.094   0.071  -1.933  0.00  0.00    -0.245 OA
BRANCH  19  22
ATOM     21  C   UNL     1      -0.017   1.425   0.010  0.00  0.00    +0.280 C 
ATOM     22  O   UNL     1       0.002  -0.004   0.002  0.00  0.00    -0.464 OA
ENDBRANCH  19  22
ENDBRANCH   1  19
TORSDOF 4
