REMARK  Name = ZINC18320803
REMARK  5 active torsions:
REMARK  status: ('A' for Active; 'I' for Inactive)
REMARK    1  A    between atoms: C_4  and  N_7
REMARK    2  A    between atoms: C_16  and  S_17
REMARK    3  A    between atoms: S_17  and  C_18
REMARK    4  A    between atoms: C_18  and  C_19
REMARK    5  A    between atoms: C_27  and  N_29
REMARK                            x       y       z     vdW  Elec       q    Type
REMARK                         _______ _______ _______ _____ _____    ______ ____
ROOT
ATOM      1  N   UNL     1      -1.651   4.494  -4.529  0.00  0.00    -0.255 N 
ATOM      2  C   UNL     1      -1.889   3.563  -3.575  0.00  0.00    +0.268 A 
ATOM      3  O   UNL     1      -2.248   2.431  -3.852  0.00  0.00    -0.267 OA
ATOM      4  C   UNL     1      -1.693   3.989  -2.222  0.00  0.00    +0.076 A 
ATOM      5  C   UNL     1      -1.879   3.188  -1.023  0.00  0.00    -0.023 A 
ATOM      6  C   UNL     1      -1.636   3.799   0.159  0.00  0.00    -0.004 A 
ATOM      7  S   UNL     1      -1.151   5.454  -0.263  0.00  0.00    -0.073 S 
ATOM      8  C   UNL     1      -1.275   5.324  -2.019  0.00  0.00    +0.117 A 
ATOM      9  N   UNL     1      -1.058   6.191  -3.000  0.00  0.00    -0.215 NA
ATOM     10  C   UNL     1      -1.248   5.765  -4.241  0.00  0.00    +0.178 A 
ATOM     11  C   UNL     1      -1.754   3.205   1.529  0.00  0.00    +0.043 C 
ATOM     12  C   UNL     1      -2.552   1.897   1.424  0.00  0.00    +0.005 C 
ATOM     13  C   UNL     1      -1.981   1.067   0.270  0.00  0.00    +0.005 C 
ATOM     14  C   UNL     1      -2.326   1.729  -1.064  0.00  0.00    +0.037 C 
ENDROOT
BRANCH   1  18
ATOM     15  C   UNL     1      -2.173   3.430  -8.525  0.00  0.00    +0.000 A 
ATOM     16  C   UNL     1      -3.230   3.959  -7.808  0.00  0.00    +0.002 A 
ATOM     17  C   UNL     1      -3.061   4.312  -6.484  0.00  0.00    +0.026 A 
ATOM     18  C   UNL     1      -1.827   4.136  -5.872  0.00  0.00    +0.052 A 
ATOM     19  C   UNL     1      -0.765   3.610  -6.596  0.00  0.00    +0.026 A 
ATOM     20  C   UNL     1      -0.943   3.253  -7.918  0.00  0.00    +0.002 A 
ENDBRANCH   1  18
BRANCH  10  21
ATOM     21  S   UNL     1      -0.970   6.885  -5.572  0.00  0.00    -0.079 S 
BRANCH  21  22
ATOM     22  C   UNL     1      -0.474   8.358  -4.644  0.00  0.00    +0.153 C 
BRANCH  22  23
ATOM     23  C   UNL     1      -0.177   9.481  -5.605  0.00  0.00    +0.142 A 
ATOM     24  N   UNL     1       1.049   9.613  -6.054  0.00  0.00    -0.231 NA
ATOM     25  C   UNL     1       1.356  10.595  -6.914  0.00  0.00    +0.076 A 
ATOM     26  C   UNL     1       2.653  10.763  -7.418  0.00  0.00    +0.028 A 
ATOM     27  C   UNL     1       2.911  11.782  -8.286  0.00  0.00    +0.002 A 
ATOM     28  C   UNL     1       1.906  12.659  -8.682  0.00  0.00    +0.001 A 
ATOM     29  C   UNL     1       0.633  12.524  -8.211  0.00  0.00    +0.013 A 
ATOM     30  C   UNL     1       0.335  11.489  -7.319  0.00  0.00    +0.040 A 
ATOM     31  C   UNL     1      -0.968  11.298  -6.796  0.00  0.00    +0.127 A 
ATOM     32  N   UNL     1      -1.163  10.291  -5.954  0.00  0.00    -0.216 NA
BRANCH  31  33
ATOM     33  N   UNL     1      -2.004  12.134  -7.151  0.00  0.00    -0.343 N 
ATOM     34  H   UNL     1      -2.890  11.991  -6.785  0.00  0.00    +0.144 HD
ATOM     35  H   UNL     1      -1.846  12.867  -7.768  0.00  0.00    +0.144 HD
ENDBRANCH  31  33
ENDBRANCH  22  23
ENDBRANCH  21  22
ENDBRANCH  10  21
TORSDOF 5
