REMARK  Name = ZINC56062402
REMARK  8 active torsions:
REMARK  status: ('A' for Active; 'I' for Inactive)
REMARK    1  A    between atoms: C_1  and  C_2
REMARK    2  A    between atoms: C_3  and  S_8
REMARK    3  A    between atoms: C_4  and  C_7
REMARK    4  A    between atoms: S_8  and  N_11
REMARK    5  A    between atoms: N_11  and  C_12
REMARK    6  A    between atoms: C_12  and  C_13
REMARK    7  A    between atoms: C_21  and  C_28
REMARK    8  A    between atoms: C_24  and  C_27
REMARK                            x       y       z     vdW  Elec       q    Type
REMARK                         _______ _______ _______ _____ _____    ______ ____
ROOT
ATOM      1  C   UNL     1       3.681  -0.911  -4.157  0.00  0.00    -0.016 A 
ATOM      2  C   UNL     1       3.699  -1.053  -5.538  0.00  0.00    +0.009 A 
ATOM      3  C   UNL     1       4.854  -0.717  -6.221  0.00  0.00    +0.042 A 
ATOM      4  C   UNL     1       5.952  -0.251  -5.505  0.00  0.00    +0.099 A 
ATOM      5  N   UNL     1       5.896  -0.129  -4.188  0.00  0.00    -0.349 N 
ATOM      6  C   UNL     1       4.805  -0.437  -3.511  0.00  0.00    +0.089 A 
ATOM      7  N   UNL     1       7.119   0.090  -6.179  0.00  0.00    -0.312 N 
ATOM      8  C   UNL     1       8.252   0.704  -5.468  0.00  0.00    +0.137 C 
ATOM      9  C   UNL     1       9.523  -0.082  -5.813  0.00  0.00    +0.133 C 
ATOM     10  O   UNL     1       9.643  -0.181  -7.234  0.00  0.00    -0.371 OA
ATOM     11  C   UNL     1       8.578  -0.897  -7.863  0.00  0.00    +0.133 C 
ATOM     12  C   UNL     1       7.261  -0.158  -7.622  0.00  0.00    +0.137 C 
ATOM     13  C   UNL     1       8.487  -2.304  -7.270  0.00  0.00    +0.039 C 
ATOM     14  C   UNL     1      10.743   0.645  -5.245  0.00  0.00    +0.039 C 
ATOM     15  H   UNL     1       6.673   0.198  -3.709  0.00  0.00    +0.167 HD
ENDROOT
BRANCH   1  16
ATOM     16  C   UNL     1       2.445  -1.265  -3.371  0.00  0.00    +0.142 C 
BRANCH  16  17
ATOM     17  N   UNL     1       1.582  -0.086  -3.262  0.00  0.00    -0.185 NA
ATOM     18  H   UNL     1       1.934   0.794  -3.469  0.00  0.00    +0.148 HD
BRANCH  17  19
ATOM     19  S   UNL     1       0.005  -0.256  -2.785  0.00  0.00    +0.064 S 
ATOM     20  O   UNL     1      -0.548  -1.299  -3.575  0.00  0.00    -0.153 OA
ATOM     21  O   UNL     1      -0.552   1.051  -2.751  0.00  0.00    -0.153 OA
BRANCH  19  24
ATOM     22  C   UNL     1       0.023   1.469   0.065  0.00  0.00    +0.071 C 
ATOM     23  C   UNL     1       0.030  -0.037   0.033  0.00  0.00    +0.107 A 
ATOM     24  C   UNL     1       0.023  -0.839  -1.123  0.00  0.00    +0.169 A 
ATOM     25  C   UNL     1       0.032  -2.129  -0.738  0.00  0.00    +0.161 A 
ATOM     26  O   UNL     1       0.044  -2.162   0.604  0.00  0.00    -0.358 OA
ATOM     27  N   UNL     1       0.048  -0.825   1.071  0.00  0.00    -0.081 NA
ATOM     28  C   UNL     1       0.029  -3.327  -1.653  0.00  0.00    +0.091 C 
ENDBRANCH  19  24
ENDBRANCH  17  19
ENDBRANCH  16  17
ENDBRANCH   1  16
TORSDOF 4
