REMARK  Name = ZINC38441956
REMARK  4 active torsions:
REMARK  status: ('A' for Active; 'I' for Inactive)
REMARK    1  A    between atoms: C_4  and  O_7
REMARK    2  A    between atoms: O_7  and  C_8
REMARK    3  A    between atoms: C_14  and  C_16
REMARK    4  A    between atoms: C_21  and  O_26
REMARK                            x       y       z     vdW  Elec       q    Type
REMARK                         _______ _______ _______ _____ _____    ______ ____
ROOT
ATOM      1  C   UNL     1       4.343  -1.806  -0.980  0.00  0.00    +0.105 C 
ATOM      2  C   UNL     1       3.122  -2.239  -1.113  0.00  0.00    +0.033 C 
ATOM      3  C   UNL     1       2.714  -3.663  -0.858  0.00  0.00    +0.138 C 
ATOM      4  N   UNL     1       3.919  -4.492  -0.710  0.00  0.00    -0.292 N 
ATOM      5  C   UNL     1       5.021  -3.943   0.100  0.00  0.00    +0.116 C 
ATOM      6  C   UNL     1       5.510  -2.661  -0.582  0.00  0.00    +0.093 C 
ATOM      7  C   UNL     1       4.012  -5.704  -1.291  0.00  0.00    +0.263 C 
ATOM      8  O   UNL     1       5.010  -6.382  -1.129  0.00  0.00    -0.268 OA
ENDROOT
BRANCH   7   9
ATOM      9  C   UNL     1       2.909  -6.208  -2.121  0.00  0.00    +0.103 A 
ATOM     10  C   UNL     1       3.020  -7.155  -3.089  0.00  0.00    +0.040 A 
ATOM     11  C   UNL     1       1.735  -7.355  -3.647  0.00  0.00    +0.001 A 
ATOM     12  C   UNL     1       1.247  -8.191  -4.661  0.00  0.00    +0.013 A 
ATOM     13  C   UNL     1      -0.076  -8.162  -4.988  0.00  0.00    +0.046 A 
ATOM     14  C   UNL     1      -0.952  -7.304  -4.323  0.00  0.00    +0.119 A 
ATOM     15  C   UNL     1      -0.493  -6.471  -3.320  0.00  0.00    +0.071 A 
ATOM     16  C   UNL     1       0.854  -6.487  -2.972  0.00  0.00    +0.050 A 
ATOM     17  N   UNL     1       1.591  -5.797  -2.038  0.00  0.00    -0.350 N 
ATOM     18  H   UNL     1       1.244  -5.131  -1.424  0.00  0.00    +0.166 HD
BRANCH  14  19
ATOM     19  O   UNL     1      -2.267  -7.288  -4.663  0.00  0.00    -0.507 OA
ATOM     20  H   UNL     1      -2.810  -7.913  -4.164  0.00  0.00    +0.292 HD
ENDBRANCH  14  19
ENDBRANCH   7   9
BRANCH   1  21
ATOM     21  O   UNL     1       4.577  -0.492  -1.224  0.00  0.00    -0.461 OA
BRANCH  21  25
ATOM     22  C   UNL     1       5.688   1.899   1.948  0.00  0.00    +0.000 A 
ATOM     23  C   UNL     1       5.327   0.583   2.170  0.00  0.00    +0.004 A 
ATOM     24  C   UNL     1       4.954  -0.220   1.109  0.00  0.00    +0.046 A 
ATOM     25  C   UNL     1       4.943   0.296  -0.179  0.00  0.00    +0.128 A 
ATOM     26  C   UNL     1       5.305   1.617  -0.398  0.00  0.00    +0.046 A 
ATOM     27  C   UNL     1       5.677   2.416   0.666  0.00  0.00    +0.004 A 
ENDBRANCH  21  25
ENDBRANCH   1  21
TORSDOF 4
