REMARK  Name = ZINC39476567
REMARK  7 active torsions:
REMARK  status: ('A' for Active; 'I' for Inactive)
REMARK    1  A    between atoms: C_3  and  C_6
REMARK    2  A    between atoms: C_9  and  C_31
REMARK    3  A    between atoms: C_12  and  C_14
REMARK    4  A    between atoms: C_14  and  O_15
REMARK    5  A    between atoms: O_15  and  C_16
REMARK    6  A    between atoms: C_16  and  C_18
REMARK    7  A    between atoms: C_21  and  N_24
REMARK                            x       y       z     vdW  Elec       q    Type
REMARK                         _______ _______ _______ _____ _____    ______ ____
ROOT
ATOM      1  C   UNL     1       2.942   0.113   0.134  0.00  0.00    +0.173 C 
ATOM      2  C   UNL     1       3.554  -0.161   1.522  0.00  0.00    +0.090 C 
ATOM      3  C   UNL     1       4.558  -1.263   1.268  0.00  0.00    +0.075 C 
ATOM      4  N   UNL     1       4.547  -1.575   0.015  0.00  0.00    -0.180 NA
ATOM      5  N   UNL     1       3.641  -0.835  -0.749  0.00  0.00    -0.179 N 
ATOM      6  C   UNL     1       3.439  -0.965  -2.075  0.00  0.00    +0.273 C 
ATOM      7  O   UNL     1       2.622  -0.265  -2.636  0.00  0.00    -0.270 OA
ENDROOT
BRANCH   1  10
ATOM      8  C   UNL     1      -0.742   0.062   0.191  0.00  0.00    +0.041 A 
ATOM      9  C   UNL     1       0.487   0.760   0.209  0.00  0.00    +0.046 A 
ATOM     10  C   UNL     1       1.461  -0.166   0.143  0.00  0.00    +0.128 A 
ATOM     11  O   UNL     1       0.890  -1.380   0.086  0.00  0.00    -0.466 OA
ATOM     12  C   UNL     1      -0.446  -1.248   0.115  0.00  0.00    +0.195 A 
ENDBRANCH   1  10
BRANCH   3  13
ATOM     13  C   UNL     1       5.412  -1.881   2.286  0.00  0.00    +0.035 A 
ATOM     14  C   UNL     1       6.356  -2.884   2.143  0.00  0.00    +0.017 A 
ATOM     15  C   UNL     1       7.040  -3.303   3.260  0.00  0.00    +0.008 A 
ATOM     16  C   UNL     1       6.771  -2.724   4.460  0.00  0.00    +0.046 A 
ATOM     17  S   UNL     1       5.513  -1.532   4.034  0.00  0.00    -0.095 S 
ENDBRANCH   3  13
BRANCH   6  18
ATOM     18  C   UNL     1       4.228  -1.980  -2.862  0.00  0.00    +0.330 C 
BRANCH  18  19
ATOM     19  O   UNL     1       3.837  -1.928  -4.235  0.00  0.00    -0.452 OA
BRANCH  19  20
ATOM     20  C   UNL     1       4.452  -2.779  -5.079  0.00  0.00    +0.340 C 
ATOM     21  O   UNL     1       5.298  -3.544  -4.661  0.00  0.00    -0.245 OA
BRANCH  20  22
ATOM     22  C   UNL     1       4.099  -2.781  -6.512  0.00  0.00    +0.059 A 
ATOM     23  C   UNL     1       3.131  -1.897  -6.996  0.00  0.00    +0.017 A 
ATOM     24  C   UNL     1       2.804  -1.902  -8.333  0.00  0.00    +0.025 A 
ATOM     25  C   UNL     1       3.436  -2.785  -9.202  0.00  0.00    +0.044 A 
ATOM     26  C   UNL     1       4.401  -3.666  -8.724  0.00  0.00    +0.025 A 
ATOM     27  C   UNL     1       4.737  -3.663  -7.389  0.00  0.00    +0.017 A 
BRANCH  25  28
ATOM     28  N   UNL     1       3.101  -2.788 -10.559  0.00  0.00    -0.210 N 
ATOM     29  C   UNL     1       2.473  -3.812 -11.149  0.00  0.00    +0.227 C 
ATOM     30  O   UNL     1       2.127  -4.834 -10.597  0.00  0.00    -0.275 OA
ATOM     31  C   UNL     1       2.264  -3.492 -12.613  0.00  0.00    +0.106 C 
ATOM     32  C   UNL     1       2.887  -2.090 -12.769  0.00  0.00    +0.106 C 
ATOM     33  C   UNL     1       3.377  -1.763 -11.375  0.00  0.00    +0.227 C 
ATOM     34  O   UNL     1       3.934  -0.736 -11.050  0.00  0.00    -0.275 OA
ENDBRANCH  25  28
ENDBRANCH  20  22
ENDBRANCH  19  20
ENDBRANCH  18  19
ENDBRANCH   6  18
TORSDOF 7
