REMARK  Name = ZINC63007601
REMARK  7 active torsions:
REMARK  status: ('A' for Active; 'I' for Inactive)
REMARK    1  A    between atoms: C_1  and  C_2
REMARK    2  A    between atoms: C_2  and  C_3
REMARK    3  A    between atoms: C_3  and  C_5
REMARK    4  A    between atoms: C_3  and  N_10
REMARK    5  A    between atoms: C_11  and  C_13
REMARK    6  A    between atoms: C_16  and  N_20
REMARK    7  A    between atoms: N_20  and  N_21
REMARK                            x       y       z     vdW  Elec       q    Type
REMARK                         _______ _______ _______ _____ _____    ______ ____
ROOT
ATOM      1  C   UNL     1       3.934   1.526   1.538  0.00  0.00    +0.042 A 
ATOM      2  C   UNL     1       4.891   0.652   1.013  0.00  0.00    +0.053 A 
ATOM      3  C   UNL     1       6.212   1.038   0.949  0.00  0.00    +0.149 A 
ATOM      4  C   UNL     1       6.595   2.297   1.406  0.00  0.00    +0.112 A 
ATOM      5  C   UNL     1       5.644   3.169   1.929  0.00  0.00    +0.149 A 
ATOM      6  C   UNL     1       4.320   2.791   1.990  0.00  0.00    +0.053 A 
ATOM      7  F   UNL     1       6.019   4.389   2.373  0.00  0.00    -0.203 F 
ATOM      8  F   UNL     1       7.138   0.194   0.442  0.00  0.00    -0.203 F 
ENDROOT
BRANCH   1  10
ATOM      9  N   UNL     1       2.148  -0.104   1.172  0.00  0.00    -0.304 N 
ATOM     10  C   UNL     1       2.518   1.116   1.608  0.00  0.00    +0.245 C 
ATOM     11  O   UNL     1       1.686   1.879   2.060  0.00  0.00    -0.270 OA
ATOM     12  H   UNL     1       2.812  -0.712   0.811  0.00  0.00    +0.150 HD
BRANCH   9  13
ATOM     13  C   UNL     1       0.742  -0.511   1.242  0.00  0.00    +0.110 C 
BRANCH  13  14
ATOM     14  C   UNL     1       0.657  -2.014   1.298  0.00  0.00    +0.010 A 
ATOM     15  C   UNL     1      -0.173  -2.795   2.031  0.00  0.00    +0.013 A 
ATOM     16  C   UNL     1      -0.072  -4.170   1.921  0.00  0.00    +0.008 A 
ATOM     17  C   UNL     1       0.854  -4.696   1.083  0.00  0.00    +0.045 A 
ATOM     18  S   UNL     1       1.617  -3.229   0.409  0.00  0.00    -0.100 S 
ENDBRANCH  13  14
BRANCH  13  20
ATOM     19  C   UNL     1      -0.019   1.526   0.010  0.00  0.00    +0.006 C 
ATOM     20  C   UNL     1       0.002  -0.004   0.002  0.00  0.00    +0.024 C 
ENDBRANCH  13  20
ENDBRANCH   9  13
ENDBRANCH   1  10
BRANCH   4  21
ATOM     21  N   UNL     1       7.932   2.684   1.340  0.00  0.00    -0.278 N 
ATOM     22  H   UNL     1       8.622   2.019   1.186  0.00  0.00    +0.166 HD
BRANCH  21  23
ATOM     23  N   UNL     1       8.271   3.998   1.492  0.00  0.00    -0.256 NA
ATOM     24  H   UNL     1       7.922   4.363   2.366  0.00  0.00    +0.140 HD
ATOM     25  H   UNL     1       9.270   4.125   1.420  0.00  0.00    +0.140 HD
ENDBRANCH  21  23
ENDBRANCH   4  21
TORSDOF 6
