REMARK  Name = ZINC15978937
REMARK  8 active torsions:
REMARK  status: ('A' for Active; 'I' for Inactive)
REMARK    1  A    between atoms: C_1  and  C_2
REMARK    2  A    between atoms: C_5  and  S_8
REMARK    3  A    between atoms: S_8  and  C_9
REMARK    4  A    between atoms: C_9  and  C_10
REMARK    5  A    between atoms: C_15  and  N_18
REMARK    6  A    between atoms: N_21  and  C_22
REMARK    7  A    between atoms: C_27  and  S_28
REMARK    8  A    between atoms: S_28  and  C_29
REMARK                            x       y       z     vdW  Elec       q    Type
REMARK                         _______ _______ _______ _____ _____    ______ ____
ROOT
ATOM      1  N   UNL     1      -2.152  -9.284   2.241  0.00  0.00    -0.179 NA
ATOM      2  C   UNL     1      -2.115 -10.533   1.809  0.00  0.00    +0.203 C 
ATOM      3  N   UNL     1      -3.234 -11.313   1.877  0.00  0.00    -0.369 N 
ATOM      4  N   UNL     1      -0.956 -11.044   1.296  0.00  0.00    -0.325 N 
ATOM      5  H   UNL     1      -4.112 -10.901   1.879  0.00  0.00    +0.159 HD
ATOM      6  H   UNL     1      -3.151 -12.278   1.922  0.00  0.00    +0.159 HD
ATOM      7  H   UNL     1      -0.150 -10.504   1.286  0.00  0.00    +0.169 HD
ENDROOT
BRANCH   1  13
ATOM      8  C   UNL     1      -0.251  -6.248   1.987  0.00  0.00    +0.034 A 
ATOM      9  C   UNL     1       0.653  -6.602   1.050  0.00  0.00    +0.094 A 
ATOM     10  C   UNL     1       0.601  -7.910   0.500  0.00  0.00    +0.275 A 
ATOM     11  O   UNL     1       1.410  -8.251  -0.349  0.00  0.00    -0.266 OA
ATOM     12  N   UNL     1      -0.338  -8.767   0.918  0.00  0.00    -0.173 NA
ATOM     13  C   UNL     1      -1.219  -8.406   1.839  0.00  0.00    +0.234 A 
ATOM     14  N   UNL     1      -1.189  -7.156   2.389  0.00  0.00    -0.327 N 
ATOM     15  H   UNL     1      -1.840  -6.910   3.066  0.00  0.00    +0.169 HD
BRANCH   8  16
ATOM     16  C   UNL     1      -0.221  -4.867   2.589  0.00  0.00    +0.127 C 
BRANCH  16  17
ATOM     17  S   UNL     1      -1.581  -3.880   1.905  0.00  0.00    -0.119 S 
BRANCH  17  22
ATOM     18  C   UNL     1      -1.003   1.481   4.619  0.00  0.00    +0.044 C 
ATOM     19  C   UNL     1      -1.147   0.142   3.941  0.00  0.00    -0.050 A 
ATOM     20  C   UNL     1      -2.167  -0.063   3.030  0.00  0.00    +0.004 A 
ATOM     21  C   UNL     1      -2.303  -1.288   2.407  0.00  0.00    +0.015 A 
ATOM     22  C   UNL     1      -1.412  -2.315   2.696  0.00  0.00    +0.008 A 
ATOM     23  C   UNL     1      -0.388  -2.104   3.612  0.00  0.00    +0.015 A 
ATOM     24  C   UNL     1      -0.256  -0.875   4.227  0.00  0.00    +0.004 A 
ENDBRANCH  17  22
ENDBRANCH  16  17
ENDBRANCH   8  16
ENDBRANCH   1  13
BRANCH   4  25
ATOM     25  C   UNL     1      -0.932 -12.348   0.783  0.00  0.00    +0.056 A 
ATOM     26  C   UNL     1      -2.093 -12.922   0.288  0.00  0.00    +0.027 A 
ATOM     27  C   UNL     1      -2.067 -14.208  -0.217  0.00  0.00    +0.002 A 
ATOM     28  C   UNL     1      -0.885 -14.927  -0.230  0.00  0.00    +0.001 A 
ATOM     29  C   UNL     1       0.277 -14.363   0.262  0.00  0.00    +0.017 A 
ATOM     30  C   UNL     1       0.262 -13.070   0.765  0.00  0.00    +0.036 A 
BRANCH  30  31
ATOM     31  S   UNL     1       1.743 -12.345   1.386  0.00  0.00    -0.087 S 
BRANCH  31  32
ATOM     32  C   UNL     1       2.986 -13.540   1.023  0.00  0.00    +0.013 A 
ATOM     33  C   UNL     1       3.655 -13.502  -0.195  0.00  0.00    +0.015 A 
ATOM     34  C   UNL     1       4.629 -14.439  -0.475  0.00  0.00    +0.001 A 
ATOM     35  C   UNL     1       4.940 -15.416   0.454  0.00  0.00    +0.000 A 
ATOM     36  C   UNL     1       4.276 -15.457   1.667  0.00  0.00    +0.001 A 
ATOM     37  C   UNL     1       3.305 -14.519   1.956  0.00  0.00    +0.015 A 
ENDBRANCH  31  32
ENDBRANCH  30  31
ENDBRANCH   4  25
TORSDOF 7
