REMARK  Name = ZINC24428280
REMARK  10 active torsions:
REMARK  status: ('A' for Active; 'I' for Inactive)
REMARK    1  A    between atoms: C_1  and  C_2
REMARK    2  A    between atoms: C_2  and  C_3
REMARK    3  A    between atoms: C_3  and  C_4
REMARK    4  A    between atoms: C_4  and  N_5
REMARK    5  A    between atoms: C_9  and  C_11
REMARK    6  A    between atoms: C_11  and  C_13
REMARK    7  A    between atoms: C_11  and  S_14
REMARK    8  A    between atoms: S_14  and  C_15
REMARK    9  A    between atoms: C_18  and  C_25
REMARK   10  A    between atoms: N_19  and  C_20
REMARK                            x       y       z     vdW  Elec       q    Type
REMARK                         _______ _______ _______ _____ _____    ______ ____
ROOT
ATOM      1  C   UNL     1       3.899   5.537  -0.139  0.00  0.00    +0.193 A 
ATOM      2  N   UNL     1       4.501   4.377  -0.004  0.00  0.00    -0.122 NA
ATOM      3  N   UNL     1       3.631   3.440   0.125  0.00  0.00    -0.128 NA
ATOM      4  C   UNL     1       2.420   3.945   0.080  0.00  0.00    +0.167 A 
ATOM      5  N   UNL     1       2.554   5.303  -0.095  0.00  0.00    -0.299 N 
ENDROOT
BRANCH   4   6
ATOM      6  C   UNL     1       1.151   3.194   0.191  0.00  0.00    +0.038 A 
ATOM      7  C   UNL     1       0.149   3.634   1.058  0.00  0.00    +0.013 A 
ATOM      8  C   UNL     1      -1.032   2.930   1.157  0.00  0.00    +0.001 A 
ATOM      9  C   UNL     1      -1.225   1.785   0.403  0.00  0.00    +0.001 A 
ATOM     10  C   UNL     1      -0.239   1.346  -0.463  0.00  0.00    +0.021 A 
ATOM     11  C   UNL     1       0.949   2.042  -0.571  0.00  0.00    +0.052 A 
ATOM     12 CL   UNL     1       2.188   1.485  -1.652  0.00  0.00    -0.083 Cl
ENDBRANCH   4   6
BRANCH   5  13
ATOM     13  C   UNL     1       1.479   6.291  -0.209  0.00  0.00    +0.091 C 
ATOM     14  C   UNL     1       1.587   7.037  -1.555  0.00  0.00    +0.025 C 
ATOM     15  C   UNL     1       1.179   8.493  -1.215  0.00  0.00    +0.002 C 
ATOM     16  C   UNL     1       1.809   8.707   0.184  0.00  0.00    +0.002 C 
ATOM     17  C   UNL     1       1.619   7.352   0.896  0.00  0.00    +0.025 C 
ENDBRANCH   5  13
BRANCH   1  18
ATOM     18  S   UNL     1       4.680   7.103  -0.345  0.00  0.00    -0.073 S 
BRANCH  18  19
ATOM     19  C   UNL     1       6.417   6.595  -0.308  0.00  0.00    +0.137 C 
ATOM     20  C   UNL     1       6.754   6.033   1.075  0.00  0.00    +0.029 C 
BRANCH  19  25
ATOM     21  N   UNL     1      10.545   8.492  -1.881  0.00  0.00    -0.299 N 
ATOM     22  C   UNL     1       9.312   8.671  -1.365  0.00  0.00    +0.306 C 
ATOM     23  O   UNL     1       8.910   9.794  -1.131  0.00  0.00    -0.252 OA
ATOM     24  N   UNL     1       8.527   7.606  -1.109  0.00  0.00    -0.239 N 
ATOM     25  C   UNL     1       7.295   7.786  -0.594  0.00  0.00    +0.233 C 
ATOM     26  O   UNL     1       6.893   8.905  -0.360  0.00  0.00    -0.274 OA
ATOM     27  H   UNL     1      10.909   7.476  -2.093  0.00  0.00    +0.150 HD
ATOM     28  H   UNL     1       8.892   6.590  -1.322  0.00  0.00    +0.159 HD
BRANCH  21  29
ATOM     29  C   UNL     1      11.398   9.649  -2.159  0.00  0.00    +0.106 C 
BRANCH  29  30
ATOM     30  C   UNL     1      12.733   9.172  -2.736  0.00  0.00    +0.018 C 
BRANCH  30  32
ATOM     31  C   UNL     1      14.959   9.904  -3.602  0.00  0.00    +0.004 C 
ATOM     32  C   UNL     1      13.624  10.381  -3.026  0.00  0.00    -0.002 C 
ENDBRANCH  30  32
ENDBRANCH  29  30
ENDBRANCH  21  29
ENDBRANCH  19  25
ENDBRANCH  18  19
ENDBRANCH   1  18
TORSDOF 8
