REMARK  Name = ZINC00945760
REMARK  12 active torsions:
REMARK  status: ('A' for Active; 'I' for Inactive)
REMARK    1  A    between atoms: C_1  and  C_2
REMARK    2  A    between atoms: C_2  and  N_3
REMARK    3  A    between atoms: N_3  and  C_4
REMARK    4  A    between atoms: N_3  and  C_6
REMARK    5  A    between atoms: C_4  and  C_5
REMARK    6  A    between atoms: C_9  and  C_13
REMARK    7  A    between atoms: C_10  and  O_12
REMARK    8  A    between atoms: N_14  and  N_15
REMARK    9  A    between atoms: C_16  and  C_18
REMARK   10  A    between atoms: C_20  and  C_24
REMARK   11  A    between atoms: C_33  and  O_34
REMARK   12  A    between atoms: O_34  and  C_35
REMARK                            x       y       z     vdW  Elec       q    Type
REMARK                         _______ _______ _______ _____ _____    ______ ____
ROOT
ATOM      1  N   UNL     1      -6.974   5.312   0.028  0.00  0.00    -0.202 N 
ATOM      2  C   UNL     1      -6.223   4.195  -0.039  0.00  0.00    +0.281 C 
ATOM      3  O   UNL     1      -6.759   3.108  -0.146  0.00  0.00    -0.267 OA
ATOM      4  H   UNL     1      -6.547   6.179   0.113  0.00  0.00    +0.178 HD
ENDROOT
BRANCH   2   5
ATOM      5  C   UNL     1      -4.756   4.290   0.015  0.00  0.00    +0.122 A 
ATOM      6  C   UNL     1      -3.857   3.242  -0.042  0.00  0.00    +0.062 A 
ATOM      7  C   UNL     1      -2.585   3.840   0.047  0.00  0.00    +0.097 A 
ATOM      8  N   UNL     1      -2.764   5.140   0.153  0.00  0.00    -0.173 NA
ATOM      9  N   UNL     1      -4.014   5.432   0.132  0.00  0.00    -0.272 N 
ATOM     10  H   UNL     1      -4.389   6.357   0.193  0.00  0.00    +0.189 HD
BRANCH   7  11
ATOM     11  C   UNL     1      -1.283   3.133   0.032  0.00  0.00    +0.051 A 
ATOM     12  C   UNL     1      -0.235   3.583  -0.805  0.00  0.00    -0.005 A 
ATOM     13  C   UNL     1      -0.398   4.702  -1.636  0.00  0.00    +0.009 A 
ATOM     14  C   UNL     1       0.632   5.109  -2.429  0.00  0.00    +0.001 A 
ATOM     15  C   UNL     1       1.849   4.430  -2.428  0.00  0.00    +0.001 A 
ATOM     16  C   UNL     1       2.042   3.340  -1.635  0.00  0.00    +0.008 A 
ATOM     17  C   UNL     1       1.001   2.892  -0.803  0.00  0.00    -0.017 A 
ATOM     18  C   UNL     1       1.168   1.769   0.028  0.00  0.00    +0.012 A 
ATOM     19  C   UNL     1       0.147   1.351   0.824  0.00  0.00    +0.047 A 
ATOM     20  C   UNL     1      -1.080   2.017   0.832  0.00  0.00    +0.130 A 
BRANCH  20  21
ATOM     21  O   UNL     1      -2.083   1.572   1.634  0.00  0.00    -0.494 OA
ATOM     22  C   UNL     1      -1.809   0.423   2.437  0.00  0.00    +0.277 C 
ENDBRANCH  20  21
ENDBRANCH   7  11
ENDBRANCH   2   5
BRANCH   1  24
ATOM     23  C   UNL     1      -9.095   6.299   0.041  0.00  0.00    +0.142 C 
ATOM     24  N   UNL     1      -8.371   5.222  -0.024  0.00  0.00    -0.187 NA
BRANCH  23  28
ATOM     25  C   UNL     1     -13.331   6.025  -0.118  0.00  0.00    +0.033 A 
ATOM     26  C   UNL     1     -12.717   7.268   0.005  0.00  0.00    +0.024 A 
ATOM     27  C   UNL     1     -11.344   7.361   0.057  0.00  0.00    +0.015 A 
ATOM     28  C   UNL     1     -10.563   6.204  -0.013  0.00  0.00    +0.036 A 
ATOM     29  C   UNL     1     -11.183   4.952  -0.142  0.00  0.00    +0.127 A 
ATOM     30  C   UNL     1     -12.563   4.870  -0.189  0.00  0.00    +0.069 A 
BRANCH  29  31
ATOM     31  O   UNL     1     -10.431   3.824  -0.216  0.00  0.00    -0.506 OA
ATOM     32  H   UNL     1     -10.241   3.421   0.642  0.00  0.00    +0.292 HD
ENDBRANCH  29  31
BRANCH  25  33
ATOM     33  N   UNL     1     -14.722   5.939  -0.170  0.00  0.00    -0.330 N 
BRANCH  33  35
ATOM     34  C   UNL     1     -15.770   7.699  -1.507  0.00  0.00    +0.024 C 
ATOM     35  C   UNL     1     -15.534   7.157  -0.096  0.00  0.00    +0.102 C 
ENDBRANCH  33  35
BRANCH  33  36
ATOM     36  C   UNL     1     -15.371   4.632  -0.298  0.00  0.00    +0.102 C 
ATOM     37  C   UNL     1     -15.643   4.059   1.094  0.00  0.00    +0.024 C 
ENDBRANCH  33  36
ENDBRANCH  25  33
ENDBRANCH  23  28
ENDBRANCH   1  24
TORSDOF 9
