REMARK  Name = ZINC52430058
REMARK  8 active torsions:
REMARK  status: ('A' for Active; 'I' for Inactive)
REMARK    1  A    between atoms: C_1  and  C_2
REMARK    2  A    between atoms: C_2  and  C_4
REMARK    3  A    between atoms: C_2  and  O_17
REMARK    4  A    between atoms: O_17  and  C_18
REMARK    5  A    between atoms: C_21  and  C_24
REMARK    6  A    between atoms: C_24  and  C_25
REMARK    7  A    between atoms: C_25  and  C_26
REMARK    8  A    between atoms: C_26  and  C_28
REMARK                            x       y       z     vdW  Elec       q    Type
REMARK                         _______ _______ _______ _____ _____    ______ ____
ROOT
ATOM      1  C   UNL     1      -0.044   1.273   0.345  0.00  0.00    +0.062 C 
ATOM      2  C   UNL     1      -0.015  -0.229   0.058  0.00  0.00    +0.256 C 
ENDROOT
BRANCH   2   3
ATOM      3  C   UNL     1      -1.426  -0.749  -0.046  0.00  0.00    +0.261 C 
ATOM      4  O   UNL     1      -1.835  -1.187  -1.100  0.00  0.00    -0.271 OA
ATOM      5  N   UNL     1      -2.233  -0.726   1.034  0.00  0.00    -0.258 N 
ATOM      6  C   UNL     1      -1.763  -0.194   2.322  0.00  0.00    +0.209 C 
ATOM      7  C   UNL     1      -2.245  -1.095   3.430  0.00  0.00    +0.235 C 
ATOM      8  O   UNL     1      -1.597  -1.188   4.451  0.00  0.00    -0.274 OA
ATOM      9  N   UNL     1      -3.387  -1.796   3.301  0.00  0.00    -0.283 N 
ATOM     10  C   UNL     1      -4.128  -1.745   2.116  0.00  0.00    +0.055 A 
ATOM     11  C   UNL     1      -3.551  -1.204   0.963  0.00  0.00    +0.058 A 
ATOM     12  C   UNL     1      -4.268  -1.148  -0.218  0.00  0.00    +0.025 A 
ATOM     13  C   UNL     1      -5.567  -1.623  -0.255  0.00  0.00    +0.002 A 
ATOM     14  C   UNL     1      -6.146  -2.153   0.883  0.00  0.00    +0.002 A 
ATOM     15  C   UNL     1      -5.428  -2.222   2.071  0.00  0.00    +0.025 A 
ATOM     16  H   UNL     1      -3.700  -2.343   4.039  0.00  0.00    +0.155 HD
ENDBRANCH   2   3
BRANCH   2  17
ATOM     17  O   UNL     1       0.671  -0.465  -1.174  0.00  0.00    -0.480 OA
BRANCH  17  18
ATOM     18  C   UNL     1       2.026  -0.553  -1.118  0.00  0.00    +0.122 A 
ATOM     19  C   UNL     1       2.690  -0.309   0.075  0.00  0.00    +0.046 A 
ATOM     20  C   UNL     1       4.067  -0.400   0.129  0.00  0.00    +0.007 A 
ATOM     21  C   UNL     1       4.784  -0.733  -1.005  0.00  0.00    -0.047 A 
ATOM     22  C   UNL     1       4.125  -0.976  -2.196  0.00  0.00    +0.007 A 
ATOM     23  C   UNL     1       2.747  -0.893  -2.253  0.00  0.00    +0.046 A 
BRANCH  21  24
ATOM     24  C   UNL     1       6.287  -0.831  -0.944  0.00  0.00    +0.042 C 
BRANCH  24  25
ATOM     25  C   UNL     1       6.690  -2.260  -0.579  0.00  0.00    +0.078 C 
BRANCH  25  26
ATOM     26  C   UNL     1       8.193  -2.358  -0.517  0.00  0.00    +0.131 C 
ATOM     27  O   UNL     1       8.871  -1.385  -0.742  0.00  0.00    -0.298 OA
ATOM     28  C   UNL     1       8.849  -3.671  -0.175  0.00  0.00    +0.086 C 
ENDBRANCH  25  26
ENDBRANCH  24  25
ENDBRANCH  21  24
ENDBRANCH  17  18
ENDBRANCH   2  17
TORSDOF 6
