REMARK  Name = ZINC05080416
REMARK  1 active torsions:
REMARK  status: ('A' for Active; 'I' for Inactive)
REMARK    1  A    between atoms: C_4  and  C_7
REMARK                            x       y       z     vdW  Elec       q    Type
REMARK                         _______ _______ _______ _____ _____    ______ ____
ROOT
ATOM      1  C   UNL     1      -0.013   1.086   0.008  0.00  0.00    +0.210 C 
ATOM      2  C   UNL     1      -0.803   1.617   1.228  0.00  0.00    +0.095 C 
ATOM      3  C   UNL     1      -2.191   1.793   0.638  0.00  0.00    +0.082 A 
ATOM      4  C   UNL     1      -2.062   1.748  -0.737  0.00  0.00    +0.226 A 
ATOM      5  N   UNL     1      -3.173   1.862  -1.484  0.00  0.00    -0.199 NA
ATOM      6  C   UNL     1      -4.359   2.024  -0.951  0.00  0.00    +0.116 A 
ATOM      7  N   UNL     1      -4.528   2.079   0.385  0.00  0.00    -0.296 N 
ATOM      8  C   UNL     1      -3.454   1.966   1.204  0.00  0.00    +0.261 A 
ATOM      9  O   UNL     1      -3.590   2.015   2.416  0.00  0.00    -0.267 OA
ATOM     10  C   UNL     1      -5.946   2.262   0.735  0.00  0.00    +0.127 C 
ATOM     11  C   UNL     1      -6.631   2.757  -0.556  0.00  0.00    +0.029 C 
ATOM     12  C   UNL     1      -5.702   2.176  -1.645  0.00  0.00    +0.076 C 
ATOM     13  O   UNL     1      -0.768   1.592  -1.106  0.00  0.00    -0.468 OA
ENDROOT
BRANCH   1  17
ATOM     14  C   UNL     1       3.963   2.649  -0.022  0.00  0.00    +0.000 A 
ATOM     15  C   UNL     1       3.733   1.352   0.397  0.00  0.00    +0.000 A 
ATOM     16  C   UNL     1       2.447   0.846   0.406  0.00  0.00    +0.007 A 
ATOM     17  C   UNL     1       1.390   1.637  -0.002  0.00  0.00    -0.007 A 
ATOM     18  C   UNL     1       1.620   2.933  -0.426  0.00  0.00    +0.007 A 
ATOM     19  C   UNL     1       2.906   3.440  -0.431  0.00  0.00    +0.000 A 
ENDBRANCH   1  17
TORSDOF 1
