REMARK  Name = ZINC39545639
REMARK  8 active torsions:
REMARK  status: ('A' for Active; 'I' for Inactive)
REMARK    1  A    between atoms: C_1  and  O_2
REMARK    2  A    between atoms: O_2  and  C_3
REMARK    3  A    between atoms: C_6  and  C_18
REMARK    4  A    between atoms: N_20  and  C_21
REMARK    5  A    between atoms: N_20  and  S_28
REMARK    6  A    between atoms: C_26  and  O_27
REMARK    7  A    between atoms: S_28  and  O_31
REMARK    8  A    between atoms: O_31  and  C_32
REMARK                            x       y       z     vdW  Elec       q    Type
REMARK                         _______ _______ _______ _____ _____    ______ ____
ROOT
ATOM      1  C   UNL     1      -1.462  -4.887   0.080  0.00  0.00    +0.264 C 
ATOM      2  O   UNL     1      -1.114  -5.565  -0.864  0.00  0.00    -0.271 OA
ATOM      3  N   UNL     1      -1.547  -5.435   1.308  0.00  0.00    -0.105 N 
ENDROOT
BRANCH   1   6
ATOM      4  C   UNL     1      -0.807  -1.487  -1.085  0.00  0.00    +0.181 C 
ATOM      5  C   UNL     1      -0.520  -2.568  -0.016  0.00  0.00    +0.073 C 
ATOM      6  C   UNL     1      -1.797  -3.432  -0.121  0.00  0.00    +0.174 C 
ATOM      7  N   UNL     1      -2.310  -3.209  -1.481  0.00  0.00    -0.345 N 
ATOM      8  C   UNL     1      -1.788  -2.150  -2.022  0.00  0.00    +0.105 C 
ATOM      9  N   UNL     1      -2.108  -1.710  -3.288  0.00  0.00    -0.302 N 
ATOM     10  C   UNL     1      -3.253  -2.244  -3.895  0.00  0.00    +0.037 A 
ATOM     11  C   UNL     1      -3.782  -1.632  -5.024  0.00  0.00    +0.023 A 
ATOM     12  C   UNL     1      -4.913  -2.151  -5.623  0.00  0.00    +0.002 A 
ATOM     13  C   UNL     1      -5.516  -3.279  -5.097  0.00  0.00    +0.000 A 
ATOM     14  C   UNL     1      -4.990  -3.890  -3.975  0.00  0.00    +0.007 A 
ATOM     15  C   UNL     1      -3.855  -3.378  -3.370  0.00  0.00    -0.007 A 
ATOM     16  C   UNL     1      -3.288  -4.074  -2.153  0.00  0.00    +0.155 C 
ATOM     17  H   UNL     1      -1.560  -1.052  -3.744  0.00  0.00    +0.153 HD
BRANCH   4  19
ATOM     18  C   UNL     1       0.401   0.198  -2.289  0.00  0.00    +0.194 C 
ATOM     19  O   UNL     1       0.392  -1.138  -1.780  0.00  0.00    -0.372 OA
ENDBRANCH   4  19
ENDBRANCH   1   6
BRANCH   3  20
ATOM     20  C   UNL     1      -1.150  -6.763   1.512  0.00  0.00    +0.104 A 
ATOM     21  C   UNL     1       0.185  -7.063   1.738  0.00  0.00    +0.029 A 
ATOM     22  C   UNL     1       0.574  -8.374   1.939  0.00  0.00    +0.002 A 
ATOM     23  C   UNL     1      -0.365  -9.389   1.916  0.00  0.00    +0.004 A 
ATOM     24  C   UNL     1      -1.697  -9.097   1.692  0.00  0.00    +0.047 A 
ATOM     25  C   UNL     1      -2.096  -7.785   1.495  0.00  0.00    +0.140 A 
BRANCH  25  26
ATOM     26  O   UNL     1      -3.408  -7.497   1.281  0.00  0.00    -0.505 OA
ATOM     27  H   UNL     1      -3.686  -7.593   0.359  0.00  0.00    +0.292 HD
ENDBRANCH  25  26
ENDBRANCH   3  20
BRANCH   3  28
ATOM     28  S   UNL     1      -2.122  -4.538   2.577  0.00  0.00    +0.217 S 
ATOM     29  O   UNL     1      -2.323  -5.442   3.655  0.00  0.00    -0.115 OA
ATOM     30  O   UNL     1      -1.278  -3.400   2.684  0.00  0.00    -0.115 OA
BRANCH  28  31
ATOM     31  O   UNL     1      -3.498  -4.024   2.178  0.00  0.00    -0.331 OA
BRANCH  31  32
ATOM     32  C   UNL     1      -4.461  -4.982   2.155  0.00  0.00    +0.158 A 
ATOM     33  C   UNL     1      -4.824  -5.574   0.954  0.00  0.00    +0.048 A 
ATOM     34  C   UNL     1      -5.803  -6.548   0.933  0.00  0.00    +0.004 A 
ATOM     35  C   UNL     1      -6.421  -6.934   2.109  0.00  0.00    +0.000 A 
ATOM     36  C   UNL     1      -6.061  -6.346   3.307  0.00  0.00    +0.004 A 
ATOM     37  C   UNL     1      -5.078  -5.375   3.334  0.00  0.00    +0.048 A 
ENDBRANCH  31  32
ENDBRANCH  28  31
ENDBRANCH   3  28
TORSDOF 7
