REMARK  Name = ZINC33893562
REMARK  6 active torsions:
REMARK  status: ('A' for Active; 'I' for Inactive)
REMARK    1  A    between atoms: C_1  and  C_2
REMARK    2  A    between atoms: N_8  and  C_9
REMARK    3  A    between atoms: C_9  and  C_10
REMARK    4  A    between atoms: C_11  and  C_21
REMARK    5  A    between atoms: N_23  and  N_24
REMARK    6  A    between atoms: C_25  and  C_26
REMARK                            x       y       z     vdW  Elec       q    Type
REMARK                         _______ _______ _______ _____ _____    ______ ____
ROOT
ATOM      1  C   UNL     1       0.219  -1.314   3.674  0.00  0.00    +0.063 A 
ATOM      2  C   UNL     1       0.619  -0.459   4.661  0.00  0.00    +0.170 A 
ATOM      3  N   UNL     1       1.003  -1.186   5.725  0.00  0.00    -0.124 NA
ATOM      4  N   UNL     1       0.867  -2.440   5.462  0.00  0.00    -0.058 NA
ATOM      5  N   UNL     1       0.363  -2.567   4.160  0.00  0.00    -0.194 N 
ATOM      6  C   UNL     1       0.068  -3.760   3.492  0.00  0.00    +0.240 A 
ATOM      7  C   UNL     1       0.225  -5.111   4.039  0.00  0.00    +0.206 A 
ATOM      8  N   UNL     1      -0.149  -5.968   3.130  0.00  0.00    -0.032 NA
ATOM      9  O   UNL     1      -0.554  -5.237   1.985  0.00  0.00    -0.239 OA
ATOM     10  N   UNL     1      -0.398  -3.861   2.280  0.00  0.00    -0.027 NA
ATOM     11  N   UNL     1       0.694  -5.425   5.310  0.00  0.00    -0.337 N 
ATOM     12  H   UNL     1       0.951  -4.717   5.921  0.00  0.00    +0.144 HD
ATOM     13  H   UNL     1       0.764  -6.352   5.586  0.00  0.00    +0.144 HD
ENDROOT
BRANCH   2  14
ATOM     14  C   UNL     1       0.628   1.013   4.575  0.00  0.00    +0.285 C 
ATOM     15  O   UNL     1       0.345   1.563   3.528  0.00  0.00    -0.267 OA
ATOM     16  N   UNL     1       0.951   1.750   5.657  0.00  0.00    -0.202 N 
ATOM     17  H   UNL     1       1.247   1.312   6.471  0.00  0.00    +0.178 HD
BRANCH  16  18
ATOM     18  N   UNL     1       0.859   3.147   5.607  0.00  0.00    -0.187 NA
ATOM     19  C   UNL     1       1.277   3.861   6.606  0.00  0.00    +0.139 C 
BRANCH  19  20
ATOM     20  C   UNL     1       2.045   3.228   7.695  0.00  0.00    +0.014 A 
ATOM     21  C   UNL     1       2.807   2.085   7.443  0.00  0.00    +0.011 A 
ATOM     22  C   UNL     1       3.523   1.498   8.465  0.00  0.00    +0.002 A 
ATOM     23  C   UNL     1       3.489   2.038   9.738  0.00  0.00    +0.021 A 
ATOM     24  C   UNL     1       2.737   3.171   9.997  0.00  0.00    +0.060 A 
ATOM     25  C   UNL     1       2.019   3.773   8.981  0.00  0.00    +0.068 A 
ATOM     26 CL   UNL     1       1.082   5.199   9.304  0.00  0.00    -0.081 Cl
ATOM     27 CL   UNL     1       2.701   3.840  11.598  0.00  0.00    -0.082 Cl
ENDBRANCH  19  20
ENDBRANCH  16  18
ENDBRANCH   2  14
BRANCH   1  28
ATOM     28  C   UNL     1      -0.290  -0.933   2.307  0.00  0.00    -0.019 C 
BRANCH  28  35
ATOM     29  C   UNL     1      -1.509   1.024   0.705  0.00  0.00    -0.013 C 
ATOM     30  C   UNL     1      -2.228  -0.280   1.058  0.00  0.00    -0.071 C 
ATOM     31  C   UNL     1      -3.736  -0.026   1.130  0.00  0.00    -0.016 C 
ATOM     32  C   UNL     1      -4.451  -1.334   1.484  0.00  0.00    -0.003 C 
ATOM     33  C   UNL     1      -3.889  -1.871   2.803  0.00  0.00    -0.019 C 
ATOM     34  C   UNL     1      -2.376  -2.055   2.669  0.00  0.00    -0.078 C 
ATOM     35  N   UNL     1      -1.748  -0.766   2.357  0.00  0.00    +0.385 N 
ATOM     36  H   UNL     1      -1.984  -0.096   3.074  0.00  0.00    -0.081 HD
ENDBRANCH  28  35
ENDBRANCH   1  28
TORSDOF 5
