REMARK  Name = ZINC17414667
REMARK  9 active torsions:
REMARK  status: ('A' for Active; 'I' for Inactive)
REMARK    1  A    between atoms: C_4  and  C_7
REMARK    2  A    between atoms: C_7  and  N_8
REMARK    3  A    between atoms: C_10  and  C_13
REMARK    4  A    between atoms: C_14  and  C_15
REMARK    5  A    between atoms: N_16  and  N_17
REMARK    6  A    between atoms: C_18  and  C_20
REMARK    7  A    between atoms: C_25  and  N_26
REMARK    8  A    between atoms: N_26  and  S_27
REMARK    9  A    between atoms: S_27  and  C_30
REMARK                            x       y       z     vdW  Elec       q    Type
REMARK                         _______ _______ _______ _____ _____    ______ ____
ROOT
ATOM      1  N   UNL     1       7.236   3.509  -0.336  0.00  0.00    -0.203 N 
ATOM      2  C   UNL     1       7.941   4.654  -0.241  0.00  0.00    +0.265 C 
ATOM      3  O   UNL     1       7.363   5.713  -0.081  0.00  0.00    -0.268 OA
ATOM      4  H   UNL     1       7.697   2.665  -0.463  0.00  0.00    +0.178 HD
ENDROOT
BRANCH   2   5
ATOM      5  C   UNL     1       9.412   4.623  -0.331  0.00  0.00    +0.061 A 
ATOM      6  C   UNL     1      10.080   3.409  -0.509  0.00  0.00    +0.015 A 
ATOM      7  C   UNL     1      11.455   3.388  -0.597  0.00  0.00    +0.001 A 
ATOM      8  C   UNL     1      12.181   4.565  -0.500  0.00  0.00    +0.002 A 
ATOM      9  C   UNL     1      11.536   5.771  -0.319  0.00  0.00    +0.025 A 
ATOM     10  C   UNL     1      10.150   5.813  -0.233  0.00  0.00    +0.060 A 
BRANCH  10  11
ATOM     11  N   UNL     1       9.498   7.026  -0.051  0.00  0.00    -0.215 N 
ATOM     12  H   UNL     1       8.698   7.070   0.495  0.00  0.00    +0.174 HD
BRANCH  11  13
ATOM     13  S   UNL     1      10.088   8.398  -0.767  0.00  0.00    +0.079 S 
ATOM     14  O   UNL     1       9.143   9.428  -0.510  0.00  0.00    -0.149 OA
ATOM     15  O   UNL     1      11.452   8.503  -0.383  0.00  0.00    -0.149 OA
BRANCH  13  16
ATOM     16  C   UNL     1      10.075   8.124  -2.507  0.00  0.00    +0.146 A 
ATOM     17  C   UNL     1       9.092   8.383  -3.405  0.00  0.00    +0.036 A 
ATOM     18  C   UNL     1       9.305   8.083  -4.737  0.00  0.00    +0.010 A 
ATOM     19  C   UNL     1      10.490   7.539  -5.107  0.00  0.00    +0.047 A 
ATOM     20  S   UNL     1      11.354   7.442  -3.548  0.00  0.00    -0.077 S 
ENDBRANCH  13  16
ENDBRANCH  11  13
ENDBRANCH  10  11
ENDBRANCH   2   5
BRANCH   1  22
ATOM     21  C   UNL     1       5.157   2.432  -0.342  0.00  0.00    +0.130 C 
ATOM     22  N   UNL     1       5.838   3.538  -0.250  0.00  0.00    -0.188 NA
BRANCH  21  24
ATOM     23  C   UNL     1       3.036   1.315  -0.350  0.00  0.00    +0.032 C 
ATOM     24  C   UNL     1       3.742   2.461  -0.255  0.00  0.00    +0.023 C 
BRANCH  23  27
ATOM     25  N   UNL     1      -0.532   0.783  -0.203  0.00  0.00    -0.247 N 
ATOM     26  C   UNL     1       0.714   0.276  -0.337  0.00  0.00    +0.138 A 
ATOM     27  C   UNL     1       1.567   1.346  -0.260  0.00  0.00    +0.106 A 
ATOM     28  N   UNL     1       0.787   2.432  -0.084  0.00  0.00    -0.130 NA
ATOM     29  N   UNL     1      -0.443   2.057  -0.056  0.00  0.00    -0.065 NA
BRANCH  25  30
ATOM     30  C   UNL     1      -1.776   0.009  -0.221  0.00  0.00    +0.180 C 
BRANCH  30  34
ATOM     31  C   UNL     1      -4.003   0.811   3.335  0.00  0.00    +0.000 A 
ATOM     32  C   UNL     1      -4.198   1.587   2.208  0.00  0.00    +0.000 A 
ATOM     33  C   UNL     1      -3.477   1.328   1.057  0.00  0.00    +0.005 A 
ATOM     34  C   UNL     1      -2.561   0.292   1.033  0.00  0.00    -0.026 A 
ATOM     35  C   UNL     1      -2.371  -0.487   2.159  0.00  0.00    +0.005 A 
ATOM     36  C   UNL     1      -3.088  -0.225   3.311  0.00  0.00    +0.000 A 
ENDBRANCH  30  34
ENDBRANCH  25  30
ENDBRANCH  23  27
ENDBRANCH  21  24
ENDBRANCH   1  22
TORSDOF 9
