REMARK  Name = ZINC23197685
REMARK  15 active torsions:
REMARK  status: ('A' for Active; 'I' for Inactive)
REMARK    1  A    between atoms: C_1  and  C_2
REMARK    2  A    between atoms: C_2  and  N_3
REMARK    3  A    between atoms: N_3  and  C_4
REMARK    4  A    between atoms: N_3  and  C_6
REMARK    5  A    between atoms: C_4  and  C_5
REMARK    6  A    between atoms: C_6  and  C_8
REMARK    7  A    between atoms: C_6  and  C_15
REMARK    8  A    between atoms: C_8  and  C_9
REMARK    9  A    between atoms: C_15  and  N_16
REMARK   10  A    between atoms: C_17  and  C_19
REMARK   11  A    between atoms: C_21  and  S_26
REMARK   12  A    between atoms: C_24  and  C_25
REMARK   13  A    between atoms: S_26  and  N_29
REMARK   14  A    between atoms: N_29  and  C_30
REMARK   15  A    between atoms: C_30  and  C_31
REMARK                            x       y       z     vdW  Elec       q    Type
REMARK                         _______ _______ _______ _____ _____    ______ ____
ROOT
ATOM      1  N   UNL     1      -1.889   0.859  -0.493  0.00  0.00    -0.313 N 
ATOM      2  C   UNL     1      -3.164   0.444  -0.632  0.00  0.00    +0.244 C 
ATOM      3  O   UNL     1      -3.655  -0.299   0.196  0.00  0.00    -0.270 OA
ATOM      4  H   UNL     1      -1.472   1.597  -1.194  0.00  0.00    +0.149 HD
ENDROOT
BRANCH   2   5
ATOM      5  C   UNL     1      -3.966   0.892  -1.790  0.00  0.00    +0.041 A 
ATOM      6  C   UNL     1      -3.404   1.741  -2.745  0.00  0.00    +0.041 A 
ATOM      7  C   UNL     1      -4.158   2.155  -3.824  0.00  0.00    +0.106 A 
ATOM      8  C   UNL     1      -5.468   1.731  -3.960  0.00  0.00    +0.029 A 
ATOM      9  C   UNL     1      -6.031   0.890  -3.017  0.00  0.00    +0.006 A 
ATOM     10  C   UNL     1      -5.286   0.464  -1.936  0.00  0.00    -0.038 A 
ATOM     11  C   UNL     1      -5.899  -0.457  -0.913  0.00  0.00    +0.044 C 
BRANCH   7  12
ATOM     12  S   UNL     1      -3.450   3.227  -5.030  0.00  0.00    +0.059 S 
ATOM     13  O   UNL     1      -4.531   3.907  -5.653  0.00  0.00    -0.153 OA
ATOM     14  O   UNL     1      -2.386   3.915  -4.388  0.00  0.00    -0.153 OA
BRANCH  12  15
ATOM     15  N   UNL     1      -2.761   2.268  -6.192  0.00  0.00    -0.183 NA
ATOM     16  H   UNL     1      -1.667   2.164  -6.223  0.00  0.00    +0.148 HD
BRANCH  15  17
ATOM     17  C   UNL     1      -3.604   1.403  -7.022  0.00  0.00    +0.180 C 
BRANCH  17  18
ATOM     18  C   UNL     1      -2.815   0.929  -8.215  0.00  0.00    +0.120 A 
ATOM     19  C   UNL     1      -2.068  -0.189  -8.271  0.00  0.00    +0.046 A 
ATOM     20  C   UNL     1      -1.509  -0.244  -9.568  0.00  0.00    +0.041 A 
ATOM     21  C   UNL     1      -1.947   0.844 -10.228  0.00  0.00    +0.195 A 
ATOM     22  O   UNL     1      -2.742   1.547  -9.405  0.00  0.00    -0.466 OA
ENDBRANCH  17  18
ENDBRANCH  15  17
ENDBRANCH  12  15
ENDBRANCH   7  12
ENDBRANCH   2   5
BRANCH   1  23
ATOM     23  C   UNL     1      -1.059   0.326   0.590  0.00  0.00    +0.089 C 
BRANCH  23  24
ATOM     24  C   UNL     1       0.270   1.083   0.633  0.00  0.00    -0.047 C 
BRANCH  24  25
ATOM     25  N   UNL     1       0.022   2.489   0.979  0.00  0.00    +0.382 N 
ATOM     26  H   UNL     1       0.894   2.859   1.538  0.00  0.00    -0.081 HD
BRANCH  25  28
ATOM     27  C   UNL     1       1.232   3.422  -0.935  0.00  0.00    -0.017 C 
ATOM     28  C   UNL     1      -0.121   3.311  -0.230  0.00  0.00    -0.082 C 
ENDBRANCH  25  28
BRANCH  25  29
ATOM     29  C   UNL     1      -1.157   2.618   1.846  0.00  0.00    -0.082 C 
ATOM     30  C   UNL     1      -0.830   2.070   3.236  0.00  0.00    -0.017 C 
ENDBRANCH  25  29
ENDBRANCH  24  25
BRANCH  24  31
ATOM     31  C   UNL     1       1.182   0.452   1.687  0.00  0.00    +0.021 C 
BRANCH  31  32
ATOM     32  C   UNL     1       2.543   1.096   1.623  0.00  0.00    -0.049 A 
ATOM     33  C   UNL     1       3.484   0.637   0.721  0.00  0.00    +0.003 A 
ATOM     34  C   UNL     1       4.731   1.231   0.659  0.00  0.00    +0.000 A 
ATOM     35  C   UNL     1       5.040   2.277   1.508  0.00  0.00    +0.000 A 
ATOM     36  C   UNL     1       4.101   2.733   2.414  0.00  0.00    +0.000 A 
ATOM     37  C   UNL     1       2.853   2.143   2.472  0.00  0.00    +0.003 A 
ENDBRANCH  31  32
ENDBRANCH  24  31
ENDBRANCH  23  24
ENDBRANCH   1  23
TORSDOF 12
