REMARK  Name = ZINC32851020
REMARK  5 active torsions:
REMARK  status: ('A' for Active; 'I' for Inactive)
REMARK    1  A    between atoms: C_8  and  C_28
REMARK    2  A    between atoms: N_10  and  C_12
REMARK    3  A    between atoms: C_12  and  C_13
REMARK    4  A    between atoms: C_22  and  S_24
REMARK    5  A    between atoms: S_24  and  N_27
REMARK                            x       y       z     vdW  Elec       q    Type
REMARK                         _______ _______ _______ _____ _____    ______ ____
ROOT
ATOM      1  C   UNL     1      -5.342   4.099   6.642  0.00  0.00    +0.021 C 
ENDROOT
BRANCH   1  10
ATOM      2  C   UNL     1      -2.424   9.653   8.040  0.00  0.00    +0.000 A 
ATOM      3  C   UNL     1      -2.833   9.684   6.720  0.00  0.00    +0.000 A 
ATOM      4  C   UNL     1      -3.542   8.623   6.194  0.00  0.00    +0.002 A 
ATOM      5  C   UNL     1      -3.848   7.524   6.984  0.00  0.00    -0.061 A 
ATOM      6  C   UNL     1      -3.436   7.492   8.299  0.00  0.00    -0.047 A 
ATOM      7  C   UNL     1      -2.725   8.559   8.826  0.00  0.00    +0.004 A 
ATOM      8  C   UNL     1      -3.738   6.317   9.193  0.00  0.00    +0.029 C 
ATOM      9  C   UNL     1      -4.853   5.468   8.582  0.00  0.00    +0.024 C 
ATOM     10  N   UNL     1      -4.506   5.181   7.180  0.00  0.00    +0.396 N 
ATOM     11  C   UNL     1      -4.632   6.395   6.368  0.00  0.00    -0.041 C 
ATOM     12  H   UNL     1      -3.460   4.845   7.139  0.00  0.00    -0.080 HD
BRANCH   9  13
ATOM     13  C   UNL     1      -4.987   4.175   9.345  0.00  0.00    +0.197 C 
ATOM     14  O   UNL     1      -4.276   3.231   9.069  0.00  0.00    -0.278 OA
ATOM     15  N   UNL     1      -5.896   4.067  10.334  0.00  0.00    -0.331 N 
ATOM     16  H   UNL     1      -5.993   3.124  10.891  0.00  0.00    +0.145 HD
ATOM     17  H   UNL     1      -6.540   4.923  10.584  0.00  0.00    +0.145 HD
ENDBRANCH   9  13
ENDBRANCH   1  10
BRANCH   1  18
ATOM     18  C   UNL     1      -4.983   3.857   5.199  0.00  0.00    +0.203 C 
ATOM     19  O   UNL     1      -4.031   4.425   4.707  0.00  0.00    -0.277 OA
ATOM     20  N   UNL     1      -5.720   3.010   4.454  0.00  0.00    -0.272 N 
ATOM     21  C   UNL     1      -6.889   2.268   4.934  0.00  0.00    +0.118 C 
ATOM     22  C   UNL     1      -7.373   1.451   3.725  0.00  0.00    +0.056 C 
ATOM     23  C   UNL     1      -6.409   1.806   2.616  0.00  0.00    -0.023 A 
ATOM     24  C   UNL     1      -5.482   2.710   3.109  0.00  0.00    +0.040 A 
ATOM     25  C   UNL     1      -4.482   3.187   2.260  0.00  0.00    +0.026 A 
ATOM     26  C   UNL     1      -4.418   2.756   0.951  0.00  0.00    +0.030 A 
ATOM     27  C   UNL     1      -5.350   1.858   0.467  0.00  0.00    +0.105 A 
ATOM     28  C   UNL     1      -6.344   1.382   1.302  0.00  0.00    +0.034 A 
BRANCH  27  29
ATOM     29  S   UNL     1      -5.269   1.316  -1.207  0.00  0.00    +0.056 S 
ATOM     30  O   UNL     1      -5.924   0.057  -1.259  0.00  0.00    -0.153 OA
ATOM     31  O   UNL     1      -3.922   1.492  -1.626  0.00  0.00    -0.153 OA
BRANCH  29  32
ATOM     32  N   UNL     1      -6.185   2.364  -2.106  0.00  0.00    -0.204 NA
ATOM     33  H   UNL     1      -6.160   2.059  -3.162  0.00  0.00    +0.144 HD
ATOM     34  H   UNL     1      -5.779   3.381  -2.008  0.00  0.00    +0.144 HD
ENDBRANCH  29  32
ENDBRANCH  27  29
ENDBRANCH   1  18
TORSDOF 5
