REMARK  Name = ZINC12714299
REMARK  8 active torsions:
REMARK  status: ('A' for Active; 'I' for Inactive)
REMARK    1  A    between atoms: C_1  and  C_2
REMARK    2  A    between atoms: C_5  and  C_8
REMARK    3  A    between atoms: C_8  and  N_65
REMARK    4  A    between atoms: C_14  and  C_16
REMARK    5  A    between atoms: C_16  and  C_17
REMARK    6  A    between atoms: C_22  and  O_25
REMARK    7  A    between atoms: O_25  and  C_26
REMARK    8  A    between atoms: C_31  and  C_32
REMARK                            x       y       z     vdW  Elec       q    Type
REMARK                         _______ _______ _______ _____ _____    ______ ____
ROOT
ATOM      1  C   UNL     1      -0.655  -6.467  -2.160  0.00  0.00    -0.058 C 
ATOM      2  C   UNL     1      -0.412  -4.959  -2.233  0.00  0.00    +0.085 C 
ATOM      3  N   UNL     1      -1.116  -4.286  -1.145  0.00  0.00    -0.318 N 
ATOM      4  C   UNL     1      -1.551  -4.926  -0.055  0.00  0.00    +0.200 C 
ATOM      5  O   UNL     1      -2.099  -4.284   0.816  0.00  0.00    -0.278 OA
ATOM      6  C   UNL     1      -1.391  -6.408   0.136  0.00  0.00    +0.028 C 
ATOM      7  H   UNL     1      -1.274  -3.331  -1.216  0.00  0.00    +0.149 HD
ATOM      8  N   UNL     1      -0.355  -6.913  -0.785  0.00  0.00    +0.391 N 
ATOM      9  H   UNL     1       0.558  -6.537  -0.502  0.00  0.00    -0.080 HD
ENDROOT
BRANCH   8  10
ATOM     10  C   UNL     1      -0.305  -8.392  -0.729  0.00  0.00    -0.042 C 
BRANCH  10  15
ATOM     11  C   UNL     1       4.395 -10.215  -3.553  0.00  0.00    +0.044 C 
ATOM     12  C   UNL     1       3.169  -9.740  -2.817  0.00  0.00    -0.050 A 
ATOM     13  C   UNL     1       1.972  -9.589  -3.492  0.00  0.00    +0.003 A 
ATOM     14  C   UNL     1       0.847  -9.158  -2.815  0.00  0.00    +0.002 A 
ATOM     15  C   UNL     1       0.920  -8.868  -1.466  0.00  0.00    -0.064 A 
ATOM     16  C   UNL     1       2.118  -9.014  -0.791  0.00  0.00    +0.002 A 
ATOM     17  C   UNL     1       3.243  -9.450  -1.467  0.00  0.00    +0.003 A 
ENDBRANCH  10  15
ENDBRANCH   8  10
BRANCH   6  18
ATOM     18  C   UNL     1      -0.957  -6.691   1.576  0.00  0.00    +0.090 C 
BRANCH  18  19
ATOM     19  C   UNL     1       0.397  -6.077   1.822  0.00  0.00    +0.214 C 
ATOM     20  O   UNL     1       0.927  -5.410   0.959  0.00  0.00    -0.276 OA
ATOM     21  N   UNL     1       1.019  -6.269   3.002  0.00  0.00    -0.301 N 
ATOM     22  C   UNL     1       0.387  -7.069   4.060  0.00  0.00    +0.111 C 
ATOM     23  C   UNL     1       0.346  -6.248   5.348  0.00  0.00    +0.063 C 
ATOM     24  C   UNL     1       1.758  -5.762   5.685  0.00  0.00    +0.176 C 
ATOM     25  C   UNL     1       2.274  -4.867   4.556  0.00  0.00    +0.063 C 
ATOM     26  C   UNL     1       2.340  -5.677   3.257  0.00  0.00    +0.111 C 
BRANCH  24  27
ATOM     27  O   UNL     1       1.726  -5.018   6.905  0.00  0.00    -0.488 OA
BRANCH  27  28
ATOM     28  C   UNL     1       1.755  -5.730   8.062  0.00  0.00    +0.124 A 
ATOM     29  C   UNL     1       1.878  -7.112   8.026  0.00  0.00    +0.046 A 
ATOM     30  C   UNL     1       1.907  -7.832   9.203  0.00  0.00    +0.004 A 
ATOM     31  C   UNL     1       1.815  -7.179  10.418  0.00  0.00    +0.000 A 
ATOM     32  C   UNL     1       1.693  -5.802  10.458  0.00  0.00    +0.007 A 
ATOM     33  C   UNL     1       1.668  -5.076   9.283  0.00  0.00    -0.009 A 
ATOM     34  C   UNL     1       1.541  -3.575   9.326  0.00  0.00    +0.047 C 
ENDBRANCH  27  28
ENDBRANCH  24  27
ENDBRANCH  18  19
ENDBRANCH   6  18
TORSDOF 6
