REMARK  Name = ZINC20798874
REMARK  9 active torsions:
REMARK  status: ('A' for Active; 'I' for Inactive)
REMARK    1  A    between atoms: C_3  and  S_27
REMARK    2  A    between atoms: C_6  and  C_7
REMARK    3  A    between atoms: C_7  and  N_8
REMARK    4  A    between atoms: C_9  and  C_11
REMARK    5  A    between atoms: C_11  and  N_12
REMARK    6  A    between atoms: N_12  and  C_13
REMARK    7  A    between atoms: N_12  and  C_21
REMARK    8  A    between atoms: C_13  and  C_14
REMARK    9  A    between atoms: S_27  and  N_30
REMARK                            x       y       z     vdW  Elec       q    Type
REMARK                         _______ _______ _______ _____ _____    ______ ____
ROOT
ATOM      1  N   UNL     1      -1.840  -3.649   0.877  0.00  0.00    -0.313 N 
ATOM      2  C   UNL     1      -1.502  -2.347   0.964  0.00  0.00    +0.197 C 
ATOM      3  O   UNL     1      -2.351  -1.490   0.844  0.00  0.00    -0.278 OA
ATOM      4  H   UNL     1      -1.070  -4.426   0.986  0.00  0.00    +0.149 HD
ENDROOT
BRANCH   1   5
ATOM      5  C   UNL     1      -3.235  -4.028   0.635  0.00  0.00    +0.139 C 
BRANCH   5  11
ATOM      6  C   UNL     1      -3.204  -6.190  -0.626  0.00  0.00    +0.007 A 
ATOM      7  C   UNL     1      -3.300  -7.568  -0.675  0.00  0.00    +0.029 A 
ATOM      8  C   UNL     1      -3.546  -8.286   0.481  0.00  0.00    +0.105 A 
ATOM      9  C   UNL     1      -3.692  -7.626   1.686  0.00  0.00    +0.029 A 
ATOM     10  C   UNL     1      -3.591  -6.248   1.736  0.00  0.00    +0.007 A 
ATOM     11  C   UNL     1      -3.344  -5.530   0.581  0.00  0.00    -0.030 A 
BRANCH   8  12
ATOM     12  S   UNL     1      -3.673 -10.042   0.417  0.00  0.00    +0.056 S 
ATOM     13  O   UNL     1      -2.957 -10.460  -0.737  0.00  0.00    -0.153 OA
ATOM     14  O   UNL     1      -3.364 -10.519   1.719  0.00  0.00    -0.153 OA
BRANCH  12  15
ATOM     15  N   UNL     1      -5.265 -10.408   0.144  0.00  0.00    -0.204 NA
ATOM     16  H   UNL     1      -5.387 -11.501   0.098  0.00  0.00    +0.144 HD
ATOM     17  H   UNL     1      -5.585  -9.963  -0.808  0.00  0.00    +0.144 HD
ENDBRANCH  12  15
ENDBRANCH   8  12
ENDBRANCH   5  11
ENDBRANCH   1   5
BRANCH   2  18
ATOM     18  C   UNL     1      -0.067  -1.957   1.212  0.00  0.00    +0.019 C 
BRANCH  18  19
ATOM     19  N   UNL     1       0.027  -0.497   1.344  0.00  0.00    +0.390 N 
ATOM     20  H   UNL     1      -0.828  -0.156   1.946  0.00  0.00    -0.080 HD
BRANCH  19  21
ATOM     21  C   UNL     1       1.257  -0.110   2.047  0.00  0.00    -0.067 C 
ATOM     22  C   UNL     1       2.463  -0.747   1.353  0.00  0.00    -0.015 C 
ATOM     23  C   UNL     1       3.745  -0.344   2.085  0.00  0.00    -0.002 C 
ATOM     24  C   UNL     1       3.677  -0.828   3.535  0.00  0.00    -0.000 C 
ATOM     25  C   UNL     1       2.471  -0.191   4.229  0.00  0.00    -0.002 C 
ATOM     26  C   UNL     1       1.190  -0.594   3.497  0.00  0.00    -0.015 C 
ENDBRANCH  19  21
BRANCH  19  27
ATOM     27  C   UNL     1      -0.056   0.156   0.030  0.00  0.00    -0.042 C 
BRANCH  27  28
ATOM     28  C   UNL     1      -0.203   1.644   0.218  0.00  0.00    -0.064 A 
ATOM     29  C   UNL     1      -1.462   2.207   0.314  0.00  0.00    +0.004 A 
ATOM     30  C   UNL     1      -1.598   3.571   0.491  0.00  0.00    +0.038 A 
ATOM     31  C   UNL     1      -0.473   4.375   0.561  0.00  0.00    +0.123 A 
ATOM     32  C   UNL     1       0.787   3.811   0.459  0.00  0.00    +0.038 A 
ATOM     33  C   UNL     1       0.921   2.446   0.288  0.00  0.00    +0.004 A 
ATOM     34  F   UNL     1      -0.604   5.709   0.729  0.00  0.00    -0.205 F 
ENDBRANCH  27  28
ENDBRANCH  19  27
ENDBRANCH  18  19
ENDBRANCH   2  18
TORSDOF 9
