REMARK  Name = ZINC30403621
REMARK  8 active torsions:
REMARK  status: ('A' for Active; 'I' for Inactive)
REMARK    1  A    between atoms: C_1  and  C_2
REMARK    2  A    between atoms: C_8  and  N_10
REMARK    3  A    between atoms: C_14  and  C_16
REMARK    4  A    between atoms: C_16  and  O_17
REMARK    5  A    between atoms: O_17  and  C_18
REMARK    6  A    between atoms: C_18  and  C_20
REMARK    7  A    between atoms: C_20  and  C_21
REMARK    8  A    between atoms: C_21  and  N_22
REMARK                            x       y       z     vdW  Elec       q    Type
REMARK                         _______ _______ _______ _____ _____    ______ ____
ROOT
ATOM      1  C   UNL     1       3.091  -7.187  -2.368  0.00  0.00    +0.309 C 
ATOM      2  O   UNL     1       3.750  -7.648  -1.467  0.00  0.00    -0.251 OA
ENDROOT
BRANCH   1   3
ATOM      3  O   UNL     1       3.200  -7.693  -3.607  0.00  0.00    -0.455 OA
BRANCH   3   4
ATOM      4  C   UNL     1       4.129  -8.794  -3.789  0.00  0.00    +0.328 C 
BRANCH   4   9
ATOM      5  N   UNL     1       5.687 -11.643  -7.334  0.00  0.00    -0.296 N 
ATOM      6  C   UNL     1       4.896 -10.629  -6.929  0.00  0.00    +0.306 C 
ATOM      7  O   UNL     1       4.174 -10.065  -7.727  0.00  0.00    -0.252 OA
ATOM      8  N   UNL     1       4.907 -10.241  -5.638  0.00  0.00    -0.237 N 
ATOM      9  C   UNL     1       4.117  -9.227  -5.232  0.00  0.00    +0.258 C 
ATOM     10  O   UNL     1       3.397  -8.664  -6.028  0.00  0.00    -0.272 OA
ATOM     11  H   UNL     1       6.340 -12.154  -6.612  0.00  0.00    +0.151 HD
ATOM     12  H   UNL     1       5.561 -10.752  -4.915  0.00  0.00    +0.159 HD
BRANCH   5  19
ATOM     13  C   UNL     1       8.149 -11.739  -8.856  0.00  0.00    +0.009 C 
ATOM     14  C   UNL     1       7.008 -12.732  -9.080  0.00  0.00    +0.006 C 
ATOM     15  C   UNL     1       6.996 -13.173 -10.545  0.00  0.00    +0.005 C 
ATOM     16  C   UNL     1       5.854 -14.167 -10.770  0.00  0.00    +0.000 C 
ATOM     17  C   UNL     1       4.521 -13.498 -10.427  0.00  0.00    +0.002 C 
ATOM     18  C   UNL     1       4.534 -13.058  -8.962  0.00  0.00    +0.022 C 
ATOM     19  C   UNL     1       5.675 -12.064  -8.737  0.00  0.00    +0.077 C 
ENDBRANCH   5  19
ENDBRANCH   4   9
ENDBRANCH   3   4
ENDBRANCH   1   3
BRANCH   1  20
ATOM     20  C   UNL     1       2.147  -6.043  -2.103  0.00  0.00    +0.142 C 
BRANCH  20  21
ATOM     21  C   UNL     1       2.213  -5.659  -0.623  0.00  0.00    +0.137 C 
BRANCH  21  22
ATOM     22  N   UNL     1       1.295  -4.547  -0.365  0.00  0.00    -0.298 N 
ATOM     23  C   UNL     1       0.019  -4.832  -0.011  0.00  0.00    +0.203 A 
ATOM     24  N   UNL     1      -0.879  -3.905   0.240  0.00  0.00    -0.230 NA
ATOM     25  C   UNL     1      -0.494  -2.637   0.136  0.00  0.00    +0.116 A 
ATOM     26  C   UNL     1       0.812  -2.239  -0.226  0.00  0.00    +0.076 A 
ATOM     27  C   UNL     1       1.762  -3.282  -0.491  0.00  0.00    +0.262 A 
ATOM     28  O   UNL     1       2.914  -3.045  -0.810  0.00  0.00    -0.267 OA
ATOM     29  C   UNL     1       1.051  -0.808  -0.290  0.00  0.00    -0.023 A 
ATOM     30  C   UNL     1       0.002  -0.004   0.002  0.00  0.00    -0.004 A 
ATOM     31  S   UNL     1      -1.339  -1.106   0.372  0.00  0.00    -0.073 S 
ATOM     32  C   UNL     1      -0.018   1.493   0.010  0.00  0.00    +0.043 C 
ATOM     33  C   UNL     1       1.431   1.999  -0.001  0.00  0.00    +0.005 C 
ATOM     34  C   UNL     1       2.205   1.245  -1.085  0.00  0.00    +0.005 C 
ATOM     35  C   UNL     1       2.405  -0.211  -0.663  0.00  0.00    +0.037 C 
ENDBRANCH  21  22
ENDBRANCH  20  21
ENDBRANCH   1  20
TORSDOF 7
