REMARK  Name = ZINC35368358
REMARK  8 active torsions:
REMARK  status: ('A' for Active; 'I' for Inactive)
REMARK    1  A    between atoms: C_1  and  C_2
REMARK    2  A    between atoms: C_2  and  C_3
REMARK    3  A    between atoms: C_2  and  C_4
REMARK    4  A    between atoms: C_4  and  N_5
REMARK    5  A    between atoms: C_6  and  C_8
REMARK    6  A    between atoms: C_8  and  N_9
REMARK    7  A    between atoms: N_12  and  C_15
REMARK    8  A    between atoms: C_20  and  N_21
REMARK                            x       y       z     vdW  Elec       q    Type
REMARK                         _______ _______ _______ _____ _____    ______ ____
ROOT
ATOM      1  N   UNL     1      -3.936  -4.691  -0.251  0.00  0.00    -0.291 NA
ATOM      2  C   UNL     1      -4.673  -4.237  -1.438  0.00  0.00    +0.104 C 
ATOM      3  C   UNL     1      -6.147  -4.633  -1.301  0.00  0.00    +0.120 C 
ATOM      4  N   UNL     1      -6.220  -6.079  -1.039  0.00  0.00    -0.326 N 
ATOM      5  C   UNL     1      -5.400  -6.631   0.050  0.00  0.00    +0.120 C 
ATOM      6  C   UNL     1      -3.955  -6.156  -0.139  0.00  0.00    +0.104 C 
ENDROOT
BRANCH   4   7
ATOM      7  C   UNL     1      -7.045  -6.904  -1.803  0.00  0.00    +0.053 A 
ATOM      8  C   UNL     1      -6.570  -7.517  -2.959  0.00  0.00    +0.042 A 
ATOM      9  C   UNL     1      -7.418  -8.327  -3.688  0.00  0.00    +0.084 A 
ATOM     10  N   UNL     1      -8.664  -8.527  -3.303  0.00  0.00    -0.365 N 
ATOM     11  C   UNL     1      -9.157  -7.966  -2.214  0.00  0.00    +0.107 A 
ATOM     12  C   UNL     1      -8.371  -7.144  -1.423  0.00  0.00    +0.062 A 
ATOM     13  H   UNL     1      -9.235  -9.101  -3.836  0.00  0.00    +0.165 HD
BRANCH  12  14
ATOM     14  N   UNL     1      -8.897  -6.557  -0.265  0.00  0.00    -0.355 N 
ATOM     15  H   UNL     1      -8.341  -5.979   0.281  0.00  0.00    +0.142 HD
ATOM     16  H   UNL     1      -9.817  -6.728  -0.009  0.00  0.00    +0.142 HD
ENDBRANCH  12  14
ENDBRANCH   4   7
BRANCH   1  17
ATOM     17  C   UNL     1      -2.558  -4.183  -0.262  0.00  0.00    +0.180 C 
BRANCH  17  19
ATOM     18  N   UNL     1      -1.416  -1.993  -0.116  0.00  0.00    -0.314 N 
ATOM     19  C   UNL     1      -2.575  -2.682  -0.130  0.00  0.00    +0.227 C 
ATOM     20  O   UNL     1      -3.631  -2.093  -0.036  0.00  0.00    -0.274 OA
ATOM     21  H   UNL     1      -0.572  -2.463  -0.190  0.00  0.00    +0.149 HD
BRANCH  18  22
ATOM     22  C   UNL     1      -1.433  -0.534   0.013  0.00  0.00    +0.107 C 
BRANCH  22  24
ATOM     23  C   UNL     1      -0.019   1.526   0.010  0.00  0.00    +0.009 C 
ATOM     24  C   UNL     1       0.002  -0.004   0.002  0.00  0.00    -0.000 C 
ATOM     25  C   UNL     1       0.742  -0.511   1.242  0.00  0.00    +0.009 C 
ENDBRANCH  22  24
ENDBRANCH  18  22
ENDBRANCH  17  19
ENDBRANCH   1  17
TORSDOF 6
