REMARK  Name = ZINC40824460
REMARK  8 active torsions:
REMARK  status: ('A' for Active; 'I' for Inactive)
REMARK    1  A    between atoms: C_1  and  C_2
REMARK    2  A    between atoms: C_5  and  N_9
REMARK    3  A    between atoms: C_6  and  C_8
REMARK    4  A    between atoms: C_10  and  C_12
REMARK    5  A    between atoms: C_13  and  C_26
REMARK    6  A    between atoms: N_21  and  N_22
REMARK    7  A    between atoms: N_22  and  C_23
REMARK    8  A    between atoms: C_23  and  N_25
REMARK                            x       y       z     vdW  Elec       q    Type
REMARK                         _______ _______ _______ _____ _____    ______ ____
ROOT
ATOM      1  C   UNL     1      -0.132  -6.302  -1.187  0.00  0.00    +0.193 A 
ATOM      2  C   UNL     1      -0.230  -7.096  -2.296  0.00  0.00    +0.009 A 
ATOM      3  C   UNL     1      -0.292  -8.414  -1.829  0.00  0.00    +0.042 A 
ATOM      4  C   UNL     1      -0.231  -8.369  -0.457  0.00  0.00    +0.115 A 
ATOM      5  O   UNL     1      -0.127  -7.094  -0.091  0.00  0.00    -0.454 OA
ATOM      6  C   UNL     1      -0.276  -9.604   0.407  0.00  0.00    +0.075 C 
ATOM      7  C   UNL     1      -0.896 -10.757  -0.386  0.00  0.00    +0.014 C 
ATOM      8  C   UNL     1      -0.174 -10.943  -1.725  0.00  0.00    +0.058 C 
ATOM      9  C   UNL     1      -0.400  -9.694  -2.565  0.00  0.00    +0.070 C 
ATOM     10  N   UNL     1      -0.669  -9.748  -3.833  0.00  0.00    -0.185 NA
ATOM     11  C   UNL     1      -0.265  -6.642  -3.733  0.00  0.00    +0.048 C 
ENDROOT
BRANCH   1  13
ATOM     12  N   UNL     1       0.058  -4.169  -0.021  0.00  0.00    -0.279 N 
ATOM     13  C   UNL     1      -0.041  -4.838  -1.187  0.00  0.00    +0.284 C 
ATOM     14  O   UNL     1      -0.054  -4.227  -2.239  0.00  0.00    -0.266 OA
ATOM     15  H   UNL     1       0.135  -4.657   0.814  0.00  0.00    +0.155 HD
BRANCH  12  20
ATOM     16  C   UNL     1       0.024   1.503   0.006  0.00  0.00    +0.044 C 
ATOM     17  C   UNL     1       0.033  -0.004  -0.001  0.00  0.00    -0.050 A 
ATOM     18  C   UNL     1       0.631  -0.685  -1.046  0.00  0.00    +0.005 A 
ATOM     19  C   UNL     1       0.641  -2.066  -1.055  0.00  0.00    +0.024 A 
ATOM     20  C   UNL     1       0.050  -2.771  -0.014  0.00  0.00    +0.037 A 
ATOM     21  C   UNL     1      -0.550  -2.083   1.033  0.00  0.00    -0.029 A 
ATOM     22  C   UNL     1      -0.551  -0.702   1.039  0.00  0.00    +0.008 A 
ATOM     23  C   UNL     1      -1.193  -2.843   2.164  0.00  0.00    +0.045 C 
ENDBRANCH  12  20
ENDBRANCH   1  13
BRANCH  10  24
ATOM     24  N   UNL     1      -0.760 -10.988  -4.478  0.00  0.00    -0.218 N 
ATOM     25  H   UNL     1      -0.622 -11.807  -3.976  0.00  0.00    +0.176 HD
BRANCH  24  26
ATOM     26  C   UNL     1      -1.039 -11.043  -5.795  0.00  0.00    +0.147 C 
ATOM     27  S   UNL     1      -1.150 -12.559  -6.583  0.00  0.00    -0.017 S 
BRANCH  26  28
ATOM     28  N   UNL     1      -1.231  -9.906  -6.492  0.00  0.00    -0.339 N 
ATOM     29  H   UNL     1      -1.168  -9.047  -6.045  0.00  0.00    +0.144 HD
ATOM     30  H   UNL     1      -1.432  -9.946  -7.440  0.00  0.00    +0.144 HD
ENDBRANCH  26  28
ENDBRANCH  24  26
ENDBRANCH  10  24
TORSDOF 5
