REMARK  Name = ZINC45569089
REMARK  6 active torsions:
REMARK  status: ('A' for Active; 'I' for Inactive)
REMARK    1  A    between atoms: C_1  and  C_2
REMARK    2  A    between atoms: C_5  and  C_7
REMARK    3  A    between atoms: C_10  and  C_12
REMARK    4  A    between atoms: C_13  and  C_14
REMARK    5  A    between atoms: N_16  and  C_17
REMARK    6  A    between atoms: C_26  and  C_29
REMARK                            x       y       z     vdW  Elec       q    Type
REMARK                         _______ _______ _______ _____ _____    ______ ____
ROOT
ATOM      1  C   UNL     1      -1.761  -7.600   1.654  0.00  0.00    +0.241 C 
ATOM      2  O   UNL     1      -1.529  -7.933   0.506  0.00  0.00    -0.270 OA
ATOM      3  N   UNL     1      -2.317  -8.478   2.512  0.00  0.00    -0.282 N 
ATOM      4  H   UNL     1      -2.441  -8.235   3.443  0.00  0.00    +0.155 HD
ENDROOT
BRANCH   3   5
ATOM      5  C   UNL     1      -2.718  -9.741   2.059  0.00  0.00    +0.036 A 
ATOM      6  C   UNL     1      -1.979 -10.393   1.080  0.00  0.00    +0.027 A 
ATOM      7  C   UNL     1      -2.371 -11.640   0.630  0.00  0.00    +0.049 A 
ATOM      8  C   UNL     1      -3.501 -12.242   1.156  0.00  0.00    +0.143 A 
ATOM      9  C   UNL     1      -4.244 -11.589   2.138  0.00  0.00    +0.077 A 
ATOM     10  C   UNL     1      -3.849 -10.343   2.594  0.00  0.00    +0.050 A 
ATOM     11  N   UNL     1      -5.388 -12.212   2.659  0.00  0.00    -0.279 N 
ATOM     12  C   UNL     1      -5.571 -13.533   2.443  0.00  0.00    +0.258 C 
ATOM     13  O   UNL     1      -6.567 -14.085   2.858  0.00  0.00    -0.271 OA
ATOM     14  C   UNL     1      -4.531 -14.317   1.684  0.00  0.00    +0.256 C 
ATOM     15  O   UNL     1      -3.897 -13.469   0.722  0.00  0.00    -0.478 OA
ATOM     16  C   UNL     1      -3.482 -14.851   2.661  0.00  0.00    +0.062 C 
ATOM     17  H   UNL     1      -6.038 -11.701   3.167  0.00  0.00    +0.155 HD
ENDBRANCH   3   5
BRANCH   1  19
ATOM     18  C   UNL     1      -0.887  -5.406   1.224  0.00  0.00    +0.051 C 
ATOM     19  C   UNL     1      -1.446  -6.290   2.088  0.00  0.00    +0.071 C 
BRANCH  18  23
ATOM     20  C   UNL     1       0.137  -2.017   1.652  0.00  0.00    +0.109 A 
ATOM     21  C   UNL     1      -0.321  -2.260   2.900  0.00  0.00    +0.045 A 
ATOM     22  C   UNL     1      -0.779  -3.586   2.924  0.00  0.00    +0.049 A 
ATOM     23  C   UNL     1      -0.572  -4.095   1.658  0.00  0.00    +0.128 A 
ATOM     24  O   UNL     1      -0.020  -3.120   0.906  0.00  0.00    -0.460 OA
BRANCH  20  28
ATOM     25  C   UNL     1       0.004   1.525   0.029  0.00  0.00    +0.008 C 
ATOM     26  C   UNL     1       0.019  -0.005   0.016  0.00  0.00    -0.003 C 
ATOM     27  C   UNL     1       1.364  -0.696  -0.217  0.00  0.00    +0.015 C 
ATOM     28  C   UNL     1       0.724  -0.714   1.173  0.00  0.00    +0.058 C 
ENDBRANCH  20  28
ENDBRANCH  18  23
ENDBRANCH   1  19
TORSDOF 4
