REMARK  Name = ZINC66837017
REMARK  9 active torsions:
REMARK  status: ('A' for Active; 'I' for Inactive)
REMARK    1  A    between atoms: C_1  and  C_2
REMARK    2  A    between atoms: C_2  and  C_4
REMARK    3  A    between atoms: C_2  and  N_20
REMARK    4  A    between atoms: C_4  and  N_6
REMARK    5  A    between atoms: N_15  and  C_16
REMARK    6  A    between atoms: C_16  and  C_17
REMARK    7  A    between atoms: C_16  and  C_18
REMARK    8  A    between atoms: C_16  and  C_19
REMARK    9  A    between atoms: C_21  and  C_23
REMARK                            x       y       z     vdW  Elec       q    Type
REMARK                         _______ _______ _______ _____ _____    ______ ____
ROOT
ATOM      1  N   UNL     1       0.237  -0.169  -2.439  0.00  0.00    -0.145 NA
ATOM      2  C   UNL     1       0.914  -0.513  -3.532  0.00  0.00    +0.202 A 
ATOM      3  N   UNL     1       2.037  -1.278  -3.554  0.00  0.00    -0.326 N 
ATOM      4  C   UNL     1       2.445  -1.414  -4.877  0.00  0.00    +0.066 A 
ATOM      5  C   UNL     1       3.508  -2.075  -5.477  0.00  0.00    +0.028 A 
ATOM      6  C   UNL     1       3.659  -2.031  -6.848  0.00  0.00    +0.002 A 
ATOM      7  C   UNL     1       2.755  -1.329  -7.629  0.00  0.00    +0.002 A 
ATOM      8  C   UNL     1       1.695  -0.668  -7.042  0.00  0.00    +0.028 A 
ATOM      9  C   UNL     1       1.534  -0.707  -5.664  0.00  0.00    +0.068 A 
ATOM     10  N   UNL     1       0.588  -0.160  -4.803  0.00  0.00    -0.306 N 
ATOM     11  H   UNL     1       2.478  -1.662  -2.781  0.00  0.00    +0.169 HD
ENDROOT
BRANCH  10  12
ATOM     12  C   UNL     1      -0.561   0.659  -5.199  0.00  0.00    +0.040 C 
ATOM     13  C   UNL     1      -1.351   1.065  -3.953  0.00  0.00    +0.034 C 
ATOM     14  C   UNL     1      -0.068   1.914  -5.922  0.00  0.00    +0.034 C 
ATOM     15  C   UNL     1      -1.464  -0.147  -6.135  0.00  0.00    +0.034 C 
ENDBRANCH  10  12
BRANCH   1  16
ATOM     16  C   UNL     1       0.714  -0.478  -1.237  0.00  0.00    +0.259 C 
ATOM     17  O   UNL     1       1.717  -1.158  -1.138  0.00  0.00    -0.272 OA
BRANCH  16  19
ATOM     18  C   UNL     1      -0.018   1.542  -0.001  0.00  0.00    +0.038 C 
ATOM     19  C   UNL     1       0.011   0.013   0.002  0.00  0.00    +0.158 C 
BRANCH  19  20
ATOM     20  N   UNL     1       0.727  -0.460   1.189  0.00  0.00    -0.304 N 
ATOM     21  C   UNL     1       0.073  -0.599   2.360  0.00  0.00    +0.217 C 
ATOM     22  O   UNL     1      -1.108  -0.333   2.429  0.00  0.00    -0.275 OA
ATOM     23  H   UNL     1       1.672  -0.672   1.133  0.00  0.00    +0.149 HD
BRANCH  21  24
ATOM     24  C   UNL     1       0.810  -1.085   3.581  0.00  0.00    +0.079 C 
ATOM     25  C   UNL     1       1.375  -2.483   3.316  0.00  0.00    +0.041 C 
ATOM     26  C   UNL     1       2.053  -3.001   4.587  0.00  0.00    +0.160 C 
ATOM     27  O   UNL     1       1.108  -3.010   5.659  0.00  0.00    -0.380 OA
ATOM     28  C   UNL     1       0.581  -1.722   5.983  0.00  0.00    +0.160 C 
ATOM     29  C   UNL     1      -0.156  -1.153   4.768  0.00  0.00    +0.041 C 
ENDBRANCH  21  24
ENDBRANCH  19  20
ENDBRANCH  16  19
ENDBRANCH   1  16
TORSDOF 5
