REMARK  Name = ZINC14459429
REMARK  9 active torsions:
REMARK  status: ('A' for Active; 'I' for Inactive)
REMARK    1  A    between atoms: C_1  and  C_2
REMARK    2  A    between atoms: C_2  and  C_3
REMARK    3  A    between atoms: C_3  and  C_5
REMARK    4  A    between atoms: C_3  and  N_6
REMARK    5  A    between atoms: C_7  and  C_9
REMARK    6  A    between atoms: C_22  and  C_25
REMARK    7  A    between atoms: C_28  and  O_33
REMARK    8  A    between atoms: C_29  and  O_31
REMARK    9  A    between atoms: O_31  and  C_32
REMARK                            x       y       z     vdW  Elec       q    Type
REMARK                         _______ _______ _______ _____ _____    ______ ____
ROOT
ATOM      1  C   UNL     1      -1.066   2.346  -0.029  0.00  0.00    +0.037 A 
ATOM      2  C   UNL     1      -2.212   1.545  -0.034  0.00  0.00    +0.015 A 
ATOM      3  C   UNL     1      -3.453   2.137  -0.013  0.00  0.00    +0.024 A 
ATOM      4  C   UNL     1      -3.568   3.525   0.016  0.00  0.00    +0.031 A 
ATOM      5  C   UNL     1      -2.435   4.330   0.018  0.00  0.00    -0.019 A 
ATOM      6  C   UNL     1      -1.187   3.735   0.003  0.00  0.00    +0.019 A 
ATOM      7  C   UNL     1      -2.516   5.824   0.043  0.00  0.00    +0.049 C 
ATOM      8  C   UNL     1      -2.157   6.372   1.404  0.00  0.00    -0.023 C 
ATOM      9  C   UNL     1      -2.898   7.415   1.684  0.00  0.00    -0.030 C 
ATOM     10  C   UNL     1      -3.852   7.710   0.542  0.00  0.00    +0.033 C 
ATOM     11  C   UNL     1      -3.939   6.354  -0.216  0.00  0.00    +0.029 C 
ATOM     12  C   UNL     1      -4.963   5.472   0.504  0.00  0.00    +0.105 C 
ATOM     13  N   UNL     1      -4.836   4.101   0.046  0.00  0.00    -0.336 N 
ATOM     14  H   UNL     1      -5.617   3.600  -0.239  0.00  0.00    +0.147 HD
ENDROOT
BRANCH  12  15
ATOM     15  C   UNL     1      -4.704   5.506   1.988  0.00  0.00    -0.023 A 
ATOM     16  C   UNL     1      -3.842   4.587   2.559  0.00  0.00    +0.009 A 
ATOM     17  C   UNL     1      -3.597   4.618   3.919  0.00  0.00    +0.049 A 
ATOM     18  C   UNL     1      -4.223   5.564   4.715  0.00  0.00    +0.158 A 
ATOM     19  C   UNL     1      -5.095   6.484   4.141  0.00  0.00    +0.162 A 
ATOM     20  C   UNL     1      -5.332   6.452   2.776  0.00  0.00    +0.054 A 
BRANCH  19  21
ATOM     21  O   UNL     1      -5.712   7.415   4.918  0.00  0.00    -0.491 OA
ATOM     22  C   UNL     1      -6.592   8.328   4.261  0.00  0.00    +0.277 C 
ENDBRANCH  19  21
BRANCH  18  23
ATOM     23  O   UNL     1      -3.987   5.591   6.054  0.00  0.00    -0.503 OA
ATOM     24  H   UNL     1      -4.593   5.043   6.572  0.00  0.00    +0.292 HD
ENDBRANCH  18  23
ENDBRANCH  12  15
BRANCH   1  26
ATOM     25  N   UNL     1       0.387   0.379  -0.074  0.00  0.00    -0.309 N 
ATOM     26  C   UNL     1       0.270   1.722  -0.049  0.00  0.00    +0.244 C 
ATOM     27  O   UNL     1       1.267   2.418  -0.049  0.00  0.00    -0.270 OA
ATOM     28  H   UNL     1      -0.408  -0.177  -0.074  0.00  0.00    +0.149 HD
BRANCH  25  29
ATOM     29  C   UNL     1       1.714  -0.241  -0.101  0.00  0.00    +0.070 C 
ATOM     30  C   UNL     1       2.246  -0.367   1.328  0.00  0.00    +0.028 C 
BRANCH  29  32
ATOM     31  C   UNL     1       1.202  -1.495  -2.200  0.00  0.00    +0.005 C 
ATOM     32  C   UNL     1       1.615  -1.630  -0.733  0.00  0.00    +0.018 C 
ENDBRANCH  29  32
ENDBRANCH  25  29
ENDBRANCH   1  26
TORSDOF 6
