REMARK  Name = ZINC35350832
REMARK  10 active torsions:
REMARK  status: ('A' for Active; 'I' for Inactive)
REMARK    1  A    between atoms: C_1  and  C_2
REMARK    2  A    between atoms: C_5  and  C_8
REMARK    3  A    between atoms: C_10  and  C_29
REMARK    4  A    between atoms: C_11  and  C_27
REMARK    5  A    between atoms: C_12  and  S_14
REMARK    6  A    between atoms: S_14  and  C_15
REMARK    7  A    between atoms: C_15  and  C_16
REMARK    8  A    between atoms: C_16  and  O_26
REMARK    9  A    between atoms: C_21  and  S_23
REMARK   10  A    between atoms: S_23  and  C_25
REMARK                            x       y       z     vdW  Elec       q    Type
REMARK                         _______ _______ _______ _____ _____    ______ ____
ROOT
ATOM      1  C   UNL     1       0.061  -4.255  -0.021  0.00  0.00    +0.073 A 
ATOM      2  C   UNL     1       0.070  -4.945   1.187  0.00  0.00    +0.038 A 
ATOM      3  C   UNL     1       0.089  -6.339   1.176  0.00  0.00    +0.004 A 
ATOM      4  C   UNL     1       0.098  -6.996  -0.073  0.00  0.00    +0.091 A 
ATOM      5  C   UNL     1       0.087  -6.222  -1.247  0.00  0.00    +0.116 A 
ATOM      6  N   UNL     1       0.064  -4.901  -1.181  0.00  0.00    -0.239 NA
ENDROOT
BRANCH   1  11
ATOM      7  C   UNL     1      -0.018   1.503   0.010  0.00  0.00    +0.044 C 
ATOM      8  C   UNL     1       0.002  -0.004   0.002  0.00  0.00    -0.050 A 
ATOM      9  C   UNL     1       0.006  -0.686  -1.201  0.00  0.00    +0.004 A 
ATOM     10  C   UNL     1       0.025  -2.066  -1.215  0.00  0.00    +0.010 A 
ATOM     11  C   UNL     1       0.041  -2.772  -0.013  0.00  0.00    +0.000 A 
ATOM     12  C   UNL     1       0.037  -2.079   1.196  0.00  0.00    +0.010 A 
ATOM     13  C   UNL     1       0.023  -0.699   1.198  0.00  0.00    +0.004 A 
ENDBRANCH   1  11
BRANCH   3  14
ATOM     14  C   UNL     1       0.101  -7.109   2.442  0.00  0.00    -0.017 A 
ATOM     15  C   UNL     1      -0.805  -8.152   2.634  0.00  0.00    +0.008 A 
ATOM     16  C   UNL     1      -0.789  -8.866   3.815  0.00  0.00    +0.001 A 
ATOM     17  C   UNL     1       0.122  -8.550   4.806  0.00  0.00    +0.000 A 
ATOM     18  C   UNL     1       1.023  -7.517   4.620  0.00  0.00    +0.001 A 
ATOM     19  C   UNL     1       1.021  -6.799   3.442  0.00  0.00    +0.008 A 
ENDBRANCH   3  14
BRANCH   4  20
ATOM     20  C   UNL     1       0.118  -8.426  -0.144  0.00  0.00    +0.102 C 
ATOM     21  N   UNL     1       0.133  -9.561  -0.200  0.00  0.00    -0.191 NA
ENDBRANCH   4  20
BRANCH   5  22
ATOM     22  S   UNL     1       0.097  -7.018  -2.819  0.00  0.00    -0.102 S 
BRANCH  22  23
ATOM     23  C   UNL     1       0.078  -5.647  -4.006  0.00  0.00    +0.111 C 
BRANCH  23  24
ATOM     24  C   UNL     1       0.085  -6.205  -5.430  0.00  0.00    +0.089 C 
ATOM     25  C   UNL     1      -1.083  -7.177  -5.603  0.00  0.00    +0.037 C 
ATOM     26  C   UNL     1      -1.076  -7.736  -7.027  0.00  0.00    +0.003 C 
ATOM     27  C   UNL     1      -1.218  -6.586  -8.026  0.00  0.00    +0.001 C 
ATOM     28  C   UNL     1      -0.049  -5.613  -7.854  0.00  0.00    +0.019 C 
ATOM     29  C   UNL     1      -0.056  -5.055  -6.429  0.00  0.00    +0.111 C 
BRANCH  29  30
ATOM     30  S   UNL     1      -1.618  -4.183  -6.130  0.00  0.00    +0.025 S 
ATOM     31  O   UNL     1      -1.551  -3.507  -4.881  0.00  0.00    -0.257 OA
ATOM     32  C   UNL     1      -1.706  -2.966  -7.472  0.00  0.00    +0.122 C 
ENDBRANCH  29  30
BRANCH  24  33
ATOM     33  O   UNL     1       1.316  -6.892  -5.666  0.00  0.00    -0.387 OA
ATOM     34  H   UNL     1       1.472  -7.636  -5.068  0.00  0.00    +0.210 HD
ENDBRANCH  24  33
ENDBRANCH  23  24
ENDBRANCH  22  23
ENDBRANCH   5  22
TORSDOF 8
