REMARK  Name = ZINC00039103
REMARK  6 active torsions:
REMARK  status: ('A' for Active; 'I' for Inactive)
REMARK    1  A    between atoms: C_3  and  C_9
REMARK    2  A    between atoms: C_4  and  O_8
REMARK    3  A    between atoms: C_6  and  O_7
REMARK    4  A    between atoms: C_9  and  C_11
REMARK    5  A    between atoms: C_14  and  O_18
REMARK    6  A    between atoms: C_16  and  O_17
REMARK                            x       y       z     vdW  Elec       q    Type
REMARK                         _______ _______ _______ _____ _____    ______ ____
ROOT
ATOM      1  C   UNL     1       2.476   1.075  -0.016  0.00  0.00    +0.200 C 
ATOM      2  O   UNL     1       3.517   1.697  -0.121  0.00  0.00    -0.286 OA
ENDROOT
BRANCH   1   5
ATOM      3  C   UNL     1      -0.542   2.983  -1.147  0.00  0.00    +0.046 A 
ATOM      4  C   UNL     1       0.653   2.312  -1.174  0.00  0.00    +0.019 A 
ATOM      5  C   UNL     1       1.190   1.792   0.009  0.00  0.00    +0.064 A 
ATOM      6  C   UNL     1       0.498   1.957   1.219  0.00  0.00    +0.131 A 
ATOM      7  C   UNL     1      -0.711   2.632   1.232  0.00  0.00    +0.091 A 
ATOM      8  C   UNL     1      -1.231   3.143   0.051  0.00  0.00    +0.120 A 
BRANCH   8   9
ATOM      9  O   UNL     1      -2.416   3.805   0.066  0.00  0.00    -0.507 OA
ATOM     10  H   UNL     1      -2.332   4.757   0.211  0.00  0.00    +0.292 HD
ENDBRANCH   8   9
BRANCH   6  11
ATOM     11  O   UNL     1       1.010   1.456   2.371  0.00  0.00    -0.506 OA
ATOM     12  H   UNL     1       1.586   2.071   2.846  0.00  0.00    +0.292 HD
ENDBRANCH   6  11
ENDBRANCH   1   5
BRANCH   1  13
ATOM     13  C   UNL     1       2.503  -0.394   0.087  0.00  0.00    +0.064 A 
ATOM     14  C   UNL     1       1.307  -1.119   0.095  0.00  0.00    +0.019 A 
ATOM     15  C   UNL     1       1.335  -2.486   0.191  0.00  0.00    +0.046 A 
ATOM     16  C   UNL     1       2.550  -3.159   0.280  0.00  0.00    +0.120 A 
ATOM     17  C   UNL     1       3.743  -2.453   0.273  0.00  0.00    +0.091 A 
ATOM     18  C   UNL     1       3.729  -1.072   0.172  0.00  0.00    +0.131 A 
BRANCH  18  19
ATOM     19  O   UNL     1       4.895  -0.378   0.159  0.00  0.00    -0.506 OA
ATOM     20  H   UNL     1       5.206  -0.115   1.036  0.00  0.00    +0.292 HD
ENDBRANCH  18  19
BRANCH  16  21
ATOM     21  O   UNL     1       2.566  -4.513   0.374  0.00  0.00    -0.507 OA
ATOM     22  H   UNL     1       2.602  -4.966  -0.479  0.00  0.00    +0.292 HD
ENDBRANCH  16  21
ENDBRANCH   1  13
TORSDOF 6
