REMARK  Name = ZINC39711595
REMARK  9 active torsions:
REMARK  status: ('A' for Active; 'I' for Inactive)
REMARK    1  A    between atoms: C_1  and  C_2
REMARK    2  A    between atoms: C_2  and  N_3
REMARK    3  A    between atoms: N_6  and  C_9
REMARK    4  A    between atoms: C_9  and  C_11
REMARK    5  A    between atoms: C_9  and  C_26
REMARK    6  A    between atoms: N_31  and  C_32
REMARK    7  A    between atoms: C_32  and  C_33
REMARK    8  A    between atoms: C_32  and  C_34
REMARK    9  A    between atoms: C_32  and  C_35
REMARK                            x       y       z     vdW  Elec       q    Type
REMARK                         _______ _______ _______ _____ _____    ______ ____
ROOT
ATOM      1  C   UNL     1       1.608  -2.644   4.685  0.00  0.00    +0.115 C 
ENDROOT
BRANCH   1   2
ATOM      2  C   UNL     1       3.112  -2.392   4.811  0.00  0.00    +0.119 C 
ATOM      3  C   UNL     1       3.786  -2.980   3.587  0.00  0.00    -0.003 C 
ATOM      4  C   UNL     1       4.525  -2.139   2.815  0.00  0.00    -0.003 A 
ATOM      5  C   UNL     1       5.209  -2.629   1.617  0.00  0.00    +0.059 A 
ATOM      6  C   UNL     1       5.940  -1.763   0.868  0.00  0.00    +0.167 A 
ATOM      7  C   UNL     1       6.051  -0.402   1.225  0.00  0.00    +0.168 A 
ATOM      8  C   UNL     1       5.426   0.109   2.343  0.00  0.00    +0.073 A 
ATOM      9  C   UNL     1       4.653  -0.713   3.172  0.00  0.00    +0.044 A 
ATOM     10  N   UNL     1       4.056  -0.199   4.250  0.00  0.00    -0.284 N 
ATOM     11  C   UNL     1       3.314  -0.916   5.074  0.00  0.00    +0.226 C 
ATOM     12  O   UNL     1       2.796  -0.392   6.042  0.00  0.00    -0.275 OA
ATOM     13  O   UNL     1       6.838   0.218   0.299  0.00  0.00    -0.453 OA
ATOM     14  C   UNL     1       7.544  -0.837  -0.379  0.00  0.00    +0.466 C 
ATOM     15  O   UNL     1       6.662  -1.969  -0.275  0.00  0.00    -0.453 OA
ATOM     16  H   UNL     1       4.174   0.746   4.437  0.00  0.00    +0.155 HD
ENDBRANCH   1   2
BRANCH   1  20
ATOM     17  N   UNL     1       1.033   0.632   2.076  0.00  0.00    +0.381 N 
ATOM     18  C   UNL     1       0.137   0.505   3.233  0.00  0.00    -0.063 C 
ATOM     19  C   UNL     1       0.783  -0.403   4.282  0.00  0.00    +0.066 C 
ATOM     20  N   UNL     1       1.039  -1.724   3.691  0.00  0.00    -0.299 NA
ATOM     21  C   UNL     1       1.915  -1.609   2.517  0.00  0.00    +0.066 C 
ATOM     22  C   UNL     1       1.260  -0.692   1.482  0.00  0.00    -0.063 C 
ATOM     23  H   UNL     1       1.914   1.022   2.376  0.00  0.00    -0.082 HD
BRANCH  17  25
ATOM     24  C   UNL     1       0.298   2.930   1.655  0.00  0.00    -0.017 C 
ATOM     25  C   UNL     1       0.420   1.518   1.078  0.00  0.00    -0.082 C 
ENDBRANCH  17  25
ENDBRANCH   1  20
BRANCH   1  26
ATOM     26  C   UNL     1       1.369  -4.088   4.240  0.00  0.00    +0.236 C 
ATOM     27  N   UNL     1       1.772  -4.266   2.838  0.00  0.00    -0.148 NA
ATOM     28  N   UNL     1       0.786  -4.604   2.179  0.00  0.00    -0.069 NA
ATOM     29  N   UNL     1      -0.371  -4.709   2.950  0.00  0.00    -0.179 N 
ATOM     30  N   UNL     1      -0.076  -4.400   4.255  0.00  0.00    -0.179 NA
ATOM     31  H   UNL     1      -1.247  -4.961   2.618  0.00  0.00    +0.191 HD
BRANCH  30  32
ATOM     32  C   UNL     1      -0.360  -5.534   5.145  0.00  0.00    +0.035 C 
ATOM     33  C   UNL     1       0.055  -5.177   6.574  0.00  0.00    +0.029 C 
ATOM     34  C   UNL     1      -1.858  -5.845   5.111  0.00  0.00    +0.029 C 
ATOM     35  C   UNL     1       0.426  -6.759   4.676  0.00  0.00    +0.029 C 
ENDBRANCH  30  32
ENDBRANCH   1  26
TORSDOF 5
