REMARK  Name = ZINC12507324
REMARK  3 active torsions:
REMARK  status: ('A' for Active; 'I' for Inactive)
REMARK    1  A    between atoms: C_3  and  O_28
REMARK    2  A    between atoms: C_4  and  O_27
REMARK    3  A    between atoms: C_6  and  C_7
REMARK                            x       y       z     vdW  Elec       q    Type
REMARK                         _______ _______ _______ _____ _____    ______ ____
ROOT
ATOM      1  C   UNL     1      -1.294  -0.774   0.010  0.00  0.00    +0.209 C 
ATOM      2  N   UNL     1      -2.288  -0.096  -0.842  0.00  0.00    -0.294 N 
ATOM      3  C   UNL     1      -3.009   0.957  -0.344  0.00  0.00    +0.160 C 
ATOM      4  N   UNL     1      -3.301   1.047   0.942  0.00  0.00    -0.302 N 
ATOM      5  C   UNL     1      -2.816   0.099   1.780  0.00  0.00    +0.213 A 
ATOM      6  N   UNL     1      -1.851  -0.804   1.367  0.00  0.00    -0.286 N 
ATOM      7  C   UNL     1      -1.574  -1.638   2.425  0.00  0.00    +0.076 A 
ATOM      8  C   UNL     1      -0.726  -2.723   2.608  0.00  0.00    +0.077 A 
ATOM      9  C   UNL     1      -0.680  -3.361   3.832  0.00  0.00    +0.164 A 
ATOM     10  C   UNL     1      -1.480  -2.927   4.885  0.00  0.00    +0.164 A 
ATOM     11  C   UNL     1      -2.329  -1.852   4.720  0.00  0.00    +0.079 A 
ATOM     12  C   UNL     1      -2.385  -1.196   3.487  0.00  0.00    +0.095 A 
ATOM     13  N   UNL     1      -3.110  -0.129   3.033  0.00  0.00    -0.212 NA
ATOM     14  O   UNL     1      -1.419  -3.571   6.088  0.00  0.00    -0.488 OA
ATOM     15  C   UNL     1      -1.932  -4.904   6.110  0.00  0.00    +0.232 C 
ATOM     16  C   UNL     1      -0.875  -5.897   5.653  0.00  0.00    +0.082 C 
ATOM     17  C   UNL     1      -0.480  -5.694   4.198  0.00  0.00    +0.232 C 
ATOM     18  O   UNL     1       0.154  -4.427   4.017  0.00  0.00    -0.488 OA
ATOM     19  N   UNL     1      -3.435   1.939  -1.198  0.00  0.00    -0.332 N 
ATOM     20  H   UNL     1      -2.433  -0.397  -1.753  0.00  0.00    +0.151 HD
ATOM     21  H   UNL     1      -3.226   1.884  -2.143  0.00  0.00    +0.145 HD
ATOM     22  H   UNL     1      -3.946   2.690  -0.857  0.00  0.00    +0.145 HD
ATOM     23  H   UNL     1      -3.849   1.774   1.277  0.00  0.00    +0.171 HD
ENDROOT
BRANCH   1  29
ATOM     24  C   UNL     1      -0.017   1.378   0.010  0.00  0.00    +0.011 A 
ATOM     25  C   UNL     1       1.170   2.089   0.002  0.00  0.00    +0.049 A 
ATOM     26  C   UNL     1       2.380   1.415  -0.013  0.00  0.00    +0.158 A 
ATOM     27  C   UNL     1       2.399   0.024  -0.021  0.00  0.00    +0.159 A 
ATOM     28  C   UNL     1       1.207  -0.682  -0.013  0.00  0.00    +0.056 A 
ATOM     29  C   UNL     1       0.002  -0.004   0.002  0.00  0.00    -0.003 A 
BRANCH  27  30
ATOM     30  O   UNL     1       3.585  -0.642  -0.036  0.00  0.00    -0.503 OA
ATOM     31  H   UNL     1       3.937  -0.839   0.843  0.00  0.00    +0.292 HD
ENDBRANCH  27  30
BRANCH  26  32
ATOM     32  O   UNL     1       3.548   2.113  -0.021  0.00  0.00    -0.503 OA
ATOM     33  H   UNL     1       3.894   2.310   0.860  0.00  0.00    +0.292 HD
ENDBRANCH  26  32
ENDBRANCH   1  29
TORSDOF 3
