REMARK  Name = ZINC58409189
REMARK  9 active torsions:
REMARK  status: ('A' for Active; 'I' for Inactive)
REMARK    1  A    between atoms: C_1  and  C_2
REMARK    2  A    between atoms: C_2  and  N_3
REMARK    3  A    between atoms: C_4  and  C_6
REMARK    4  A    between atoms: C_6  and  N_12
REMARK    5  A    between atoms: C_13  and  C_15
REMARK    6  A    between atoms: C_18  and  N_21
REMARK    7  A    between atoms: N_24  and  C_25
REMARK    8  A    between atoms: C_25  and  C_26
REMARK    9  A    between atoms: C_25  and  C_27
REMARK                            x       y       z     vdW  Elec       q    Type
REMARK                         _______ _______ _______ _____ _____    ______ ____
ROOT
ATOM      1  N   UNL     1       1.040  -1.399  -3.701  0.00  0.00    -0.297 N 
ATOM      2  C   UNL     1       1.759  -0.264  -3.806  0.00  0.00    +0.245 C 
ATOM      3  O   UNL     1       2.514   0.062  -2.910  0.00  0.00    -0.270 OA
ATOM      4  H   UNL     1       0.385  -1.622  -4.381  0.00  0.00    +0.150 HD
ENDROOT
BRANCH   1   5
ATOM      5  C   UNL     1       1.247  -2.295  -2.561  0.00  0.00    +0.111 C 
ATOM      6  C   UNL     1       2.692  -2.800  -2.565  0.00  0.00    +0.035 C 
ATOM      7  C   UNL     1       2.963  -3.558  -3.866  0.00  0.00    +0.003 C 
ATOM      8  C   UNL     1       2.007  -4.748  -3.972  0.00  0.00    +0.000 C 
ATOM      9  C   UNL     1       0.563  -4.243  -3.968  0.00  0.00    +0.003 C 
ATOM     10  C   UNL     1       0.291  -3.485  -2.667  0.00  0.00    +0.035 C 
BRANCH   5  12
ATOM     11  N   UNL     1       0.008  -0.615  -1.235  0.00  0.00    -0.314 N 
ATOM     12  C   UNL     1       0.979  -1.548  -1.280  0.00  0.00    +0.237 C 
ATOM     13  O   UNL     1       1.638  -1.787  -0.290  0.00  0.00    -0.273 OA
ATOM     14  H   UNL     1      -0.469  -0.372  -2.043  0.00  0.00    +0.149 HD
BRANCH  11  16
ATOM     15  C   UNL     1      -1.453   1.044  -0.188  0.00  0.00    +0.024 C 
ATOM     16  C   UNL     1      -0.326   0.033   0.036  0.00  0.00    +0.101 C 
ENDBRANCH  11  16
ENDBRANCH   5  12
ENDBRANCH   1   5
BRANCH   2  17
ATOM     17  C   UNL     1       1.629   0.584  -5.007  0.00  0.00    +0.037 A 
ATOM     18  C   UNL     1       0.757   0.215  -6.034  0.00  0.00    +0.015 A 
ATOM     19  C   UNL     1       0.639   1.008  -7.153  0.00  0.00    +0.024 A 
ATOM     20  C   UNL     1       1.385   2.177  -7.261  0.00  0.00    +0.035 A 
ATOM     21  C   UNL     1       2.255   2.548  -6.240  0.00  0.00    +0.024 A 
ATOM     22  C   UNL     1       2.374   1.762  -5.116  0.00  0.00    +0.015 A 
BRANCH  20  23
ATOM     23  N   UNL     1       1.263   2.978  -8.396  0.00  0.00    -0.269 N 
ATOM     24  C   UNL     1       1.080   2.411  -9.604  0.00  0.00    +0.304 C 
ATOM     25  O   UNL     1       0.936   1.208  -9.696  0.00  0.00    -0.253 OA
ATOM     26  N   UNL     1       1.056   3.179 -10.712  0.00  0.00    -0.297 N 
ATOM     27  H   UNL     1       1.309   3.944  -8.315  0.00  0.00    +0.156 HD
ATOM     28  H   UNL     1       1.170   4.139 -10.639  0.00  0.00    +0.151 HD
BRANCH  26  29
ATOM     29  C   UNL     1       0.856   2.562 -12.026  0.00  0.00    +0.068 C 
ATOM     30  C   UNL     1      -0.641   2.394 -12.289  0.00  0.00    +0.027 C 
ATOM     31  C   UNL     1       1.466   3.458 -13.107  0.00  0.00    +0.027 C 
ENDBRANCH  26  29
ENDBRANCH  20  23
ENDBRANCH   2  17
TORSDOF 6
