REMARK  Name = ZINC28935154
REMARK  10 active torsions:
REMARK  status: ('A' for Active; 'I' for Inactive)
REMARK    1  A    between atoms: C_1  and  C_2
REMARK    2  A    between atoms: C_7  and  C_8
REMARK    3  A    between atoms: C_8  and  C_10
REMARK    4  A    between atoms: C_8  and  N_11
REMARK    5  A    between atoms: C_12  and  C_14
REMARK    6  A    between atoms: C_16  and  S_21
REMARK    7  A    between atoms: C_19  and  C_20
REMARK    8  A    between atoms: S_21  and  N_24
REMARK    9  A    between atoms: N_24  and  C_25
REMARK   10  A    between atoms: C_30  and  C_31
REMARK                            x       y       z     vdW  Elec       q    Type
REMARK                         _______ _______ _______ _____ _____    ______ ____
ROOT
ATOM      1  C   UNL     1       2.232   3.338   3.542  0.00  0.00    +0.041 A 
ATOM      2  C   UNL     1       2.365   2.563   2.388  0.00  0.00    +0.042 A 
ATOM      3  C   UNL     1       1.736   2.951   1.224  0.00  0.00    +0.109 A 
ATOM      4  C   UNL     1       0.977   4.108   1.197  0.00  0.00    +0.029 A 
ATOM      5  C   UNL     1       0.836   4.877   2.338  0.00  0.00    +0.006 A 
ATOM      6  C   UNL     1       1.460   4.500   3.509  0.00  0.00    -0.038 A 
ATOM      7  C   UNL     1       1.310   5.342   4.750  0.00  0.00    +0.044 C 
ENDROOT
BRANCH   1   9
ATOM      8  N   UNL     1       3.542   1.743   4.859  0.00  0.00    -0.305 N 
ATOM      9  C   UNL     1       2.904   2.928   4.793  0.00  0.00    +0.245 C 
ATOM     10  O   UNL     1       2.880   3.660   5.764  0.00  0.00    -0.270 OA
ATOM     11  H   UNL     1       3.564   1.081   3.981  0.00  0.00    +0.150 HD
BRANCH   8  12
ATOM     12  C   UNL     1       4.208   1.337   6.099  0.00  0.00    +0.101 C 
ATOM     13  C   UNL     1       5.617   1.932   6.139  0.00  0.00    +0.033 C 
BRANCH  12  20
ATOM     14  C   UNL     1       4.415  -0.008   8.648  0.00  0.00    +0.044 C 
ATOM     15  C   UNL     1       4.395  -0.810   7.372  0.00  0.00    -0.046 A 
ATOM     16  C   UNL     1       4.472  -2.190   7.421  0.00  0.00    +0.004 A 
ATOM     17  C   UNL     1       4.459  -2.925   6.251  0.00  0.00    +0.000 A 
ATOM     18  C   UNL     1       4.365  -2.281   5.031  0.00  0.00    +0.000 A 
ATOM     19  C   UNL     1       4.284  -0.902   4.982  0.00  0.00    +0.006 A 
ATOM     20  C   UNL     1       4.296  -0.167   6.152  0.00  0.00    -0.025 A 
ENDBRANCH  12  20
ENDBRANCH   8  12
ENDBRANCH   1   9
BRANCH   3  21
ATOM     21  S   UNL     1       1.903   1.974  -0.233  0.00  0.00    +0.072 S 
ATOM     22  O   UNL     1       3.111   1.240  -0.093  0.00  0.00    -0.150 OA
ATOM     23  O   UNL     1       1.662   2.842  -1.333  0.00  0.00    -0.150 OA
BRANCH  21  24
ATOM     24  N   UNL     1       0.671   0.867  -0.225  0.00  0.00    -0.216 N 
ATOM     25  H   UNL     1       0.899  -0.209  -0.204  0.00  0.00    +0.174 HD
BRANCH  24  26
ATOM     26  C   UNL     1      -0.656   1.300  -0.244  0.00  0.00    +0.051 A 
ATOM     27  C   UNL     1      -1.009   2.433  -0.966  0.00  0.00    +0.025 A 
ATOM     28  C   UNL     1      -2.324   2.855  -0.986  0.00  0.00    +0.002 A 
ATOM     29  C   UNL     1      -3.287   2.157  -0.281  0.00  0.00    +0.000 A 
ATOM     30  C   UNL     1      -2.939   1.031   0.442  0.00  0.00    +0.005 A 
ATOM     31  C   UNL     1      -1.626   0.601   0.463  0.00  0.00    -0.028 A 
ATOM     32  C   UNL     1      -1.247  -0.626   1.252  0.00  0.00    +0.046 C 
ENDBRANCH  24  26
ENDBRANCH  21  24
ENDBRANCH   3  21
TORSDOF 6
