REMARK  Name = ZINC35006938
REMARK  16 active torsions:
REMARK  status: ('A' for Active; 'I' for Inactive)
REMARK    1  A    between atoms: C_1  and  C_2
REMARK    2  A    between atoms: C_2  and  N_3
REMARK    3  A    between atoms: N_3  and  C_4
REMARK    4  A    between atoms: N_3  and  C_6
REMARK    5  A    between atoms: C_4  and  C_5
REMARK    6  A    between atoms: C_6  and  C_8
REMARK    7  A    between atoms: C_6  and  C_21
REMARK    8  A    between atoms: C_8  and  C_9
REMARK    9  A    between atoms: C_9  and  C_10
REMARK   10  A    between atoms: C_10  and  C_11
REMARK   11  A    between atoms: C_11  and  N_12
REMARK   12  A    between atoms: C_13  and  C_15
REMARK   13  A    between atoms: N_23  and  N_24
REMARK   14  A    between atoms: C_25  and  C_26
REMARK   15  A    between atoms: C_29  and  C_31
REMARK   16  A    between atoms: C_34  and  N_37
REMARK                            x       y       z     vdW  Elec       q    Type
REMARK                         _______ _______ _______ _____ _____    ______ ____
ROOT
ATOM      1  C   UNL     1       2.173  -0.167   1.338  0.00  0.00    +0.021 C 
ENDROOT
BRANCH   1   2
ATOM      2  C   UNL     1       2.360   1.328   1.321  0.00  0.00    +0.219 C 
ATOM      3  O   UNL     1       1.448   2.055   1.635  0.00  0.00    -0.276 OA
ATOM      4  N   UNL     1       3.545   1.854   0.954  0.00  0.00    -0.208 N 
ATOM      5  H   UNL     1       4.278   1.271   0.701  0.00  0.00    +0.177 HD
BRANCH   4   6
ATOM      6  N   UNL     1       3.706   3.134   0.939  0.00  0.00    -0.185 NA
ATOM      7  C   UNL     1       4.873   3.653   0.578  0.00  0.00    +0.176 C 
BRANCH   7   8
ATOM      8  C   UNL     1       5.046   5.030   0.561  0.00  0.00    +0.148 A 
ATOM      9  C   UNL     1       6.271   5.751   0.181  0.00  0.00    +0.051 A 
ATOM     10  C   UNL     1       5.991   7.073   0.311  0.00  0.00    +0.050 A 
ATOM     11  C   UNL     1       4.649   7.184   0.753  0.00  0.00    +0.136 A 
ATOM     12  O   UNL     1       4.118   5.957   0.886  0.00  0.00    -0.454 OA
BRANCH  11  13
ATOM     13  C   UNL     1       3.971   8.402   1.011  0.00  0.00    +0.017 A 
ATOM     14  C   UNL     1       4.629   9.633   0.826  0.00  0.00    +0.014 A 
ATOM     15  C   UNL     1       3.966  10.801   1.077  0.00  0.00    +0.033 A 
ATOM     16  C   UNL     1       2.649  10.776   1.512  0.00  0.00    +0.126 A 
ATOM     17  C   UNL     1       1.991   9.569   1.698  0.00  0.00    +0.033 A 
ATOM     18  C   UNL     1       2.633   8.390   1.448  0.00  0.00    +0.014 A 
BRANCH  16  19
ATOM     19  N   UNL     1       1.941  12.048   1.782  0.00  0.00    +0.056 N 
ATOM     20  O   UNL     1       2.561  13.197   1.607  0.00  0.00    -0.126 OA
ATOM     21  O   UNL     1       0.691  12.031   2.196  0.00  0.00    -0.126 OA
ENDBRANCH  16  19
ENDBRANCH  11  13
ENDBRANCH   7   8
ENDBRANCH   4   6
ENDBRANCH   1   2
BRANCH   1  22
ATOM     22  N   UNL     1       1.168  -0.547   0.336  0.00  0.00    +0.387 N 
ATOM     23  H   UNL     1       0.781  -1.448   0.573  0.00  0.00    -0.081 HD
BRANCH  22  25
ATOM     24  C   UNL     1      -0.560   0.532   1.695  0.00  0.00    -0.017 C 
ATOM     25  C   UNL     1       0.095   0.456   0.315  0.00  0.00    -0.081 C 
ENDBRANCH  22  25
BRANCH  22  26
ATOM     26  C   UNL     1       1.800  -0.617  -0.988  0.00  0.00    -0.081 C 
ATOM     27  C   UNL     1       2.810  -1.765  -1.011  0.00  0.00    -0.017 C 
ENDBRANCH  22  26
ENDBRANCH   1  22
BRANCH   1  28
ATOM     28  C   UNL     1       1.700  -0.606   2.726  0.00  0.00    -0.006 C 
BRANCH  28  29
ATOM     29  C   UNL     1       1.687  -2.134   2.801  0.00  0.00    +0.000 C 
BRANCH  29  30
ATOM     30  C   UNL     1       1.143  -2.573   4.162  0.00  0.00    +0.019 C 
BRANCH  30  31
ATOM     31  C   UNL     1       1.130  -4.101   4.237  0.00  0.00    +0.104 C 
BRANCH  31  32
ATOM     32  N   UNL     1       0.609  -4.521   5.540  0.00  0.00    -0.311 N 
ATOM     33  C   UNL     1       0.505  -5.833   5.833  0.00  0.00    +0.244 C 
ATOM     34  O   UNL     1       0.844  -6.667   5.017  0.00  0.00    -0.270 OA
ATOM     35  H   UNL     1       0.338  -3.856   6.192  0.00  0.00    +0.149 HD
BRANCH  33  36
ATOM     36  C   UNL     1      -0.021  -6.257   7.149  0.00  0.00    +0.037 A 
ATOM     37  C   UNL     1      -0.416  -5.302   8.086  0.00  0.00    +0.013 A 
ATOM     38  C   UNL     1      -0.906  -5.705   9.312  0.00  0.00    +0.001 A 
ATOM     39  C   UNL     1      -1.006  -7.051   9.611  0.00  0.00    +0.000 A 
ATOM     40  C   UNL     1      -0.615  -8.003   8.686  0.00  0.00    +0.001 A 
ATOM     41  C   UNL     1      -0.129  -7.614   7.455  0.00  0.00    +0.013 A 
ENDBRANCH  33  36
ENDBRANCH  31  32
ENDBRANCH  30  31
ENDBRANCH  29  30
ENDBRANCH  28  29
ENDBRANCH   1  28
TORSDOF 14
