REMARK  Name = ZINC09309636
REMARK  6 active torsions:
REMARK  status: ('A' for Active; 'I' for Inactive)
REMARK    1  A    between atoms: C_1  and  C_2
REMARK    2  A    between atoms: C_7  and  N_8
REMARK    3  A    between atoms: C_9  and  C_32
REMARK    4  A    between atoms: C_11  and  C_14
REMARK    5  A    between atoms: C_12  and  C_13
REMARK    6  A    between atoms: C_24  and  C_26
REMARK                            x       y       z     vdW  Elec       q    Type
REMARK                         _______ _______ _______ _____ _____    ______ ____
ROOT
ATOM      1  C   UNL     1       1.610   1.560   5.309  0.00  0.00    +0.026 C 
ATOM      2  C   UNL     1       1.030   2.299   6.320  0.00  0.00    +0.081 C 
ATOM      3  C   UNL     1      -0.449   2.396   6.471  0.00  0.00    +0.152 C 
ATOM      4  N   UNL     1      -1.267   1.424   6.165  0.00  0.00    -0.283 NA
ATOM      5  N   UNL     1      -0.879   3.641   6.977  0.00  0.00    -0.152 N 
ATOM      6  C   UNL     1       0.028   4.380   7.707  0.00  0.00    +0.181 C 
ATOM      7  N   UNL     1       1.292   4.110   7.916  0.00  0.00    -0.152 NA
ATOM      8  C   UNL     1       1.845   3.033   7.317  0.00  0.00    +0.273 C 
ATOM      9  O   UNL     1       2.981   2.677   7.584  0.00  0.00    -0.268 OA
ATOM     10  S   UNL     1      -0.957   5.754   8.242  0.00  0.00    -0.038 S 
ATOM     11  C   UNL     1      -2.462   5.312   7.384  0.00  0.00    +0.103 C 
ATOM     12  N   UNL     1      -2.136   4.186   6.817  0.00  0.00    -0.169 NA
ATOM     13  H   UNL     1      -2.225   1.551   6.250  0.00  0.00    +0.188 HD
ENDROOT
BRANCH   1  17
ATOM     14  N   UNL     1       0.102  -0.136   2.527  0.00  0.00    -0.317 N 
ATOM     15  C   UNL     1      -0.899   0.750   2.814  0.00  0.00    +0.022 A 
ATOM     16  C   UNL     1      -0.530   1.510   3.860  0.00  0.00    +0.031 A 
ATOM     17  C   UNL     1       0.811   1.054   4.252  0.00  0.00    -0.003 A 
ATOM     18  C   UNL     1       1.132   0.026   3.381  0.00  0.00    +0.028 A 
ATOM     19  C   UNL     1       2.412  -0.770   3.386  0.00  0.00    +0.064 C 
ATOM     20  C   UNL     1      -2.207   0.860   2.075  0.00  0.00    +0.064 C 
BRANCH  14  27
ATOM     21  C   UNL     1       1.098   0.615  -0.030  0.00  0.00    +0.046 C 
ATOM     22  C   UNL     1       0.536  -0.758   0.233  0.00  0.00    -0.027 A 
ATOM     23  C   UNL     1       0.499  -1.695  -0.781  0.00  0.00    +0.007 A 
ATOM     24  C   UNL     1      -0.017  -2.955  -0.542  0.00  0.00    +0.020 A 
ATOM     25  C   UNL     1      -0.498  -3.281   0.715  0.00  0.00    +0.043 A 
ATOM     26  C   UNL     1      -0.464  -2.348   1.733  0.00  0.00    +0.046 A 
ATOM     27  C   UNL     1       0.060  -1.084   1.496  0.00  0.00    +0.051 A 
ATOM     28 CL   UNL     1      -1.146  -4.865   1.011  0.00  0.00    -0.083 Cl
ENDBRANCH  14  27
ENDBRANCH   1  17
BRANCH  11  29
ATOM     29  C   UNL     1      -3.773   6.052   7.332  0.00  0.00    +0.046 C 
ATOM     30  C   UNL     1      -4.905   5.065   7.038  0.00  0.00    +0.010 C 
ATOM     31  C   UNL     1      -6.236   5.817   6.985  0.00  0.00    +0.001 C 
ATOM     32  C   UNL     1      -6.182   6.873   5.880  0.00  0.00    +0.000 C 
ATOM     33  C   UNL     1      -5.050   7.860   6.173  0.00  0.00    +0.001 C 
ATOM     34  C   UNL     1      -3.718   7.109   6.226  0.00  0.00    +0.010 C 
ENDBRANCH  11  29
TORSDOF 3
