REMARK  Name = ZINC09579205
REMARK  11 active torsions:
REMARK  status: ('A' for Active; 'I' for Inactive)
REMARK    1  A    between atoms: C_1  and  C_2
REMARK    2  A    between atoms: C_4  and  C_15
REMARK    3  A    between atoms: C_5  and  C_14
REMARK    4  A    between atoms: N_6  and  C_7
REMARK    5  A    between atoms: C_7  and  C_8
REMARK    6  A    between atoms: C_8  and  C_9
REMARK    7  A    between atoms: C_15  and  C_17
REMARK    8  A    between atoms: C_17  and  N_64
REMARK    9  A    between atoms: C_20  and  C_23
REMARK   10  A    between atoms: N_25  and  C_26
REMARK   11  A    between atoms: C_31  and  O_32
REMARK                            x       y       z     vdW  Elec       q    Type
REMARK                         _______ _______ _______ _____ _____    ______ ____
ROOT
ATOM      1  C   UNL     1      -8.670  -4.149   0.197  0.00  0.00    -0.078 C 
ATOM      2  C   UNL     1      -9.116  -5.610   0.289  0.00  0.00    -0.006 C 
ATOM      3  C   UNL     1     -10.625  -5.663   0.546  0.00  0.00    +0.072 C 
ATOM      4  C   UNL     1     -10.943  -4.895   1.831  0.00  0.00    -0.006 C 
ATOM      5  C   UNL     1     -10.444  -3.454   1.695  0.00  0.00    -0.078 C 
ATOM      6  N   UNL     1      -8.982  -3.472   1.474  0.00  0.00    +0.385 N 
ATOM      7  H   UNL     1      -8.535  -3.986   2.242  0.00  0.00    -0.081 HD
ENDROOT
BRANCH   3   8
ATOM      8  C   UNL     1     -11.060  -7.098   0.697  0.00  0.00    +0.220 C 
ATOM      9  O   UNL     1     -11.574  -7.471   1.730  0.00  0.00    -0.275 OA
ATOM     10  N   UNL     1     -10.877  -7.968  -0.317  0.00  0.00    -0.282 N 
ATOM     11  H   UNL     1     -10.526  -7.656  -1.166  0.00  0.00    +0.155 HD
BRANCH  10  12
ATOM     12  C   UNL     1     -11.195  -9.322  -0.145  0.00  0.00    +0.075 A 
ATOM     13  C   UNL     1     -12.272  -9.687   0.650  0.00  0.00    +0.027 A 
ATOM     14  C   UNL     1     -12.583 -11.023   0.819  0.00  0.00    +0.002 A 
ATOM     15  C   UNL     1     -11.825 -11.998   0.196  0.00  0.00    +0.004 A 
ATOM     16  C   UNL     1     -10.751 -11.640  -0.598  0.00  0.00    +0.047 A 
ATOM     17  C   UNL     1     -10.435 -10.303  -0.776  0.00  0.00    +0.138 A 
BRANCH  17  18
ATOM     18  O   UNL     1      -9.383  -9.950  -1.562  0.00  0.00    -0.505 OA
ATOM     19  H   UNL     1      -8.543  -9.884  -1.088  0.00  0.00    +0.292 HD
ENDBRANCH  17  18
ENDBRANCH  10  12
ENDBRANCH   3   8
BRANCH   6  20
ATOM     20  C   UNL     1      -8.459  -2.090   1.453  0.00  0.00    +0.002 C 
BRANCH  20  21
ATOM     21  C   UNL     1      -6.952  -2.142   1.446  0.00  0.00    +0.149 C 
ATOM     22  O   UNL     1      -6.382  -3.213   1.441  0.00  0.00    -0.294 OA
BRANCH  21  26
ATOM     23  C   UNL     1      -5.684   2.792   1.471  0.00  0.00    +0.063 C 
ATOM     24  C   UNL     1      -5.634   1.286   1.457  0.00  0.00    +0.017 A 
ATOM     25  C   UNL     1      -6.702   0.472   1.453  0.00  0.00    +0.034 A 
ATOM     26  C   UNL     1      -6.177  -0.900   1.447  0.00  0.00    +0.036 A 
ATOM     27  C   UNL     1      -4.800  -0.777   1.441  0.00  0.00    +0.026 A 
ATOM     28  N   UNL     1      -4.496   0.533   1.444  0.00  0.00    -0.347 N 
ATOM     29  C   UNL     1      -3.811  -1.915   1.433  0.00  0.00    +0.064 C 
BRANCH  28  30
ATOM     30  C   UNL     1      -3.135   1.074   1.440  0.00  0.00    +0.127 C 
BRANCH  30  31
ATOM     31  C   UNL     1      -2.667   1.268  -0.004  0.00  0.00    +0.064 C 
BRANCH  31  32
ATOM     32  C   UNL     1      -1.267   1.825  -0.008  0.00  0.00    -0.009 A 
ATOM     33  C   UNL     1      -0.085   1.162  -0.015  0.00  0.00    +0.011 A 
ATOM     34  C   UNL     1       1.091   1.889  -0.024  0.00  0.00    +0.008 A 
ATOM     35  C   UNL     1       1.027   3.243  -0.020  0.00  0.00    +0.045 A 
ATOM     36  S   UNL     1      -0.735   3.529  -0.003  0.00  0.00    -0.102 S 
ENDBRANCH  31  32
ENDBRANCH  30  31
ENDBRANCH  28  30
ENDBRANCH  21  26
ENDBRANCH  20  21
ENDBRANCH   6  20
TORSDOF 9
