REMARK  Name = ZINC63557111
REMARK  4 active torsions:
REMARK  status: ('A' for Active; 'I' for Inactive)
REMARK    1  A    between atoms: C_11  and  C_13
REMARK    2  A    between atoms: N_18  and  C_20
REMARK    3  A    between atoms: C_20  and  C_21
REMARK    4  A    between atoms: C_21  and  C_22
REMARK                            x       y       z     vdW  Elec       q    Type
REMARK                         _______ _______ _______ _____ _____    ______ ____
ROOT
ATOM      1  C   UNL     1       4.700   1.482  -0.737  0.00  0.00    +0.101 C 
ATOM      2  C   UNL     1       4.279   2.373   0.455  0.00  0.00    +0.110 C 
ATOM      3  C   UNL     1       5.096   3.635   0.282  0.00  0.00    +0.216 C 
ATOM      4  O   UNL     1       4.870   4.690   0.834  0.00  0.00    -0.276 OA
ATOM      5  N   UNL     1       6.110   3.415  -0.573  0.00  0.00    -0.300 N 
ATOM      6  C   UNL     1       6.109   2.029  -1.058  0.00  0.00    +0.121 C 
ENDROOT
BRANCH   1  17
ATOM      7  C   UNL     1       3.998  -4.851   0.255  0.00  0.00    +0.000 A 
ATOM      8  C   UNL     1       5.139  -4.075   0.162  0.00  0.00    +0.002 A 
ATOM      9  C   UNL     1       5.033  -2.723  -0.093  0.00  0.00    +0.024 A 
ATOM     10  C   UNL     1       3.781  -2.142  -0.258  0.00  0.00    +0.039 A 
ATOM     11  C   UNL     1       2.638  -2.921  -0.168  0.00  0.00    -0.026 A 
ATOM     12  C   UNL     1       2.753  -4.277   0.091  0.00  0.00    +0.005 A 
ATOM     13  C   UNL     1       1.266  -2.328  -0.350  0.00  0.00    +0.038 C 
ATOM     14  C   UNL     1       1.299  -0.818  -0.120  0.00  0.00    +0.024 C 
ATOM     15  C   UNL     1       2.417  -0.209  -0.977  0.00  0.00    +0.114 C 
ATOM     16  N   UNL     1       3.694  -0.766  -0.511  0.00  0.00    -0.271 N 
ATOM     17  C   UNL     1       4.764   0.033  -0.330  0.00  0.00    +0.225 C 
ATOM     18  O   UNL     1       5.779  -0.415   0.161  0.00  0.00    -0.275 OA
ENDBRANCH   1  17
BRANCH   5  19
ATOM     19  C   UNL     1       7.090   4.429  -0.971  0.00  0.00    +0.112 C 
BRANCH  19  20
ATOM     20  C   UNL     1       8.278   4.396  -0.007  0.00  0.00    +0.052 C 
BRANCH  20  21
ATOM     21  C   UNL     1       9.286   5.439  -0.417  0.00  0.00    -0.040 C 
ATOM     22  C   UNL     1       9.397   6.696   0.068  0.00  0.00    +0.000 A 
ATOM     23  C   UNL     1       8.642   7.441   1.082  0.00  0.00    +0.030 A 
ATOM     24  C   UNL     1       8.997   8.718   1.359  0.00  0.00    +0.042 A 
ATOM     25  C   UNL     1      10.066   9.344   0.701  0.00  0.00    +0.022 A 
ATOM     26  C   UNL     1      10.806   8.724  -0.242  0.00  0.00    +0.027 A 
ATOM     27  C   UNL     1      10.521   7.380  -0.611  0.00  0.00    +0.043 A 
ATOM     28  N   UNL     1      11.083   6.577  -1.481  0.00  0.00    -0.380 N 
ATOM     29  C   UNL     1      10.382   5.288  -1.448  0.00  0.00    +0.144 C 
ATOM     30 CL   UNL     1       8.106   9.602   2.558  0.00  0.00    -0.084 Cl
ATOM     31  H   UNL     1      11.838   6.796  -2.049  0.00  0.00    +0.160 HD
ENDBRANCH  20  21
ENDBRANCH  19  20
ENDBRANCH   5  19
TORSDOF 4
