REMARK  Name = ZINC03116383
REMARK  8 active torsions:
REMARK  status: ('A' for Active; 'I' for Inactive)
REMARK    1  A    between atoms: C_3  and  C_17
REMARK    2  A    between atoms: C_5  and  O_7
REMARK    3  A    between atoms: O_7  and  C_8
REMARK    4  A    between atoms: C_8  and  C_10
REMARK    5  A    between atoms: N_18  and  N_19
REMARK    6  A    between atoms: C_20  and  C_22
REMARK    7  A    between atoms: C_22  and  N_23
REMARK    8  A    between atoms: C_24  and  C_26
REMARK                            x       y       z     vdW  Elec       q    Type
REMARK                         _______ _______ _______ _____ _____    ______ ____
ROOT
ATOM      1  C   UNL     1       0.048  -0.023   0.212  0.00  0.00    +0.138 C 
ATOM      2  N   UNL     1      -1.060  -0.700   0.225  0.00  0.00    -0.188 NA
ENDROOT
BRANCH   1   5
ATOM      3  C   UNL     1      -1.241   3.493  -0.044  0.00  0.00    +0.004 A 
ATOM      4  C   UNL     1      -1.212   2.116   0.039  0.00  0.00    +0.010 A 
ATOM      5  C   UNL     1       0.012   1.448   0.119  0.00  0.00    -0.002 A 
ATOM      6  C   UNL     1       1.202   2.178   0.105  0.00  0.00    +0.055 A 
ATOM      7  C   UNL     1       1.161   3.559   0.017  0.00  0.00    +0.133 A 
ATOM      8  C   UNL     1      -0.061   4.215  -0.058  0.00  0.00    +0.046 A 
BRANCH   7   9
ATOM      9  O   UNL     1       2.317   4.274   0.002  0.00  0.00    -0.422 OA
BRANCH   9  10
ATOM     10  C   UNL     1       3.092   4.161  -1.094  0.00  0.00    +0.345 C 
ATOM     11  O   UNL     1       2.698   3.529  -2.054  0.00  0.00    -0.245 OA
BRANCH  10  12
ATOM     12  C   UNL     1       4.420   4.806  -1.129  0.00  0.00    +0.062 A 
ATOM     13  C   UNL     1       5.226   4.691  -2.264  0.00  0.00    +0.015 A 
ATOM     14  C   UNL     1       6.466   5.294  -2.291  0.00  0.00    +0.004 A 
ATOM     15  C   UNL     1       6.913   6.014  -1.197  0.00  0.00    +0.038 A 
ATOM     16  C   UNL     1       6.120   6.133  -0.067  0.00  0.00    +0.124 A 
ATOM     17  C   UNL     1       4.873   5.537  -0.030  0.00  0.00    +0.053 A 
ATOM     18  F   UNL     1       6.562   6.838   0.997  0.00  0.00    -0.205 F 
ENDBRANCH  10  12
ENDBRANCH   9  10
ENDBRANCH   7   9
ENDBRANCH   1   5
BRANCH   2  19
ATOM     19  N   UNL     1      -1.026  -2.097   0.314  0.00  0.00    -0.206 N 
ATOM     20  C   UNL     1      -2.176  -2.800   0.328  0.00  0.00    +0.249 C 
ATOM     21  O   UNL     1      -3.240  -2.221   0.263  0.00  0.00    -0.272 OA
ATOM     22  H   UNL     1      -0.175  -2.560   0.366  0.00  0.00    +0.177 HD
BRANCH  20  23
ATOM     23  C   UNL     1      -2.140  -4.303   0.423  0.00  0.00    +0.202 C 
BRANCH  23  24
ATOM     24  N   UNL     1      -3.508  -4.826   0.419  0.00  0.00    -0.303 N 
ATOM     25  C   UNL     1      -3.723  -6.154   0.497  0.00  0.00    +0.244 C 
ATOM     26  O   UNL     1      -2.780  -6.919   0.570  0.00  0.00    -0.270 OA
ATOM     27  H   UNL     1      -4.260  -4.216   0.361  0.00  0.00    +0.150 HD
BRANCH  25  28
ATOM     28  C   UNL     1      -5.103  -6.681   0.493  0.00  0.00    +0.037 A 
ATOM     29  C   UNL     1      -6.188  -5.806   0.415  0.00  0.00    +0.014 A 
ATOM     30  C   UNL     1      -7.473  -6.304   0.406  0.00  0.00    +0.021 A 
ATOM     31  C   UNL     1      -7.690  -7.670   0.486  0.00  0.00    +0.041 A 
ATOM     32  C   UNL     1      -6.619  -8.543   0.570  0.00  0.00    +0.021 A 
ATOM     33  C   UNL     1      -5.328  -8.057   0.574  0.00  0.00    +0.014 A 
ATOM     34 CL   UNL     1      -9.312  -8.289   0.481  0.00  0.00    -0.084 Cl
ENDBRANCH  25  28
ENDBRANCH  23  24
ENDBRANCH  20  23
ENDBRANCH   2  19
TORSDOF 8
