REMARK  Name = ZINC04167868
REMARK  8 active torsions:
REMARK  status: ('A' for Active; 'I' for Inactive)
REMARK    1  A    between atoms: C_1  and  C_2
REMARK    2  A    between atoms: C_4  and  C_8
REMARK    3  A    between atoms: C_5  and  C_7
REMARK    4  A    between atoms: C_15  and  N_34
REMARK    5  A    between atoms: C_16  and  C_32
REMARK    6  A    between atoms: C_17  and  C_19
REMARK    7  A    between atoms: C_20  and  C_31
REMARK    8  A    between atoms: N_22  and  C_25
REMARK                            x       y       z     vdW  Elec       q    Type
REMARK                         _______ _______ _______ _____ _____    ______ ____
ROOT
ATOM      1  C   UNL     1      -1.001  -0.961  -0.657  0.00  0.00    +0.101 A 
ATOM      2  C   UNL     1      -2.112  -1.754  -0.356  0.00  0.00    +0.054 A 
ATOM      3  C   UNL     1      -1.725  -3.062  -0.406  0.00  0.00    +0.223 A 
ATOM      4  N   UNL     1      -0.414  -3.089  -0.727  0.00  0.00    -0.246 N 
ATOM      5  H   UNL     1       0.130  -3.885  -0.833  0.00  0.00    +0.192 HD
ATOM      6  N   UNL     1       0.021  -1.764  -0.886  0.00  0.00    -0.171 NA
ATOM      7  O   UNL     1      -2.578  -4.088  -0.164  0.00  0.00    -0.423 OA
ATOM      8  C   UNL     1      -3.897  -3.811  -0.136  0.00  0.00    +0.200 C 
ATOM      9  C   UNL     1      -4.401  -2.558  -0.074  0.00  0.00    +0.098 C 
ATOM     10  C   UNL     1      -3.521  -1.334  -0.022  0.00  0.00    +0.106 C 
ENDROOT
BRANCH   1  14
ATOM     11  C   UNL     1      -3.202   3.614  -0.522  0.00  0.00    +0.051 C 
ATOM     12  C   UNL     1      -2.086   2.609  -0.639  0.00  0.00    -0.012 A 
ATOM     13  C   UNL     1      -2.148   1.259  -0.581  0.00  0.00    +0.021 A 
ATOM     14  C   UNL     1      -0.976   0.522  -0.716  0.00  0.00    +0.013 A 
ATOM     15  C   UNL     1       0.199   1.194  -0.904  0.00  0.00    -0.004 A 
ATOM     16  S   UNL     1      -0.343   2.895  -0.899  0.00  0.00    -0.098 S 
ATOM     17  C   UNL     1       1.590   0.642  -1.077  0.00  0.00    +0.052 C 
ENDBRANCH   1  14
BRANCH  10  18
ATOM     18  C   UNL     1      -3.559  -0.737   1.361  0.00  0.00    +0.025 A 
ATOM     19  C   UNL     1      -4.238   0.427   1.735  0.00  0.00    +0.066 A 
ATOM     20  N   UNL     1      -4.040   0.628   3.013  0.00  0.00    -0.170 NA
ATOM     21  N   UNL     1      -3.225  -0.404   3.498  0.00  0.00    -0.221 N 
ATOM     22  C   UNL     1      -2.948  -1.236   2.462  0.00  0.00    +0.137 A 
ATOM     23 CL   UNL     1      -1.980  -2.676   2.533  0.00  0.00    -0.062 Cl
ATOM     24  C   UNL     1      -5.059   1.302   0.823  0.00  0.00    +0.068 C 
BRANCH  21  25
ATOM     25  C   UNL     1      -2.781  -0.554   4.819  0.00  0.00    +0.067 A 
ATOM     26  C   UNL     1      -2.635  -1.822   5.364  0.00  0.00    +0.028 A 
ATOM     27  C   UNL     1      -2.196  -1.967   6.666  0.00  0.00    +0.002 A 
ATOM     28  C   UNL     1      -1.904  -0.850   7.427  0.00  0.00    +0.000 A 
ATOM     29  C   UNL     1      -2.049   0.415   6.887  0.00  0.00    +0.002 A 
ATOM     30  C   UNL     1      -2.481   0.566   5.584  0.00  0.00    +0.028 A 
ENDBRANCH  21  25
ENDBRANCH  10  18
BRANCH   8  31
ATOM     31  N   UNL     1      -4.780  -4.861  -0.175  0.00  0.00    -0.328 N 
ATOM     32  H   UNL     1      -4.448  -5.772  -0.220  0.00  0.00    +0.145 HD
ATOM     33  H   UNL     1      -5.735  -4.693  -0.156  0.00  0.00    +0.145 HD
ENDBRANCH   8  31
BRANCH   9  34
ATOM     34  C   UNL     1      -5.823  -2.386  -0.055  0.00  0.00    +0.101 C 
ATOM     35  N   UNL     1      -6.950  -2.250  -0.041  0.00  0.00    -0.191 NA
ENDBRANCH   9  34
TORSDOF 5
