REMARK  Name = ZINC10933175
REMARK  9 active torsions:
REMARK  status: ('A' for Active; 'I' for Inactive)
REMARK    1  A    between atoms: C_1  and  C_2
REMARK    2  A    between atoms: C_2  and  C_3
REMARK    3  A    between atoms: C_2  and  C_4
REMARK    4  A    between atoms: C_4  and  C_6
REMARK    5  A    between atoms: C_4  and  O_12
REMARK    6  A    between atoms: O_12  and  C_13
REMARK    7  A    between atoms: C_13  and  C_15
REMARK    8  A    between atoms: C_19  and  N_20
REMARK    9  A    between atoms: C_21  and  C_23
REMARK                            x       y       z     vdW  Elec       q    Type
REMARK                         _______ _______ _______ _____ _____    ______ ____
ROOT
ATOM      1  C   UNL     1      -2.936   1.334  -0.716  0.00  0.00    +0.091 A 
ATOM      2  C   UNL     1      -4.054   2.189  -1.113  0.00  0.00    -0.021 A 
ATOM      3  C   UNL     1      -3.736   3.476  -1.343  0.00  0.00    -0.004 A 
ATOM      4  S   UNL     1      -1.989   3.571  -1.040  0.00  0.00    -0.077 S 
ATOM      5  C   UNL     1      -1.686   1.922  -0.610  0.00  0.00    +0.086 A 
ATOM      6  C   UNL     1      -4.936   4.290  -1.748  0.00  0.00    +0.043 C 
ATOM      7  C   UNL     1      -6.149   3.432  -1.324  0.00  0.00    +0.010 C 
ATOM      8  C   UNL     1      -5.554   2.010  -1.354  0.00  0.00    +0.037 C 
ENDROOT
BRANCH   5   9
ATOM      9  N   UNL     1      -0.483   1.332  -0.253  0.00  0.00    -0.279 N 
ATOM     10  C   UNL     1       0.644   2.069  -0.215  0.00  0.00    +0.221 C 
ATOM     11  O   UNL     1       0.606   3.250  -0.489  0.00  0.00    -0.275 OA
ATOM     12  H   UNL     1      -0.453   0.388  -0.035  0.00  0.00    +0.155 HD
BRANCH  10  13
ATOM     13  C   UNL     1       1.952   1.426   0.167  0.00  0.00    +0.075 C 
ATOM     14  C   UNL     1       1.843   0.847   1.578  0.00  0.00    +0.013 C 
ATOM     15  C   UNL     1       3.171   0.194   1.966  0.00  0.00    +0.001 C 
ATOM     16  C   UNL     1       4.284   1.243   1.931  0.00  0.00    +0.000 C 
ATOM     17  C   UNL     1       4.394   1.823   0.519  0.00  0.00    +0.001 C 
ATOM     18  C   UNL     1       3.066   2.475   0.132  0.00  0.00    +0.013 C 
ENDBRANCH  10  13
ENDBRANCH   5   9
BRANCH   1  19
ATOM     19  C   UNL     1      -3.130  -0.090  -0.438  0.00  0.00    +0.343 C 
ATOM     20  O   UNL     1      -3.403  -0.458   0.689  0.00  0.00    -0.245 OA
BRANCH  19  21
ATOM     21  O   UNL     1      -3.008  -0.994  -1.432  0.00  0.00    -0.448 OA
BRANCH  21  22
ATOM     22  C   UNL     1      -3.215  -2.389  -1.083  0.00  0.00    +0.265 C 
BRANCH  22  23
ATOM     23  C   UNL     1      -3.763  -3.128  -2.276  0.00  0.00    +0.261 C 
ATOM     24  O   UNL     1      -3.872  -2.563  -3.342  0.00  0.00    -0.271 OA
ATOM     25  N   UNL     1      -4.133  -4.419  -2.157  0.00  0.00    -0.237 N 
ATOM     26  C   UNL     1      -4.728  -5.048  -3.190  0.00  0.00    +0.303 C 
ATOM     27  O   UNL     1      -4.931  -4.451  -4.229  0.00  0.00    -0.253 OA
ATOM     28  N   UNL     1      -5.098  -6.338  -3.071  0.00  0.00    -0.313 N 
ATOM     29  H   UNL     1      -3.971  -4.895  -1.327  0.00  0.00    +0.159 HD
ATOM     30  H   UNL     1      -4.936  -6.814  -2.241  0.00  0.00    +0.146 HD
ATOM     31  H   UNL     1      -5.526  -6.791  -3.814  0.00  0.00    +0.146 HD
ENDBRANCH  22  23
BRANCH  22  33
ATOM     32  C   UNL     1      -0.844  -2.784  -1.766  0.00  0.00    +0.011 C 
ATOM     33  C   UNL     1      -1.882  -3.013  -0.665  0.00  0.00    +0.033 C 
ATOM     34  C   UNL     1      -1.399  -2.363   0.634  0.00  0.00    +0.011 C 
ENDBRANCH  22  33
ENDBRANCH  21  22
ENDBRANCH  19  21
ENDBRANCH   1  19
TORSDOF 7
