REMARK  Name = ZINC21869228
REMARK  10 active torsions:
REMARK  status: ('A' for Active; 'I' for Inactive)
REMARK    1  A    between atoms: C_1  and  C_2
REMARK    2  A    between atoms: C_5  and  N_8
REMARK    3  A    between atoms: C_9  and  C_11
REMARK    4  A    between atoms: C_11  and  O_12
REMARK    5  A    between atoms: O_12  and  C_13
REMARK    6  A    between atoms: C_13  and  C_15
REMARK    7  A    between atoms: C_19  and  S_21
REMARK    8  A    between atoms: S_21  and  N_24
REMARK    9  A    between atoms: N_24  and  C_25
REMARK   10  A    between atoms: C_25  and  C_26
REMARK                            x       y       z     vdW  Elec       q    Type
REMARK                         _______ _______ _______ _____ _____    ______ ____
ROOT
ATOM      1  C   UNL     1      -1.968  -3.752   8.290  0.00  0.00    +0.061 A 
ATOM      2  C   UNL     1      -1.150  -4.877   8.166  0.00  0.00    +0.015 A 
ATOM      3  C   UNL     1      -0.922  -5.684   9.261  0.00  0.00    +0.003 A 
ATOM      4  C   UNL     1      -1.502  -5.381  10.480  0.00  0.00    +0.028 A 
ATOM      5  C   UNL     1      -2.314  -4.269  10.610  0.00  0.00    +0.106 A 
ATOM      6  C   UNL     1      -2.545  -3.449   9.524  0.00  0.00    +0.043 A 
ENDROOT
BRANCH   5   7
ATOM      7  S   UNL     1      -3.049  -3.894  12.167  0.00  0.00    +0.059 S 
ATOM      8  O   UNL     1      -4.202  -3.109  11.894  0.00  0.00    -0.153 OA
ATOM      9  O   UNL     1      -3.112  -5.115  12.891  0.00  0.00    -0.153 OA
BRANCH   7  10
ATOM     10  N   UNL     1      -1.992  -2.914  12.983  0.00  0.00    -0.183 NA
ATOM     11  H   UNL     1      -1.575  -3.226  13.802  0.00  0.00    +0.148 HD
BRANCH  10  12
ATOM     12  C   UNL     1      -1.688  -1.576  12.470  0.00  0.00    +0.180 C 
BRANCH  12  13
ATOM     13  C   UNL     1      -1.016  -0.765  13.548  0.00  0.00    +0.120 A 
ATOM     14  C   UNL     1       0.309  -0.690  13.766  0.00  0.00    +0.046 A 
ATOM     15  C   UNL     1       0.494   0.176  14.868  0.00  0.00    +0.041 A 
ATOM     16  C   UNL     1      -0.729   0.579  15.258  0.00  0.00    +0.195 A 
ATOM     17  O   UNL     1      -1.639   0.010  14.451  0.00  0.00    -0.466 OA
ENDBRANCH  12  13
ENDBRANCH  10  12
ENDBRANCH   7  10
ENDBRANCH   5   7
BRANCH   1  18
ATOM     18  C   UNL     1      -2.216  -2.883   7.122  0.00  0.00    +0.340 C 
ATOM     19  O   UNL     1      -2.925  -1.902   7.234  0.00  0.00    -0.245 OA
BRANCH  18  20
ATOM     20  O   UNL     1      -1.657  -3.177   5.932  0.00  0.00    -0.452 OA
BRANCH  20  21
ATOM     21  C   UNL     1      -1.941  -2.293   4.845  0.00  0.00    +0.328 C 
BRANCH  21  23
ATOM     22  N   UNL     1      -1.358  -2.098   2.449  0.00  0.00    -0.310 N 
ATOM     23  C   UNL     1      -1.235  -2.779   3.606  0.00  0.00    +0.251 C 
ATOM     24  O   UNL     1      -0.557  -3.784   3.648  0.00  0.00    -0.272 OA
ATOM     25  H   UNL     1      -1.901  -1.294   2.415  0.00  0.00    +0.149 HD
BRANCH  22  30
ATOM     26  C   UNL     1      -0.019   1.526   0.010  0.00  0.00    +0.007 C 
ATOM     27  C   UNL     1       0.002  -0.004   0.002  0.00  0.00    -0.014 C 
ATOM     28  C   UNL     1      -1.433  -0.534   0.013  0.00  0.00    +0.005 C 
ATOM     29  C   UNL     1      -1.413  -2.063   0.004  0.00  0.00    +0.022 C 
ATOM     30  C   UNL     1      -0.673  -2.570   1.244  0.00  0.00    +0.073 C 
ATOM     31  C   UNL     1       0.763  -2.041   1.233  0.00  0.00    +0.022 C 
ATOM     32  C   UNL     1       0.742  -0.511   1.242  0.00  0.00    +0.005 C 
ENDBRANCH  22  30
ENDBRANCH  21  23
ENDBRANCH  20  21
ENDBRANCH  18  20
ENDBRANCH   1  18
TORSDOF 9
