REMARK  Name = ZINC13033300
REMARK  11 active torsions:
REMARK  status: ('A' for Active; 'I' for Inactive)
REMARK    1  A    between atoms: C_1  and  C_2
REMARK    2  A    between atoms: C_2  and  C_3
REMARK    3  A    between atoms: C_10  and  C_15
REMARK    4  A    between atoms: C_15  and  N_67
REMARK    5  A    between atoms: C_16  and  C_17
REMARK    6  A    between atoms: C_16  and  N_67
REMARK    7  A    between atoms: C_20  and  C_23
REMARK    8  A    between atoms: C_24  and  C_25
REMARK    9  A    between atoms: C_24  and  N_67
REMARK   10  A    between atoms: N_29  and  C_30
REMARK   11  A    between atoms: C_30  and  C_31
REMARK                            x       y       z     vdW  Elec       q    Type
REMARK                         _______ _______ _______ _____ _____    ______ ____
ROOT
ATOM      1  N   UNL     1      -1.278  -1.457  -1.574  0.00  0.00    +0.390 N 
ATOM      2  H   UNL     1      -1.242  -0.494  -1.930  0.00  0.00    -0.080 HD
ENDROOT
BRANCH   1   3
ATOM      3  C   UNL     1      -2.688  -1.894  -1.513  0.00  0.00    -0.036 C 
BRANCH   3  11
ATOM      4  C   UNL     1      -4.975  -2.474  -7.233  0.00  0.00    -0.047 A 
ATOM      5  C   UNL     1      -5.450  -1.174  -7.344  0.00  0.00    +0.005 A 
ATOM      6  C   UNL     1      -5.294  -0.278  -6.308  0.00  0.00    +0.026 A 
ATOM      7  C   UNL     1      -4.656  -0.679  -5.139  0.00  0.00    +0.049 A 
ATOM      8  C   UNL     1      -4.176  -1.998  -5.030  0.00  0.00    -0.001 A 
ATOM      9  C   UNL     1      -4.345  -2.890  -6.095  0.00  0.00    +0.013 A 
ATOM     10  C   UNL     1      -3.502  -2.408  -3.798  0.00  0.00    +0.017 A 
ATOM     11  C   UNL     1      -3.373  -1.502  -2.797  0.00  0.00    +0.001 A 
ATOM     12  C   UNL     1      -3.872  -0.192  -2.956  0.00  0.00    +0.251 A 
ATOM     13  O   UNL     1      -3.741   0.608  -2.046  0.00  0.00    -0.268 OA
ATOM     14  N   UNL     1      -4.488   0.196  -4.087  0.00  0.00    -0.322 N 
ATOM     15  H   UNL     1      -4.819   1.105  -4.163  0.00  0.00    +0.169 HD
BRANCH   4  17
ATOM     16  C   UNL     1      -6.485  -4.177  -8.219  0.00  0.00    +0.009 C 
ATOM     17  C   UNL     1      -5.156  -3.435  -8.380  0.00  0.00    +0.032 C 
ENDBRANCH   4  17
ENDBRANCH   3  11
ENDBRANCH   1   3
BRANCH   1  18
ATOM     18  C   UNL     1      -0.516  -2.335  -2.487  0.00  0.00    -0.042 C 
BRANCH  18  19
ATOM     19  C   UNL     1       0.732  -1.610  -2.923  0.00  0.00    -0.064 A 
ATOM     20  C   UNL     1       0.676  -0.704  -3.966  0.00  0.00    +0.002 A 
ATOM     21  C   UNL     1       1.819  -0.037  -4.363  0.00  0.00    +0.003 A 
ATOM     22  C   UNL     1       3.020  -0.282  -3.724  0.00  0.00    -0.050 A 
ATOM     23  C   UNL     1       3.077  -1.192  -2.685  0.00  0.00    +0.003 A 
ATOM     24  C   UNL     1       1.933  -1.856  -2.285  0.00  0.00    +0.002 A 
ATOM     25  C   UNL     1       4.268   0.443  -4.160  0.00  0.00    +0.044 C 
ENDBRANCH  18  19
ENDBRANCH   1  18
BRANCH   1  26
ATOM     26  C   UNL     1      -0.679  -1.492  -0.223  0.00  0.00    +0.001 C 
BRANCH  26  27
ATOM     27  C   UNL     1       0.507  -0.562  -0.198  0.00  0.00    +0.135 A 
ATOM     28  N   UNL     1       0.746   0.424  -1.028  0.00  0.00    -0.115 NA
ATOM     29  N   UNL     1       1.855   0.979  -0.677  0.00  0.00    -0.023 NA
ATOM     30  N   UNL     1       2.328   0.374   0.356  0.00  0.00    -0.044 NA
ATOM     31  N   UNL     1       1.525  -0.582   0.682  0.00  0.00    -0.229 N 
BRANCH  31  32
ATOM     32  C   UNL     1       1.692  -1.516   1.799  0.00  0.00    +0.178 C 
BRANCH  32  33
ATOM     33  C   UNL     1       2.579  -2.682   1.360  0.00  0.00    +0.140 C 
ATOM     34  C   UNL     1       2.795  -3.667   2.538  0.00  0.00    +0.035 C 
ATOM     35  C   UNL     1       3.104  -4.981   1.768  0.00  0.00    +0.031 C 
ATOM     36  C   UNL     1       2.218  -4.843   0.511  0.00  0.00    +0.160 C 
ATOM     37  O   UNL     1       1.923  -3.452   0.340  0.00  0.00    -0.375 OA
ENDBRANCH  32  33
ENDBRANCH  31  32
ENDBRANCH  26  27
ENDBRANCH   1  26
TORSDOF 9
