REMARK  Name = ZINC44440549
REMARK  6 active torsions:
REMARK  status: ('A' for Active; 'I' for Inactive)
REMARK    1  A    between atoms: C_1  and  O_2
REMARK    2  A    between atoms: O_2  and  C_3
REMARK    3  A    between atoms: C_6  and  C_9
REMARK    4  A    between atoms: C_9  and  N_10
REMARK    5  A    between atoms: C_12  and  C_17
REMARK    6  A    between atoms: C_19  and  C_22
REMARK                            x       y       z     vdW  Elec       q    Type
REMARK                         _______ _______ _______ _____ _____    ______ ____
ROOT
ATOM      1  N   UNL     1       3.923  -2.713  -4.080  0.00  0.00    -0.296 N 
ATOM      2  C   UNL     1       4.984  -1.744  -4.374  0.00  0.00    +0.121 C 
ATOM      3  C   UNL     1       6.305  -2.543  -4.299  0.00  0.00    +0.104 C 
ATOM      4  C   UNL     1       5.919  -3.699  -3.347  0.00  0.00    +0.110 C 
ATOM      5  C   UNL     1       4.418  -3.817  -3.492  0.00  0.00    +0.217 C 
ATOM      6  O   UNL     1       3.757  -4.768  -3.134  0.00  0.00    -0.276 OA
ENDROOT
BRANCH   3   7
ATOM      7  C   UNL     1       7.409  -1.704  -3.709  0.00  0.00    +0.233 A 
ATOM      8  N   UNL     1       8.525  -1.389  -4.303  0.00  0.00    -0.191 NA
ATOM      9  C   UNL     1       9.282  -0.631  -3.489  0.00  0.00    +0.202 A 
ATOM     10  N   UNL     1       8.640  -0.460  -2.360  0.00  0.00    -0.056 NA
ATOM     11  O   UNL     1       7.407  -1.152  -2.489  0.00  0.00    -0.337 OA
BRANCH   9  12
ATOM     12  C   UNL     1      10.621  -0.081  -3.816  0.00  0.00    +0.025 A 
ATOM     13  C   UNL     1      11.195  -0.333  -5.061  0.00  0.00    +0.013 A 
ATOM     14  C   UNL     1      12.440   0.180  -5.361  0.00  0.00    +0.023 A 
ATOM     15  C   UNL     1      13.120   0.944  -4.429  0.00  0.00    +0.076 A 
ATOM     16  C   UNL     1      12.554   1.198  -3.189  0.00  0.00    +0.142 A 
ATOM     17  C   UNL     1      11.305   0.693  -2.882  0.00  0.00    +0.051 A 
ATOM     18  F   UNL     1      13.222   1.944  -2.282  0.00  0.00    -0.204 F 
ATOM     19 CL   UNL     1      14.687   1.586  -4.813  0.00  0.00    -0.081 Cl
ENDBRANCH   9  12
ENDBRANCH   3   7
BRANCH   1  20
ATOM     20  C   UNL     1       2.505  -2.503  -4.381  0.00  0.00    +0.142 C 
BRANCH  20  24
ATOM     21  C   UNL     1       0.606  -0.607  -1.056  0.00  0.00    +0.120 A 
ATOM     22  C   UNL     1       1.173   0.161  -2.062  0.00  0.00    +0.046 A 
ATOM     23  C   UNL     1       1.786  -0.455  -3.136  0.00  0.00    +0.009 A 
ATOM     24  C   UNL     1       1.835  -1.835  -3.209  0.00  0.00    -0.030 A 
ATOM     25  C   UNL     1       1.270  -2.602  -2.207  0.00  0.00    +0.009 A 
ATOM     26  C   UNL     1       0.661  -1.992  -1.128  0.00  0.00    +0.046 A 
BRANCH  21  28
ATOM     27  C   UNL     1      -0.017   1.425   0.010  0.00  0.00    +0.277 C 
ATOM     28  O   UNL     1       0.002  -0.004   0.002  0.00  0.00    -0.495 OA
ENDBRANCH  21  28
ENDBRANCH  20  24
ENDBRANCH   1  20
TORSDOF 5
