REMARK  Name = ZINC12900024
REMARK  7 active torsions:
REMARK  status: ('A' for Active; 'I' for Inactive)
REMARK    1  A    between atoms: C_1  and  C_2
REMARK    2  A    between atoms: C_2  and  C_3
REMARK    3  A    between atoms: C_3  and  C_29
REMARK    4  A    between atoms: N_6  and  N_10
REMARK    5  A    between atoms: C_11  and  C_13
REMARK    6  A    between atoms: C_16  and  C_28
REMARK    7  A    between atoms: N_18  and  C_21
REMARK                            x       y       z     vdW  Elec       q    Type
REMARK                         _______ _______ _______ _____ _____    ______ ____
ROOT
ATOM      1  C   UNL     1       3.766  -3.878  -2.395  0.00  0.00    +0.078 A 
ATOM      2  C   UNL     1       3.953  -5.216  -2.579  0.00  0.00    +0.032 A 
ATOM      3  C   UNL     1       5.054  -5.668  -3.324  0.00  0.00    +0.031 A 
ATOM      4  C   UNL     1       5.632  -6.903  -3.764  0.00  0.00    +0.069 A 
ATOM      5  N   UNL     1       6.707  -6.649  -4.449  0.00  0.00    -0.170 NA
ATOM      6  N   UNL     1       6.908  -5.264  -4.506  0.00  0.00    -0.224 N 
ATOM      7  C   UNL     1       5.906  -4.672  -3.824  0.00  0.00    +0.113 A 
ATOM      8  S   UNL     1       5.156  -3.167  -3.259  0.00  0.00    -0.064 S 
ATOM      9  C   UNL     1       5.082  -8.276  -3.479  0.00  0.00    +0.068 C 
ENDROOT
BRANCH   6  10
ATOM     10  C   UNL     1       7.963  -4.610  -5.155  0.00  0.00    +0.085 A 
ATOM     11  C   UNL     1       7.704  -3.526  -5.984  0.00  0.00    +0.029 A 
ATOM     12  C   UNL     1       8.746  -2.883  -6.623  0.00  0.00    +0.002 A 
ATOM     13  C   UNL     1      10.046  -3.318  -6.439  0.00  0.00    +0.002 A 
ATOM     14  C   UNL     1      10.308  -4.397  -5.616  0.00  0.00    +0.022 A 
ATOM     15  C   UNL     1       9.270  -5.041  -4.968  0.00  0.00    +0.066 A 
ATOM     16 CL   UNL     1       9.600  -6.391  -3.927  0.00  0.00    -0.081 Cl
ENDBRANCH   6  10
BRANCH   1  18
ATOM     17  N   UNL     1       2.684  -1.850  -1.586  0.00  0.00    -0.219 N 
ATOM     18  C   UNL     1       2.695  -3.195  -1.664  0.00  0.00    +0.267 C 
ATOM     19  O   UNL     1       1.816  -3.843  -1.127  0.00  0.00    -0.268 OA
ATOM     20  H   UNL     1       3.385  -1.333  -2.014  0.00  0.00    +0.174 HD
BRANCH  17  24
ATOM     21  C   UNL     1      -0.210  -0.003  -0.342  0.00  0.00    +0.111 C 
ATOM     22  C   UNL     1       0.639  -0.542  -1.476  0.00  0.00    +0.263 C 
ATOM     23  O   UNL     1       0.442  -0.412  -2.665  0.00  0.00    -0.271 OA
ATOM     24  N   UNL     1       1.660  -1.197  -0.887  0.00  0.00    -0.137 N 
ATOM     25  C   UNL     1       1.574  -1.147   0.447  0.00  0.00    +0.326 C 
ATOM     26  O   UNL     1       2.379  -1.665   1.196  0.00  0.00    -0.251 OA
ATOM     27  N   UNL     1       0.496  -0.460   0.867  0.00  0.00    -0.284 N 
ATOM     28  C   UNL     1      -0.264   1.525  -0.389  0.00  0.00    +0.041 C 
ATOM     29  H   UNL     1       0.235  -0.297   1.787  0.00  0.00    +0.151 HD
BRANCH  21  31
ATOM     30  C   UNL     1      -2.436  -0.073   0.791  0.00  0.00    +0.006 C 
ATOM     31  C   UNL     1      -1.621  -0.592  -0.396  0.00  0.00    +0.032 C 
ENDBRANCH  21  31
ENDBRANCH  17  24
ENDBRANCH   1  18
TORSDOF 4
