REMARK  Name = ZINC32345818
REMARK  8 active torsions:
REMARK  status: ('A' for Active; 'I' for Inactive)
REMARK    1  A    between atoms: C_1  and  C_2
REMARK    2  A    between atoms: C_4  and  N_21
REMARK    3  A    between atoms: C_6  and  C_7
REMARK    4  A    between atoms: N_9  and  C_10
REMARK    5  A    between atoms: C_10  and  C_11
REMARK    6  A    between atoms: C_11  and  C_13
REMARK    7  A    between atoms: C_11  and  N_14
REMARK    8  A    between atoms: C_22  and  C_24
REMARK                            x       y       z     vdW  Elec       q    Type
REMARK                         _______ _______ _______ _____ _____    ______ ____
ROOT
ATOM      1  C   UNL     1       0.790   4.176   1.309  0.00  0.00    +0.045 C 
ATOM      2  C   UNL     1       1.867   3.181   0.960  0.00  0.00    -0.029 A 
ATOM      3  C   UNL     1       3.184   3.548   0.902  0.00  0.00    +0.035 A 
ATOM      4  C   UNL     1       4.126   2.595   0.577  0.00  0.00    +0.073 A 
ATOM      5  S   UNL     1       3.174   1.163   0.354  0.00  0.00    -0.069 S 
ATOM      6  C   UNL     1       1.563   1.855   0.683  0.00  0.00    +0.078 A 
ENDROOT
BRANCH   6   7
ATOM      7  C   UNL     1       0.260   1.195   0.671  0.00  0.00    +0.251 C 
ATOM      8  O   UNL     1      -0.747   1.831   0.924  0.00  0.00    -0.270 OA
ATOM      9  N   UNL     1       0.171  -0.117   0.375  0.00  0.00    -0.312 N 
ATOM     10  H   UNL     1       1.081  -0.690   0.142  0.00  0.00    +0.149 HD
BRANCH   9  11
ATOM     11  C   UNL     1      -1.135  -0.779   0.363  0.00  0.00    +0.089 C 
BRANCH  11  12
ATOM     12  C   UNL     1      -0.957  -2.254  -0.001  0.00  0.00    -0.054 C 
ATOM     13  C   UNL     1      -2.329  -2.916  -0.136  0.00  0.00    -0.012 C 
BRANCH  12  14
ATOM     14  N   UNL     1      -0.235  -2.360  -1.276  0.00  0.00    +0.382 N 
ATOM     15  C   UNL     1      -0.942  -1.625  -2.348  0.00  0.00    -0.078 C 
ATOM     16  C   UNL     1      -0.397  -1.924  -3.718  0.00  0.00    -0.019 C 
ATOM     17  C   UNL     1      -1.228  -3.067  -4.337  0.00  0.00    -0.002 C 
ATOM     18  C   UNL     1      -0.846  -4.373  -3.812  0.00  0.00    -0.002 C 
ATOM     19  C   UNL     1      -1.063  -4.474  -2.287  0.00  0.00    -0.019 C 
ATOM     20  C   UNL     1       0.073  -3.772  -1.596  0.00  0.00    -0.078 C 
ATOM     21  H   UNL     1       0.741  -1.863  -1.174  0.00  0.00    -0.081 HD
ENDBRANCH  12  14
ENDBRANCH  11  12
ENDBRANCH   9  11
ENDBRANCH   6   7
BRANCH   4  22
ATOM     22  N   UNL     1       5.501   2.743   0.461  0.00  0.00    -0.273 N 
ATOM     23  C   UNL     1       6.268   1.685   0.131  0.00  0.00    +0.284 C 
ATOM     24  O   UNL     1       5.754   0.600  -0.067  0.00  0.00    -0.266 OA
ATOM     25  H   UNL     1       5.965   3.724   0.640  0.00  0.00    +0.156 HD
BRANCH  23  26
ATOM     26  C   UNL     1       7.720   1.842   0.009  0.00  0.00    +0.189 A 
ATOM     27  C   UNL     1       8.609   0.858  -0.318  0.00  0.00    +0.054 A 
ATOM     28  C   UNL     1       9.882   1.449  -0.319  0.00  0.00    +0.042 A 
ATOM     29  C   UNL     1       9.717   2.751   0.003  0.00  0.00    +0.196 A 
ATOM     30  O   UNL     1       8.412   2.986   0.194  0.00  0.00    -0.458 OA
ENDBRANCH  23  26
ENDBRANCH   4  22
TORSDOF 6
