REMARK  Name = ZINC11338843
REMARK  10 active torsions:
REMARK  status: ('A' for Active; 'I' for Inactive)
REMARK    1  A    between atoms: C_4  and  C_7
REMARK    2  A    between atoms: C_7  and  N_8
REMARK    3  A    between atoms: C_9  and  N_36
REMARK    4  A    between atoms: C_10  and  N_17
REMARK    5  A    between atoms: N_17  and  C_18
REMARK    6  A    between atoms: N_17  and  C_26
REMARK    7  A    between atoms: C_18  and  C_19
REMARK    8  A    between atoms: C_19  and  C_20
REMARK    9  A    between atoms: C_26  and  C_27
REMARK   10  A    between atoms: C_29  and  C_34
REMARK                            x       y       z     vdW  Elec       q    Type
REMARK                         _______ _______ _______ _____ _____    ______ ____
ROOT
ATOM      1  N   UNL     1       4.543   7.782  -1.345  0.00  0.00    -0.276 N 
ATOM      2  C   UNL     1       3.477   6.938  -1.562  0.00  0.00    +0.127 A 
ATOM      3  C   UNL     1       3.575   5.624  -1.193  0.00  0.00    +0.134 A 
ATOM      4  C   UNL     1       4.771   5.167  -0.610  0.00  0.00    +0.277 A 
ATOM      5  O   UNL     1       4.884   3.999  -0.278  0.00  0.00    -0.266 OA
ATOM      6  N   UNL     1       5.790   6.028  -0.421  0.00  0.00    -0.273 N 
ATOM      7  H   UNL     1       6.641   5.704  -0.006  0.00  0.00    +0.173 HD
ATOM      8  C   UNL     1       5.675   7.318  -0.784  0.00  0.00    +0.331 A 
ATOM      9  O   UNL     1       6.608   8.076  -0.604  0.00  0.00    -0.246 OA
ENDROOT
BRANCH   2  10
ATOM     10  N   UNL     1       2.321   7.413  -2.139  0.00  0.00    -0.343 N 
ATOM     11  H   UNL     1       1.572   6.815  -2.287  0.00  0.00    +0.144 HD
ATOM     12  H   UNL     1       2.257   8.345  -2.399  0.00  0.00    +0.144 HD
ENDBRANCH   2  10
BRANCH   1  13
ATOM     13  C   UNL     1       4.446   9.192  -1.731  0.00  0.00    +0.163 C 
BRANCH  13  17
ATOM     14  C   UNL     1       5.790   9.661  -5.758  0.00  0.00    +0.000 A 
ATOM     15  C   UNL     1       4.457   9.401  -5.500  0.00  0.00    +0.000 A 
ATOM     16  C   UNL     1       4.022   9.249  -4.197  0.00  0.00    +0.005 A 
ATOM     17  C   UNL     1       4.920   9.357  -3.151  0.00  0.00    -0.028 A 
ATOM     18  C   UNL     1       6.252   9.623  -3.409  0.00  0.00    +0.005 A 
ATOM     19  C   UNL     1       6.688   9.770  -4.713  0.00  0.00    +0.000 A 
ENDBRANCH  13  17
ENDBRANCH   1  13
BRANCH   3  20
ATOM     20  N   UNL     1       2.493   4.737  -1.401  0.00  0.00    -0.318 N 
BRANCH  20  21
ATOM     21  C   UNL     1       2.882   3.630  -2.285  0.00  0.00    +0.110 C 
BRANCH  21  22
ATOM     22  C   UNL     1       3.052   4.153  -3.712  0.00  0.00    +0.049 C 
BRANCH  22  23
ATOM     23  C   UNL     1       3.328   2.999  -4.641  0.00  0.00    -0.072 C 
ATOM     24  C   UNL     1       2.326   2.473  -5.270  0.00  0.00    -0.028 C 
ATOM     25  C   UNL     1       2.442   1.315  -6.218  0.00  0.00    +0.027 C 
ATOM     26  C   UNL     1       3.898   1.134  -6.652  0.00  0.00    +0.004 C 
ATOM     27  C   UNL     1       4.782   1.132  -5.399  0.00  0.00    +0.005 C 
ATOM     28  C   UNL     1       4.747   2.534  -4.783  0.00  0.00    +0.030 C 
ENDBRANCH  22  23
ENDBRANCH  21  22
ENDBRANCH  20  21
BRANCH  20  29
ATOM     29  C   UNL     1       1.973   4.233  -0.123  0.00  0.00    +0.143 C 
BRANCH  29  30
ATOM     30  C   UNL     1       0.611   3.626  -0.339  0.00  0.00    +0.006 A 
ATOM     31  C   UNL     1       0.459   2.256  -0.329  0.00  0.00    +0.027 A 
ATOM     32  C   UNL     1      -0.804   1.695  -0.529  0.00  0.00    +0.052 A 
ATOM     33  C   UNL     1      -1.906   2.526  -0.744  0.00  0.00    +0.021 A 
ATOM     34  C   UNL     1      -1.743   3.895  -0.746  0.00  0.00    +0.040 A 
ATOM     35  C   UNL     1      -0.487   4.447  -0.547  0.00  0.00    +0.128 A 
ATOM     36  F   UNL     1      -0.332   5.789  -0.555  0.00  0.00    -0.205 F 
BRANCH  32  37
ATOM     37  C   UNL     1      -0.969   0.272  -0.520  0.00  0.00    +0.099 C 
ATOM     38  N   UNL     1      -1.099  -0.856  -0.514  0.00  0.00    -0.191 NA
ENDBRANCH  32  37
ENDBRANCH  29  30
ENDBRANCH  20  29
ENDBRANCH   3  20
TORSDOF 10
