REMARK  Name = ZINC66876896
REMARK  10 active torsions:
REMARK  status: ('A' for Active; 'I' for Inactive)
REMARK    1  A    between atoms: C_1  and  C_2
REMARK    2  A    between atoms: C_5  and  C_9
REMARK    3  A    between atoms: C_7  and  C_8
REMARK    4  A    between atoms: C_9  and  C_11
REMARK    5  A    between atoms: C_9  and  N_12
REMARK    6  A    between atoms: C_13  and  C_15
REMARK    7  A    between atoms: C_15  and  N_16
REMARK    8  A    between atoms: C_19  and  N_22
REMARK    9  A    between atoms: C_23  and  C_25
REMARK   10  A    between atoms: C_25  and  C_26
REMARK                            x       y       z     vdW  Elec       q    Type
REMARK                         _______ _______ _______ _____ _____    ______ ____
ROOT
ATOM      1  N   UNL     1      -2.741  -7.862  -1.728  0.00  0.00    +0.385 N 
ATOM      2  C   UNL     1      -1.592  -8.775  -1.716  0.00  0.00    -0.076 C 
ATOM      3  C   UNL     1      -2.049 -10.170  -1.285  0.00  0.00    +0.003 C 
ATOM      4  C   UNL     1      -3.101 -10.684  -2.272  0.00  0.00    +0.069 C 
ATOM      5  C   UNL     1      -4.261  -9.686  -2.333  0.00  0.00    +0.003 C 
ATOM      6  C   UNL     1      -3.722  -8.309  -2.724  0.00  0.00    -0.076 C 
ATOM      7  H   UNL     1      -3.170  -7.852  -0.815  0.00  0.00    -0.081 HD
ENDROOT
BRANCH   4   8
ATOM      8  N   UNL     1      -3.599 -11.987  -1.824  0.00  0.00    -0.313 N 
ATOM      9  C   UNL     1      -4.118 -12.854  -2.716  0.00  0.00    +0.213 C 
ATOM     10  O   UNL     1      -4.173 -12.555  -3.890  0.00  0.00    -0.276 OA
ATOM     11  H   UNL     1      -3.555 -12.226  -0.885  0.00  0.00    +0.149 HD
BRANCH   9  12
ATOM     12  C   UNL     1      -4.630 -14.194  -2.255  0.00  0.00    +0.099 C 
BRANCH  12  13
ATOM     13  C   UNL     1      -5.161 -14.978  -3.456  0.00  0.00    -0.002 C 
ATOM     14  C   UNL     1      -6.432 -14.301  -4.009  0.00  0.00    +0.004 C 
ATOM     15  C   UNL     1      -7.338 -15.483  -4.436  0.00  0.00    +0.000 C 
ATOM     16  C   UNL     1      -7.079 -16.530  -3.324  0.00  0.00    +0.000 C 
ATOM     17  C   UNL     1      -5.572 -16.395  -3.021  0.00  0.00    +0.004 C 
ENDBRANCH  12  13
ENDBRANCH   9  12
ENDBRANCH   4   8
BRANCH   1  18
ATOM     18  C   UNL     1      -2.284  -6.507  -2.067  0.00  0.00    +0.019 C 
BRANCH  18  20
ATOM     19  N   UNL     1      -0.828  -4.769  -1.077  0.00  0.00    -0.310 N 
ATOM     20  C   UNL     1      -1.371  -5.999  -0.981  0.00  0.00    +0.197 C 
ATOM     21  O   UNL     1      -1.125  -6.697  -0.019  0.00  0.00    -0.278 OA
ATOM     22  H   UNL     1      -1.024  -4.212  -1.846  0.00  0.00    +0.149 HD
BRANCH  19  23
ATOM     23  C   UNL     1       0.059  -4.275  -0.021  0.00  0.00    +0.100 C 
ATOM     24  C   UNL     1       1.485  -4.766  -0.282  0.00  0.00    +0.033 C 
BRANCH  23  29
ATOM     25  C   UNL     1      -0.018   1.503   0.010  0.00  0.00    +0.044 C 
ATOM     26  C   UNL     1       0.002  -0.004   0.002  0.00  0.00    -0.048 A 
ATOM     27  C   UNL     1       0.006  -0.689  -1.199  0.00  0.00    +0.004 A 
ATOM     28  C   UNL     1       0.025  -2.071  -1.207  0.00  0.00    +0.006 A 
ATOM     29  C   UNL     1       0.040  -2.768  -0.013  0.00  0.00    -0.027 A 
ATOM     30  C   UNL     1       0.037  -2.084   1.188  0.00  0.00    +0.009 A 
ATOM     31  C   UNL     1       0.023  -0.702   1.195  0.00  0.00    -0.047 A 
ATOM     32  C   UNL     1       0.025   0.045   2.504  0.00  0.00    +0.044 C 
ENDBRANCH  23  29
ENDBRANCH  19  23
ENDBRANCH  18  20
ENDBRANCH   1  18
TORSDOF 7
