REMARK  Name = ZINC63374275
REMARK  12 active torsions:
REMARK  status: ('A' for Active; 'I' for Inactive)
REMARK    1  A    between atoms: C_1  and  C_2
REMARK    2  A    between atoms: C_2  and  O_3
REMARK    3  A    between atoms: O_3  and  C_4
REMARK    4  A    between atoms: C_5  and  C_12
REMARK    5  A    between atoms: C_9  and  O_10
REMARK    6  A    between atoms: O_10  and  C_11
REMARK    7  A    between atoms: N_19  and  C_34
REMARK    8  A    between atoms: C_22  and  C_33
REMARK    9  A    between atoms: C_34  and  C_35
REMARK   10  A    between atoms: C_35  and  C_36
REMARK   11  A    between atoms: C_36  and  C_37
REMARK   12  A    between atoms: C_36  and  C_38
REMARK                            x       y       z     vdW  Elec       q    Type
REMARK                         _______ _______ _______ _____ _____    ______ ____
ROOT
ATOM      1  C   UNL     1      -1.505  -1.780  -2.498  0.00  0.00    +0.069 C 
ATOM      2  C   UNL     1      -0.328  -2.307  -3.338  0.00  0.00    +0.121 C 
ATOM      3  N   UNL     1      -0.459  -1.814  -4.724  0.00  0.00    -0.283 N 
ATOM      4  C   UNL     1       0.537  -1.076  -5.226  0.00  0.00    +0.234 C 
ATOM      5  O   UNL     1       1.478  -0.834  -4.500  0.00  0.00    -0.274 OA
ATOM      6  C   UNL     1       0.576  -0.528  -6.614  0.00  0.00    +0.203 C 
ATOM      7  N   UNL     1      -0.602  -0.895  -7.382  0.00  0.00    -0.291 N 
ATOM      8  C   UNL     1      -1.605  -1.619  -6.890  0.00  0.00    +0.242 C 
ATOM      9  O   UNL     1      -2.538  -1.867  -7.625  0.00  0.00    -0.273 OA
ATOM     10  C   UNL     1      -1.659  -2.145  -5.494  0.00  0.00    +0.135 C 
ATOM     11  C   UNL     1      -2.874  -1.567  -4.761  0.00  0.00    +0.139 C 
ATOM     12  C   UNL     1      -2.756  -2.013  -3.308  0.00  0.00    -0.027 C 
ATOM     13  C   UNL     1      -3.904  -2.605  -3.005  0.00  0.00    -0.000 A 
ATOM     14  C   UNL     1      -4.424  -3.145  -1.738  0.00  0.00    +0.010 A 
ATOM     15  C   UNL     1      -5.656  -3.717  -1.792  0.00  0.00    +0.001 A 
ATOM     16  C   UNL     1      -6.413  -3.805  -2.964  0.00  0.00    +0.002 A 
ATOM     17  C   UNL     1      -6.017  -3.327  -4.171  0.00  0.00    +0.026 A 
ATOM     18  C   UNL     1      -4.743  -2.694  -4.239  0.00  0.00    +0.043 A 
ATOM     19  N   UNL     1      -4.134  -2.117  -5.261  0.00  0.00    -0.375 N 
ATOM     20  C   UNL     1      -1.811  -3.667  -5.545  0.00  0.00    +0.044 C 
ATOM     21  H   UNL     1      -4.454  -2.064  -6.175  0.00  0.00    +0.160 HD
ENDROOT
BRANCH   1  23
ATOM     22  C   UNL     1      -1.498  -1.849   0.006  0.00  0.00    +0.166 A 
ATOM     23  C   UNL     1      -1.586  -2.533  -1.196  0.00  0.00    +0.007 A 
ATOM     24  C   UNL     1      -1.748  -3.906  -1.200  0.00  0.00    +0.008 A 
ATOM     25  C   UNL     1      -1.823  -4.600  -0.006  0.00  0.00    +0.004 A 
ATOM     26  C   UNL     1      -1.738  -3.923   1.197  0.00  0.00    +0.049 A 
ATOM     27  C   UNL     1      -1.569  -2.548   1.208  0.00  0.00    +0.162 A 
BRANCH  27  28
ATOM     28  O   UNL     1      -1.478  -1.882   2.390  0.00  0.00    -0.491 OA
ATOM     29  C   UNL     1      -1.559  -2.664   3.583  0.00  0.00    +0.277 C 
ENDBRANCH  27  28
BRANCH  22  30
ATOM     30  O   UNL     1      -1.339  -0.499   0.012  0.00  0.00    -0.488 OA
BRANCH  30  32
ATOM     31  C   UNL     1      -0.019   1.526   0.010  0.00  0.00    +0.048 C 
ATOM     32  C   UNL     1       0.002  -0.004   0.002  0.00  0.00    +0.226 C 
ENDBRANCH  30  32
ENDBRANCH  22  30
ENDBRANCH   1  23
BRANCH   7  33
ATOM     33  C   UNL     1      -0.690  -0.445  -8.773  0.00  0.00    +0.108 C 
BRANCH  33  34
ATOM     34  C   UNL     1      -0.061  -1.495  -9.691  0.00  0.00    +0.022 C 
BRANCH  34  35
ATOM     35  C   UNL     1      -0.153  -1.025 -11.143  0.00  0.00    -0.016 C 
ATOM     36  C   UNL     1       0.698   0.234 -11.327  0.00  0.00    +0.007 C 
ATOM     37  C   UNL     1       0.361  -2.128 -12.070  0.00  0.00    +0.007 C 
ENDBRANCH  34  35
ENDBRANCH  33  34
ENDBRANCH   7  33
TORSDOF 7
