REMARK  Name = ZINC63855457
REMARK  9 active torsions:
REMARK  status: ('A' for Active; 'I' for Inactive)
REMARK    1  A    between atoms: C_1  and  C_2
REMARK    2  A    between atoms: C_2  and  N_3
REMARK    3  A    between atoms: N_3  and  C_4
REMARK    4  A    between atoms: C_4  and  C_5
REMARK    5  A    between atoms: C_5  and  C_6
REMARK    6  A    between atoms: C_12  and  C_16
REMARK    7  A    between atoms: C_17  and  C_19
REMARK    8  A    between atoms: C_19  and  C_20
REMARK    9  A    between atoms: C_20  and  C_21
REMARK                            x       y       z     vdW  Elec       q    Type
REMARK                         _______ _______ _______ _____ _____    ______ ____
ROOT
ATOM      1  N   UNL     1      -1.372  -0.511   0.012  0.00  0.00    -0.302 N 
ATOM      2  C   UNL     1      -1.993  -0.751   1.184  0.00  0.00    +0.216 C 
ATOM      3  O   UNL     1      -3.131  -1.171   1.193  0.00  0.00    -0.276 OA
ENDROOT
BRANCH   1   5
ATOM      4  C   UNL     1      -0.019   1.526   0.010  0.00  0.00    +0.024 C 
ATOM      5  C   UNL     1       0.002  -0.004   0.002  0.00  0.00    +0.104 C 
ENDBRANCH   1   5
BRANCH   1   6
ATOM      6  C   UNL     1      -2.072  -0.758  -1.251  0.00  0.00    +0.111 C 
BRANCH   6   7
ATOM      7  C   UNL     1      -1.816  -2.197  -1.703  0.00  0.00    +0.065 C 
BRANCH   7   8
ATOM      8  C   UNL     1      -2.546  -2.455  -3.022  0.00  0.00    +0.175 C 
ATOM      9  N   UNL     1      -3.995  -2.305  -2.834  0.00  0.00    -0.363 N 
ATOM     10  C   UNL     1      -4.546  -3.449  -3.122  0.00  0.00    +0.060 A 
ATOM     11  C   UNL     1      -5.940  -3.914  -3.122  0.00  0.00    +0.027 A 
ATOM     12  C   UNL     1      -6.217  -5.185  -3.474  0.00  0.00    +0.005 A 
ATOM     13  C   UNL     1      -5.219  -6.103  -3.848  0.00  0.00    -0.048 A 
ATOM     14  C   UNL     1      -3.910  -5.780  -3.881  0.00  0.00    +0.030 A 
ATOM     15  C   UNL     1      -3.490  -4.420  -3.517  0.00  0.00    +0.060 A 
ATOM     16  N   UNL     1      -2.325  -3.839  -3.459  0.00  0.00    -0.363 N 
ATOM     17  C   UNL     1      -5.629  -7.503  -4.226  0.00  0.00    +0.044 C 
ATOM     18  H   UNL     1      -4.456  -1.501  -2.548  0.00  0.00    +0.162 HD
ATOM     19  H   UNL     1      -1.469  -4.246  -3.667  0.00  0.00    +0.162 HD
ENDBRANCH   7   8
ENDBRANCH   6   7
ENDBRANCH   1   6
BRANCH   2  20
ATOM     20  C   UNL     1      -1.274  -0.497   2.484  0.00  0.00    +0.098 C 
BRANCH  20  21
ATOM     21  C   UNL     1      -2.196  -0.847   3.654  0.00  0.00    +0.041 C 
BRANCH  21  22
ATOM     22  C   UNL     1      -1.465  -0.590   4.973  0.00  0.00    +0.161 C 
ATOM     23  C   UNL     1      -2.369  -0.895   6.152  0.00  0.00    +0.241 C 
ATOM     24  O   UNL     1      -3.421  -0.358   6.426  0.00  0.00    -0.273 OA
ATOM     25  N   UNL     1      -1.761  -1.888   6.830  0.00  0.00    -0.239 N 
ATOM     26  C   UNL     1      -0.610  -2.248   6.250  0.00  0.00    +0.307 C 
ATOM     27  O   UNL     1       0.117  -3.123   6.678  0.00  0.00    -0.252 OA
ATOM     28  N   UNL     1      -0.345  -1.532   5.139  0.00  0.00    -0.288 N 
ATOM     29  H   UNL     1      -2.113  -2.290   7.639  0.00  0.00    +0.159 HD
ATOM     30  H   UNL     1       0.428  -1.620   4.560  0.00  0.00    +0.151 HD
ENDBRANCH  21  22
ENDBRANCH  20  21
ENDBRANCH   2  20
TORSDOF 7
