REMARK  Name = ZINC25180450
REMARK  7 active torsions:
REMARK  status: ('A' for Active; 'I' for Inactive)
REMARK    1  A    between atoms: C_7  and  C_11
REMARK    2  A    between atoms: C_11  and  C_13
REMARK    3  A    between atoms: C_11  and  C_31
REMARK    4  A    between atoms: C_13  and  N_14
REMARK    5  A    between atoms: C_15  and  C_17
REMARK    6  A    between atoms: C_17  and  C_18
REMARK    7  A    between atoms: C_27  and  O_30
REMARK                            x       y       z     vdW  Elec       q    Type
REMARK                         _______ _______ _______ _____ _____    ______ ____
ROOT
ATOM      1  C   UNL     1      -2.141   6.182  -3.454  0.00  0.00    +0.069 C 
ENDROOT
BRANCH   1   8
ATOM      2  C   UNL     1      -0.372   9.179  -6.595  0.00  0.00    +0.001 A 
ATOM      3  C   UNL     1      -0.521  10.507  -6.219  0.00  0.00    +0.002 A 
ATOM      4  C   UNL     1      -1.136  10.836  -5.031  0.00  0.00    +0.026 A 
ATOM      5  C   UNL     1      -1.613   9.829  -4.198  0.00  0.00    +0.047 A 
ATOM      6  C   UNL     1      -1.460   8.485  -4.583  0.00  0.00    +0.003 A 
ATOM      7  C   UNL     1      -0.833   8.174  -5.791  0.00  0.00    +0.010 A 
ATOM      8  C   UNL     1      -2.056   7.686  -3.510  0.00  0.00    -0.013 A 
ATOM      9  C   UNL     1      -2.517   8.547  -2.589  0.00  0.00    +0.088 A 
ATOM     10  N   UNL     1      -2.256   9.832  -2.980  0.00  0.00    -0.360 N 
ATOM     11  H   UNL     1      -2.481  10.785  -2.479  0.00  0.00    +0.165 HD
ENDBRANCH   1   8
BRANCH   1  12
ATOM     12  C   UNL     1      -3.587   5.764  -3.382  0.00  0.00    -0.020 A 
ATOM     13  C   UNL     1      -4.377   6.183  -2.327  0.00  0.00    +0.006 A 
ATOM     14  C   UNL     1      -5.703   5.798  -2.261  0.00  0.00    +0.000 A 
ATOM     15  C   UNL     1      -6.240   4.995  -3.250  0.00  0.00    +0.001 A 
ATOM     16  C   UNL     1      -5.452   4.576  -4.305  0.00  0.00    +0.020 A 
ATOM     17  C   UNL     1      -4.126   4.965  -4.374  0.00  0.00    +0.045 A 
ATOM     18 CL   UNL     1      -3.138   4.445  -5.703  0.00  0.00    -0.083 Cl
ENDBRANCH   1  12
BRANCH   1  19
ATOM     19  C   UNL     1      -1.401   5.676  -2.214  0.00  0.00    +0.117 C 
BRANCH  19  20
ATOM     20  N   UNL     1      -1.381   4.211  -2.222  0.00  0.00    -0.314 N 
ATOM     21  C   UNL     1      -0.779   3.539  -1.221  0.00  0.00    +0.214 C 
ATOM     22  O   UNL     1      -0.254   4.148  -0.313  0.00  0.00    -0.276 OA
ATOM     23  H   UNL     1      -1.858   3.659  -3.046  0.00  0.00    +0.149 HD
BRANCH  21  24
ATOM     24  C   UNL     1      -0.759   2.033  -1.229  0.00  0.00    +0.102 C 
BRANCH  24  25
ATOM     25  C   UNL     1      -0.019   1.526   0.010  0.00  0.00    -0.018 C 
ATOM     26  C   UNL     1      -0.735   2.019   1.269  0.00  0.00    +0.011 C 
ATOM     27  C   UNL     1       0.005   1.512   2.509  0.00  0.00    -0.007 C 
ATOM     28  C   UNL     1       1.441   2.042   2.498  0.00  0.00    +0.007 C 
ATOM     29  C   UNL     1       2.157   1.548   1.239  0.00  0.00    -0.007 C 
ATOM     30  C   UNL     1       1.417   2.055  -0.000  0.00  0.00    +0.011 C 
ATOM     31  C   UNL     1       2.178   0.019   1.231  0.00  0.00    +0.038 C 
ATOM     32  C   UNL     1       0.742  -0.511   1.242  0.00  0.00    +0.067 C 
ATOM     33  C   UNL     1       0.026  -0.018   2.500  0.00  0.00    +0.038 C 
ATOM     34  C   UNL     1       0.002  -0.004   0.002  0.00  0.00    +0.042 C 
BRANCH  32  35
ATOM     35  O   UNL     1       0.761  -1.940   1.234  0.00  0.00    -0.389 OA
ATOM     36  H   UNL     1      -0.184  -2.503   1.240  0.00  0.00    +0.210 HD
ENDBRANCH  32  35
ENDBRANCH  24  25
ENDBRANCH  21  24
ENDBRANCH  19  20
ENDBRANCH   1  19
TORSDOF 7
