REMARK  Name = ZINC38901610
REMARK  10 active torsions:
REMARK  status: ('A' for Active; 'I' for Inactive)
REMARK    1  A    between atoms: C_5  and  C_7
REMARK    2  A    between atoms: C_7  and  S_8
REMARK    3  A    between atoms: S_8  and  C_9
REMARK    4  A    between atoms: C_9  and  C_10
REMARK    5  A    between atoms: C_10  and  C_11
REMARK    6  A    between atoms: C_11  and  N_12
REMARK    7  A    between atoms: C_13  and  C_15
REMARK    8  A    between atoms: N_20  and  C_22
REMARK    9  A    between atoms: C_22  and  C_23
REMARK   10  A    between atoms: C_25  and  C_28
REMARK                            x       y       z     vdW  Elec       q    Type
REMARK                         _______ _______ _______ _____ _____    ______ ____
ROOT
ATOM      1  C   UNL     1       1.378  -9.392   5.528  0.00  0.00    +0.058 C 
ATOM      2  C   UNL     1       2.631  -8.943   6.286  0.00  0.00    +0.009 C 
ATOM      3  C   UNL     1       2.684  -9.662   7.637  0.00  0.00    -0.018 C 
ATOM      4  C   UNL     1       2.658 -11.174   7.405  0.00  0.00    -0.078 C 
ATOM      5  N   UNL     1       1.424 -11.543   6.700  0.00  0.00    +0.386 N 
ATOM      6  C   UNL     1       1.399 -10.914   5.374  0.00  0.00    -0.065 C 
ATOM      7  H   UNL     1       0.627 -11.231   7.234  0.00  0.00    -0.081 HD
ENDROOT
BRANCH   1   9
ATOM      8  N   UNL     1       1.337  -7.405   4.054  0.00  0.00    -0.315 N 
ATOM      9  C   UNL     1       1.357  -8.749   4.165  0.00  0.00    +0.214 C 
ATOM     10  O   UNL     1       1.356  -9.440   3.169  0.00  0.00    -0.276 OA
ATOM     11  H   UNL     1       1.338  -6.853   4.852  0.00  0.00    +0.149 HD
BRANCH   8  12
ATOM     12  C   UNL     1       1.316  -6.780   2.730  0.00  0.00    +0.105 C 
BRANCH  12  13
ATOM     13  C   UNL     1       1.297  -5.258   2.885  0.00  0.00    +0.029 C 
BRANCH  13  14
ATOM     14  C   UNL     1       1.275  -4.605   1.501  0.00  0.00    +0.071 C 
BRANCH  14  15
ATOM     15  S   UNL     1       1.253  -2.800   1.685  0.00  0.00    -0.156 S 
BRANCH  15  16
ATOM     16  C   UNL     1       1.228  -2.186  -0.022  0.00  0.00    +0.107 C 
BRANCH  16  21
ATOM     17  C   UNL     1      -0.017   1.378   0.010  0.00  0.00    +0.000 A 
ATOM     18  C   UNL     1       1.171   2.087   0.002  0.00  0.00    +0.003 A 
ATOM     19  C   UNL     1       2.377   1.414  -0.013  0.00  0.00    +0.038 A 
ATOM     20  C   UNL     1       2.397   0.029  -0.021  0.00  0.00    +0.127 A 
ATOM     21  C   UNL     1       1.208  -0.679  -0.013  0.00  0.00    -0.002 A 
ATOM     22  C   UNL     1       0.002  -0.004   0.002  0.00  0.00    +0.007 A 
ATOM     23  F   UNL     1       3.577  -0.630  -0.036  0.00  0.00    -0.205 F 
ENDBRANCH  16  21
ENDBRANCH  15  16
ENDBRANCH  14  15
ENDBRANCH  13  14
ENDBRANCH  12  13
ENDBRANCH   8  12
ENDBRANCH   1   9
BRANCH   5  24
ATOM     24  C   UNL     1       1.367 -13.003   6.549  0.00  0.00    +0.022 C 
BRANCH  24  25
ATOM     25  C   UNL     1       1.258 -13.645   7.908  0.00  0.00    +0.211 A 
ATOM     26  N   UNL     1       0.149 -13.926   8.530  0.00  0.00    -0.193 NA
ATOM     27  C   UNL     1       0.419 -14.493   9.720  0.00  0.00    +0.202 A 
ATOM     28  N   UNL     1       1.720 -14.574   9.859  0.00  0.00    -0.056 NA
ATOM     29  O   UNL     1       2.285 -14.028   8.677  0.00  0.00    -0.340 OA
BRANCH  27  30
ATOM     30  C   UNL     1      -0.587 -14.949  10.710  0.00  0.00    +0.023 A 
ATOM     31  C   UNL     1      -1.947 -14.811  10.438  0.00  0.00    +0.014 A 
ATOM     32  C   UNL     1      -2.880 -15.237  11.361  0.00  0.00    +0.039 A 
ATOM     33  C   UNL     1      -2.466 -15.802  12.557  0.00  0.00    +0.123 A 
ATOM     34  C   UNL     1      -1.115 -15.941  12.831  0.00  0.00    +0.039 A 
ATOM     35  C   UNL     1      -0.176 -15.523  11.912  0.00  0.00    +0.014 A 
ATOM     36  F   UNL     1      -3.383 -16.218  13.458  0.00  0.00    -0.205 F 
ENDBRANCH  27  30
ENDBRANCH  24  25
ENDBRANCH   5  24
TORSDOF 10
