REMARK  Name = ZINC39637168
REMARK  5 active torsions:
REMARK  status: ('A' for Active; 'I' for Inactive)
REMARK    1  A    between atoms: C_1  and  C_2
REMARK    2  A    between atoms: C_7  and  N_12
REMARK    3  A    between atoms: C_9  and  C_11
REMARK    4  A    between atoms: C_13  and  C_15
REMARK    5  A    between atoms: C_26  and  C_28
REMARK                            x       y       z     vdW  Elec       q    Type
REMARK                         _______ _______ _______ _____ _____    ______ ____
ROOT
ATOM      1  C   UNL     1       2.030  -4.315   3.826  0.00  0.00    +0.100 C 
ATOM      2  C   UNL     1       3.541  -4.569   3.620  0.00  0.00    +0.121 C 
ATOM      3  N   UNL     1       3.845  -5.736   4.481  0.00  0.00    -0.296 N 
ATOM      4  C   UNL     1       2.669  -6.625   4.325  0.00  0.00    +0.115 C 
ATOM      5  C   UNL     1       1.462  -5.667   4.287  0.00  0.00    -0.004 C 
ATOM      6  C   UNL     1       0.421  -6.170   3.292  0.00  0.00    -0.010 C 
ATOM      7  C   UNL     1      -0.172  -7.487   3.802  0.00  0.00    -0.082 C 
ATOM      8  N   UNL     1      -0.787  -7.271   5.118  0.00  0.00    +0.379 N 
ATOM      9  C   UNL     1       0.238  -6.877   6.091  0.00  0.00    -0.082 C 
ATOM     10  C   UNL     1       0.848  -5.535   5.678  0.00  0.00    -0.010 C 
ATOM     11  C   UNL     1       4.942  -5.941   5.237  0.00  0.00    +0.247 C 
ATOM     12  O   UNL     1       5.087  -6.996   5.823  0.00  0.00    -0.270 OA
ATOM     13  H   UNL     1      -1.481  -6.542   5.048  0.00  0.00    -0.086 HD
ATOM     14  H   UNL     1      -1.230  -8.124   5.424  0.00  0.00    -0.086 HD
ENDROOT
BRANCH  11  15
ATOM     15  C   UNL     1       5.968  -4.886   5.351  0.00  0.00    +0.045 A 
ATOM     16  C   UNL     1       6.474  -4.269   4.201  0.00  0.00    +0.014 A 
ATOM     17  C   UNL     1       7.431  -3.283   4.305  0.00  0.00    +0.001 A 
ATOM     18  C   UNL     1       7.904  -2.892   5.548  0.00  0.00    +0.012 A 
ATOM     19  C   UNL     1       7.415  -3.492   6.703  0.00  0.00    +0.031 A 
ATOM     20  C   UNL     1       6.436  -4.493   6.612  0.00  0.00    +0.006 A 
ATOM     21  C   UNL     1       6.093  -4.950   7.982  0.00  0.00    -0.006 A 
ATOM     22  C   UNL     1       5.201  -5.909   8.443  0.00  0.00    +0.009 A 
ATOM     23  C   UNL     1       5.074  -6.141   9.804  0.00  0.00    +0.001 A 
ATOM     24  C   UNL     1       5.830  -5.422  10.710  0.00  0.00    +0.001 A 
ATOM     25  C   UNL     1       6.725  -4.461  10.266  0.00  0.00    +0.012 A 
ATOM     26  C   UNL     1       6.862  -4.220   8.905  0.00  0.00    +0.030 A 
ATOM     27  C   UNL     1       7.724  -3.288   8.138  0.00  0.00    +0.194 C 
ATOM     28  O   UNL     1       8.521  -2.497   8.600  0.00  0.00    -0.287 OA
ENDBRANCH  11  15
BRANCH   1  30
ATOM     29  N   UNL     1       0.242  -3.183   2.546  0.00  0.00    -0.312 N 
ATOM     30  C   UNL     1       1.389  -3.891   2.530  0.00  0.00    +0.218 C 
ATOM     31  O   UNL     1       1.904  -4.186   1.472  0.00  0.00    -0.275 OA
ATOM     32  H   UNL     1      -0.171  -2.947   3.391  0.00  0.00    +0.149 HD
BRANCH  29  38
ATOM     33  C   UNL     1      -4.035  -1.931   0.404  0.00  0.00    +0.008 C 
ATOM     34  C   UNL     1      -2.534  -2.135   0.187  0.00  0.00    -0.009 C 
ATOM     35  C   UNL     1      -1.905  -0.825  -0.289  0.00  0.00    +0.003 C 
ATOM     36  C   UNL     1      -0.404  -1.030  -0.506  0.00  0.00    +0.002 C 
ATOM     37  C   UNL     1       0.248  -1.461   0.810  0.00  0.00    +0.022 C 
ATOM     38  C   UNL     1      -0.382  -2.771   1.286  0.00  0.00    +0.076 C 
ATOM     39  C   UNL     1      -1.883  -2.566   1.503  0.00  0.00    +0.009 C 
ATOM     40  C   UNL     1      -2.513  -3.876   1.979  0.00  0.00    +0.009 C 
ENDBRANCH  29  38
ENDBRANCH   1  30
TORSDOF 3
