REMARK  Name = ZINC26976253
REMARK  6 active torsions:
REMARK  status: ('A' for Active; 'I' for Inactive)
REMARK    1  A    between atoms: C_1  and  N_2
REMARK    2  A    between atoms: C_3  and  C_5
REMARK    3  A    between atoms: C_5  and  N_6
REMARK    4  A    between atoms: C_9  and  N_12
REMARK    5  A    between atoms: N_12  and  S_13
REMARK    6  A    between atoms: S_13  and  C_16
REMARK                            x       y       z     vdW  Elec       q    Type
REMARK                         _______ _______ _______ _____ _____    ______ ____
ROOT
ATOM      1  N   UNL     1       2.134   1.548   1.179  0.00  0.00    +0.385 N 
ATOM      2  C   UNL     1       1.419   2.052  -0.001  0.00  0.00    -0.077 C 
ATOM      3  C   UNL     1      -0.019   1.527   0.010  0.00  0.00    +0.002 C 
ATOM      4  C   UNL     1       0.002  -0.004   0.002  0.00  0.00    +0.073 C 
ATOM      5  C   UNL     1       0.794  -0.503   1.214  0.00  0.00    +0.002 C 
ATOM      6  C   UNL     1       2.208   0.081   1.168  0.00  0.00    -0.077 C 
ATOM      7  H   UNL     1       1.565   1.848   2.070  0.00  0.00    -0.081 HD
ENDROOT
BRANCH   4   8
ATOM      8  N   UNL     1      -1.370  -0.513   0.071  0.00  0.00    -0.187 NA
ATOM      9  H   UNL     1      -2.083  -0.075   0.785  0.00  0.00    +0.148 HD
BRANCH   8  10
ATOM     10  S   UNL     1      -1.781  -1.898  -0.738  0.00  0.00    +0.065 S 
ATOM     11  O   UNL     1      -3.153  -2.141  -0.456  0.00  0.00    -0.153 OA
ATOM     12  O   UNL     1      -1.290  -1.756  -2.063  0.00  0.00    -0.153 OA
BRANCH  10  13
ATOM     13  C   UNL     1      -0.875  -3.219  -0.003  0.00  0.00    +0.143 A 
ATOM     14  C   UNL     1      -1.222  -4.017   1.035  0.00  0.00    +0.037 A 
ATOM     15  C   UNL     1      -0.344  -5.005   1.444  0.00  0.00    +0.025 A 
ATOM     16  C   UNL     1       0.842  -5.136   0.800  0.00  0.00    +0.057 A 
ATOM     17  S   UNL     1       0.741  -3.846  -0.429  0.00  0.00    -0.062 S 
ATOM     18 BR   UNL     1       2.241  -6.367   1.122  0.00  0.00    -0.043 Br
ENDBRANCH  10  13
ENDBRANCH   8  10
ENDBRANCH   4   8
BRANCH   1  19
ATOM     19  C   UNL     1       3.474   2.142   1.275  0.00  0.00    +0.019 C 
BRANCH  19  22
ATOM     20  C   UNL     1       4.338   5.818   1.903  0.00  0.00    +0.128 C 
ATOM     21  N   UNL     1       4.459   4.379   1.655  0.00  0.00    -0.320 N 
ATOM     22  C   UNL     1       3.351   3.622   1.530  0.00  0.00    +0.196 C 
ATOM     23  O   UNL     1       2.254   4.132   1.622  0.00  0.00    -0.278 OA
ATOM     24  H   UNL     1       5.453   3.917   1.572  0.00  0.00    +0.148 HD
ENDBRANCH  19  22
ENDBRANCH   1  19
TORSDOF 5
