REMARK  Name = ZINC09547496
REMARK  6 active torsions:
REMARK  status: ('A' for Active; 'I' for Inactive)
REMARK    1  A    between atoms: C_1  and  C_2
REMARK    2  A    between atoms: C_10  and  C_12
REMARK    3  A    between atoms: C_15  and  S_18
REMARK    4  A    between atoms: S_18  and  C_19
REMARK    5  A    between atoms: C_23  and  C_26
REMARK    6  A    between atoms: C_29  and  O_32
REMARK                            x       y       z     vdW  Elec       q    Type
REMARK                         _______ _______ _______ _____ _____    ______ ____
ROOT
ATOM      1  C   UNL     1      -1.799   1.289   3.189  0.00  0.00    +0.069 C 
ATOM      2  C   UNL     1      -1.612   2.659   2.590  0.00  0.00    +0.087 A 
ATOM      3  C   UNL     1      -1.419   2.965   1.245  0.00  0.00    +0.049 A 
ATOM      4  C   UNL     1      -1.307   4.331   1.217  0.00  0.00    +0.226 A 
ATOM      5  O   UNL     1      -1.428   4.741   2.474  0.00  0.00    -0.339 OA
ATOM      6  N   UNL     1      -1.599   3.803   3.228  0.00  0.00    -0.081 NA
ATOM      7  N   UNL     1      -1.110   5.006   0.030  0.00  0.00    -0.286 N 
ATOM      8  C   UNL     1      -1.322   4.334  -1.151  0.00  0.00    +0.019 C 
ATOM      9  C   UNL     1      -1.432   2.990  -1.212  0.00  0.00    +0.024 C 
ATOM     10  C   UNL     1      -1.333   2.113   0.020  0.00  0.00    +0.091 C 
ATOM     11  C   UNL     1      -1.645   2.336  -2.439  0.00  0.00    +0.162 C 
ATOM     12  O   UNL     1      -1.760   1.126  -2.455  0.00  0.00    -0.292 OA
ATOM     13  C   UNL     1      -1.735   3.099  -3.731  0.00  0.00    +0.088 C 
ATOM     14  C   UNL     1      -0.913   4.387  -3.603  0.00  0.00    +0.032 C 
ATOM     15  C   UNL     1      -1.437   5.175  -2.402  0.00  0.00    +0.059 C 
ATOM     16  H   UNL     1      -0.828   5.934   0.028  0.00  0.00    +0.155 HD
ENDROOT
BRANCH  10  17
ATOM     17  C   UNL     1      -0.017   1.379   0.010  0.00  0.00    -0.035 A 
ATOM     18  C   UNL     1       1.169   2.090   0.002  0.00  0.00    +0.005 A 
ATOM     19  C   UNL     1       2.377   1.421  -0.013  0.00  0.00    +0.015 A 
ATOM     20  C   UNL     1       2.400   0.031  -0.021  0.00  0.00    +0.008 A 
ATOM     21  C   UNL     1       1.206  -0.680  -0.013  0.00  0.00    +0.015 A 
ATOM     22  C   UNL     1       0.002  -0.004   0.002  0.00  0.00    +0.005 A 
BRANCH  20  23
ATOM     23  S   UNL     1       3.939  -0.827  -0.041  0.00  0.00    -0.129 S 
ATOM     24  C   UNL     1       5.179   0.497  -0.045  0.00  0.00    +0.090 C 
ENDBRANCH  20  23
ENDBRANCH  10  17
BRANCH  14  25
ATOM     25  C   UNL     1      -1.062   5.211  -4.856  0.00  0.00    -0.043 A 
ATOM     26  C   UNL     1      -2.315   5.630  -5.262  0.00  0.00    +0.007 A 
ATOM     27  C   UNL     1      -2.454   6.391  -6.407  0.00  0.00    +0.045 A 
ATOM     28  C   UNL     1      -1.335   6.725  -7.156  0.00  0.00    +0.117 A 
ATOM     29  C   UNL     1      -0.079   6.298  -6.749  0.00  0.00    +0.045 A 
ATOM     30  C   UNL     1       0.055   5.543  -5.601  0.00  0.00    +0.007 A 
BRANCH  28  31
ATOM     31  O   UNL     1      -1.469   7.468  -8.285  0.00  0.00    -0.507 OA
ATOM     32  H   UNL     1      -1.605   6.945  -9.087  0.00  0.00    +0.292 HD
ENDBRANCH  28  31
ENDBRANCH  14  25
TORSDOF 4
