REMARK  Name = ZINC14547906
REMARK  3 active torsions:
REMARK  status: ('A' for Active; 'I' for Inactive)
REMARK    1  A    between atoms: C_9  and  O_31
REMARK    2  A    between atoms: C_10  and  C_11
REMARK    3  A    between atoms: C_21  and  N_28
REMARK                            x       y       z     vdW  Elec       q    Type
REMARK                         _______ _______ _______ _____ _____    ______ ____
ROOT
ATOM      1  C   UNL     1       5.029   1.772   0.399  0.00  0.00    +0.109 C 
ATOM      2  C   UNL     1       4.915   0.581  -0.530  0.00  0.00    +0.029 C 
ATOM      3  C   UNL     1       6.129  -0.344  -0.666  0.00  0.00    +0.033 C 
ATOM      4  C   UNL     1       5.457  -1.683  -0.983  0.00  0.00    -0.030 C 
ATOM      5  C   UNL     1       4.226  -1.701  -0.485  0.00  0.00    -0.023 C 
ATOM      6  C   UNL     1       3.986  -0.420   0.225  0.00  0.00    +0.051 C 
ATOM      7  C   UNL     1       2.650   0.213   0.298  0.00  0.00    +0.014 A 
ATOM      8  C   UNL     1       1.491  -0.535   0.271  0.00  0.00    +0.132 A 
ATOM      9  C   UNL     1       0.257   0.080   0.360  0.00  0.00    +0.036 A 
ATOM     10  C   UNL     1       0.185   1.456   0.481  0.00  0.00    +0.042 A 
ATOM     11  C   UNL     1       1.338   2.211   0.507  0.00  0.00    +0.145 A 
ATOM     12  C   UNL     1       2.594   1.603   0.409  0.00  0.00    +0.069 A 
ATOM     13  N   UNL     1       3.715   2.434   0.416  0.00  0.00    -0.334 N 
ATOM     14  F   UNL     1       1.254   3.554   0.628  0.00  0.00    -0.204 F 
ATOM     15  H   UNL     1       3.652   3.132  -0.309  0.00  0.00    +0.147 HD
ENDROOT
BRANCH   1  25
ATOM     16  C   UNL     1       9.713   3.187   1.897  0.00  0.00    +0.001 A 
ATOM     17  C   UNL     1       8.753   2.303   2.385  0.00  0.00    +0.001 A 
ATOM     18  C   UNL     1       7.563   2.138   1.746  0.00  0.00    +0.009 A 
ATOM     19  C   UNL     1       7.293   2.873   0.578  0.00  0.00    -0.009 A 
ATOM     20  C   UNL     1       8.272   3.769   0.079  0.00  0.00    -0.017 A 
ATOM     21  C   UNL     1       9.489   3.912   0.767  0.00  0.00    +0.008 A 
ATOM     22  C   UNL     1       8.006   4.501  -1.091  0.00  0.00    +0.012 A 
ATOM     23  C   UNL     1       6.818   4.338  -1.733  0.00  0.00    +0.046 A 
ATOM     24  C   UNL     1       5.853   3.451  -1.246  0.00  0.00    +0.122 A 
ATOM     25  C   UNL     1       6.079   2.724  -0.112  0.00  0.00    +0.022 A 
BRANCH  24  26
ATOM     26  O   UNL     1       4.676   3.310  -1.910  0.00  0.00    -0.506 OA
ATOM     27  H   UNL     1       4.015   3.979  -1.684  0.00  0.00    +0.292 HD
ENDBRANCH  24  26
ENDBRANCH   1  25
BRANCH   8  28
ATOM     28  N   UNL     1       1.570  -2.008   0.147  0.00  0.00    +0.057 N 
ATOM     29  O   UNL     1       0.910  -2.584  -0.699  0.00  0.00    -0.126 OA
ATOM     30  O   UNL     1       2.296  -2.643   0.891  0.00  0.00    -0.126 OA
ENDBRANCH   8  28
TORSDOF 3
