REMARK  Name = ZINC41264402
REMARK  9 active torsions:
REMARK  status: ('A' for Active; 'I' for Inactive)
REMARK    1  A    between atoms: C_1  and  C_2
REMARK    2  A    between atoms: C_2  and  C_3
REMARK    3  A    between atoms: C_2  and  C_4
REMARK    4  A    between atoms: C_4  and  C_5
REMARK    5  A    between atoms: C_5  and  C_7
REMARK    6  A    between atoms: C_5  and  N_15
REMARK    7  A    between atoms: N_15  and  S_16
REMARK    8  A    between atoms: S_16  and  C_19
REMARK    9  A    between atoms: C_23  and  N_25
REMARK                            x       y       z     vdW  Elec       q    Type
REMARK                         _______ _______ _______ _____ _____    ______ ____
ROOT
ATOM      1  N   UNL     1      -0.422   1.256   2.522  0.00  0.00    -0.178 NA
ATOM      2  H   UNL     1       0.250   1.863   2.869  0.00  0.00    +0.149 HD
ENDROOT
BRANCH   1   3
ATOM      3  S   UNL     1      -1.896   1.838   2.042  0.00  0.00    +0.059 S 
ATOM      4  O   UNL     1      -1.886   3.235   2.304  0.00  0.00    -0.153 OA
ATOM      5  O   UNL     1      -2.141   1.307   0.747  0.00  0.00    -0.153 OA
BRANCH   3   6
ATOM      6  C   UNL     1      -3.107   1.135   3.112  0.00  0.00    +0.107 A 
ATOM      7  C   UNL     1      -3.701  -0.070   2.786  0.00  0.00    +0.028 A 
ATOM      8  C   UNL     1      -4.651  -0.621   3.625  0.00  0.00    +0.004 A 
ATOM      9  C   UNL     1      -5.008   0.033   4.790  0.00  0.00    +0.033 A 
ATOM     10  C   UNL     1      -4.413   1.237   5.116  0.00  0.00    +0.128 A 
ATOM     11  C   UNL     1      -3.460   1.786   4.279  0.00  0.00    +0.061 A 
BRANCH  10  12
ATOM     12  N   UNL     1      -4.795   1.937   6.363  0.00  0.00    +0.056 N 
ATOM     13  O   UNL     1      -5.627   1.455   7.097  0.00  0.00    -0.126 OA
ATOM     14  O   UNL     1      -4.275   2.991   6.648  0.00  0.00    -0.126 OA
ENDBRANCH  10  12
ENDBRANCH   3   6
ENDBRANCH   1   3
BRANCH   1  15
ATOM     15  C   UNL     1      -0.133  -0.177   2.423  0.00  0.00    +0.162 C 
BRANCH  15  16
ATOM     16  C   UNL     1       0.716  -0.601   3.594  0.00  0.00    +0.234 C 
ATOM     17  O   UNL     1       1.219   0.237   4.312  0.00  0.00    -0.274 OA
ATOM     18  N   UNL     1       0.915  -1.910   3.843  0.00  0.00    -0.296 N 
ATOM     19  C   UNL     1       0.395  -2.942   2.932  0.00  0.00    +0.136 C 
ATOM     20  C   UNL     1       1.537  -3.905   2.590  0.00  0.00    +0.179 C 
ATOM     21  O   UNL     1       2.138  -4.371   3.800  0.00  0.00    -0.377 OA
ATOM     22  C   UNL     1       2.740  -3.342   4.589  0.00  0.00    +0.179 C 
ATOM     23  C   UNL     1       1.664  -2.350   5.030  0.00  0.00    +0.136 C 
ENDBRANCH  15  16
BRANCH  15  24
ATOM     24  C   UNL     1       0.619  -0.456   1.120  0.00  0.00    +0.032 C 
BRANCH  24  26
ATOM     25  C   UNL     1       2.947  -0.271   2.007  0.00  0.00    +0.007 C 
ATOM     26  C   UNL     1       1.906   0.370   1.087  0.00  0.00    -0.015 C 
ATOM     27  C   UNL     1       2.448   0.414  -0.343  0.00  0.00    +0.007 C 
ENDBRANCH  24  26
ENDBRANCH  15  24
ENDBRANCH   1  15
TORSDOF 7
