REMARK  Name = ZINC10108578
REMARK  12 active torsions:
REMARK  status: ('A' for Active; 'I' for Inactive)
REMARK    1  A    between atoms: C_1  and  C_2
REMARK    2  A    between atoms: N_9  and  C_10
REMARK    3  A    between atoms: C_15  and  O_16
REMARK    4  A    between atoms: O_16  and  C_17
REMARK    5  A    between atoms: N_18  and  C_38
REMARK    6  A    between atoms: N_21  and  C_24
REMARK    7  A    between atoms: C_24  and  C_25
REMARK    8  A    between atoms: C_25  and  C_27
REMARK    9  A    between atoms: C_25  and  C_28
REMARK   10  A    between atoms: C_28  and  N_72
REMARK   11  A    between atoms: C_30  and  C_37
REMARK   12  A    between atoms: C_33  and  C_36
REMARK                            x       y       z     vdW  Elec       q    Type
REMARK                         _______ _______ _______ _____ _____    ______ ____
ROOT
ATOM      1  C   UNL     1      -0.013   1.086   0.008  0.00  0.00    +0.065 C 
ATOM      2  C   UNL     1      -0.718   1.572   1.248  0.00  0.00    +0.041 A 
ATOM      3  C   UNL     1      -2.020   1.819   1.358  0.00  0.00    +0.116 A 
ATOM      4  N   UNL     1      -2.276   2.243   2.651  0.00  0.00    -0.277 N 
ATOM      5  C   UNL     1      -3.260   2.665   3.531  0.00  0.00    +0.157 A 
ATOM      6  C   UNL     1      -2.617   2.927   4.741  0.00  0.00    +0.170 A 
ATOM      7  N   UNL     1      -1.324   2.669   4.570  0.00  0.00    -0.193 NA
ATOM      8  C   UNL     1      -1.104   2.260   3.329  0.00  0.00    +0.223 A 
ATOM      9  N   UNL     1      -0.122   1.844   2.466  0.00  0.00    -0.279 N 
ATOM     10  N   UNL     1      -3.373   3.371   5.816  0.00  0.00    -0.279 N 
ATOM     11  C   UNL     1      -4.702   3.542   5.679  0.00  0.00    +0.333 A 
ATOM     12  O   UNL     1      -5.350   3.933   6.631  0.00  0.00    -0.246 OA
ATOM     13  N   UNL     1      -5.329   3.292   4.517  0.00  0.00    -0.259 N 
ATOM     14  C   UNL     1      -4.648   2.858   3.437  0.00  0.00    +0.283 A 
ATOM     15  O   UNL     1      -5.231   2.636   2.390  0.00  0.00    -0.265 OA
ATOM     16  C   UNL     1      -2.726   3.655   7.099  0.00  0.00    +0.155 C 
ENDROOT
BRANCH   9  17
ATOM     17  C   UNL     1       1.241   1.716   2.766  0.00  0.00    +0.091 A 
ATOM     18  C   UNL     1       2.099   2.789   2.573  0.00  0.00    +0.030 A 
ATOM     19  C   UNL     1       3.443   2.661   2.869  0.00  0.00    +0.002 A 
ATOM     20  C   UNL     1       3.936   1.466   3.359  0.00  0.00    +0.004 A 
ATOM     21  C   UNL     1       3.087   0.392   3.554  0.00  0.00    +0.048 A 
ATOM     22  C   UNL     1       1.738   0.513   3.264  0.00  0.00    +0.144 A 
BRANCH  22  23
ATOM     23  O   UNL     1       0.901  -0.540   3.460  0.00  0.00    -0.493 OA
ATOM     24  C   UNL     1       1.480  -1.742   3.973  0.00  0.00    +0.277 C 
ENDBRANCH  22  23
ENDBRANCH   9  17
BRANCH  13  25
ATOM     25  C   UNL     1      -6.777   3.495   4.422  0.00  0.00    +0.131 C 
BRANCH  25  26
ATOM     26  C   UNL     1      -7.063   4.931   3.978  0.00  0.00    -0.011 C 
ATOM     27  C   UNL     1      -6.531   5.141   2.559  0.00  0.00    +0.007 C 
BRANCH  26  28
ATOM     28  C   UNL     1      -8.573   5.180   3.999  0.00  0.00    -0.074 C 
BRANCH  28  36
ATOM     29  C   UNL     1      -8.322   7.469   4.744  0.00  0.00    -0.076 C 
ATOM     30  C   UNL     1      -8.488   8.930   4.321  0.00  0.00    -0.031 C 
ATOM     31  C   UNL     1      -9.970   9.220   4.073  0.00  0.00    +0.003 C 
ATOM     32  C   UNL     1     -10.498   8.259   3.004  0.00  0.00    -0.031 C 
ATOM     33  C   UNL     1     -10.274   6.817   3.466  0.00  0.00    -0.076 C 
ATOM     34  C   UNL     1     -11.994   8.501   2.794  0.00  0.00    +0.005 C 
ATOM     35  C   UNL     1      -7.696   9.183   3.036  0.00  0.00    +0.005 C 
ATOM     36  N   UNL     1      -8.826   6.596   3.663  0.00  0.00    +0.380 N 
ATOM     37  H   UNL     1      -8.333   6.826   2.792  0.00  0.00    -0.082 HD
ENDBRANCH  28  36
ENDBRANCH  26  28
ENDBRANCH  25  26
ENDBRANCH  13  25
TORSDOF 6
