REMARK  Name = ZINC63137956
REMARK  7 active torsions:
REMARK  status: ('A' for Active; 'I' for Inactive)
REMARK    1  A    between atoms: C_1  and  C_2
REMARK    2  A    between atoms: C_6  and  C_8
REMARK    3  A    between atoms: N_27  and  C_30
REMARK    4  A    between atoms: C_30  and  C_31
REMARK    5  A    between atoms: C_31  and  C_32
REMARK    6  A    between atoms: C_32  and  O_33
REMARK    7  A    between atoms: O_33  and  C_34
REMARK                            x       y       z     vdW  Elec       q    Type
REMARK                         _______ _______ _______ _____ _____    ______ ____
ROOT
ATOM      1  C   UNL     1       0.054  -2.845   2.489  0.00  0.00    +0.133 C 
ATOM      2  C   UNL     1      -1.372  -3.252   2.870  0.00  0.00    +0.131 C 
ATOM      3  C   UNL     1      -1.253  -4.234   4.028  0.00  0.00    -0.034 C 
ATOM      4  C   UNL     1      -1.986  -3.738   5.018  0.00  0.00    -0.001 A 
ATOM      5  C   UNL     1      -2.316  -4.265   6.351  0.00  0.00    +0.010 A 
ATOM      6  C   UNL     1      -3.099  -3.474   7.132  0.00  0.00    +0.001 A 
ATOM      7  C   UNL     1      -3.580  -2.227   6.724  0.00  0.00    +0.002 A 
ATOM      8  C   UNL     1      -3.331  -1.667   5.513  0.00  0.00    +0.026 A 
ATOM      9  C   UNL     1      -2.523  -2.406   4.602  0.00  0.00    +0.043 A 
ATOM     10  N   UNL     1      -2.150  -2.117   3.369  0.00  0.00    -0.375 N 
ATOM     11  C   UNL     1      -0.370  -5.457   3.963  0.00  0.00    +0.065 C 
ATOM     12  C   UNL     1       1.010  -4.976   3.478  0.00  0.00    +0.167 C 
ATOM     13  N   UNL     1       0.851  -4.082   2.336  0.00  0.00    -0.279 N 
ATOM     14  C   UNL     1       1.396  -4.333   1.140  0.00  0.00    +0.234 C 
ATOM     15  O   UNL     1       1.188  -3.538   0.248  0.00  0.00    -0.274 OA
ATOM     16  C   UNL     1       2.243  -5.521   0.826  0.00  0.00    +0.203 C 
ATOM     17  N   UNL     1       2.422  -6.389   1.978  0.00  0.00    -0.291 N 
ATOM     18  C   UNL     1       1.872  -6.156   3.169  0.00  0.00    +0.237 C 
ATOM     19  O   UNL     1       2.089  -6.949   4.060  0.00  0.00    -0.274 OA
ATOM     20  H   UNL     1      -2.346  -1.303   2.878  0.00  0.00    +0.160 HD
ENDROOT
BRANCH   1  26
ATOM     21  C   UNL     1       1.955   0.708  -0.479  0.00  0.00    +0.044 C 
ATOM     22  C   UNL     1       0.947  -0.384  -0.232  0.00  0.00    -0.050 A 
ATOM     23  C   UNL     1       0.006  -0.688  -1.199  0.00  0.00    +0.003 A 
ATOM     24  C   UNL     1      -0.919  -1.689  -0.972  0.00  0.00    +0.001 A 
ATOM     25  C   UNL     1      -0.903  -2.388   0.222  0.00  0.00    +0.005 A 
ATOM     26  C   UNL     1       0.037  -2.084   1.188  0.00  0.00    -0.024 A 
ATOM     27  C   UNL     1       0.965  -1.085   0.959  0.00  0.00    +0.009 A 
ENDBRANCH   1  26
BRANCH  17  28
ATOM     28  C   UNL     1       3.249  -7.588   1.821  0.00  0.00    +0.110 C 
BRANCH  28  29
ATOM     29  C   UNL     1       4.704  -7.250   2.153  0.00  0.00    +0.047 C 
BRANCH  29  30
ATOM     30  C   UNL     1       5.568  -8.502   1.988  0.00  0.00    +0.161 C 
BRANCH  30  31
ATOM     31  O   UNL     1       6.927  -8.187   2.298  0.00  0.00    -0.383 OA
ATOM     32  C   UNL     1       7.823  -9.294   2.175  0.00  0.00    +0.193 C 
ENDBRANCH  30  31
ENDBRANCH  29  30
ENDBRANCH  28  29
ENDBRANCH  17  28
TORSDOF 5
