REMARK  Name = ZINC02765200
REMARK  8 active torsions:
REMARK  status: ('A' for Active; 'I' for Inactive)
REMARK    1  A    between atoms: C_1  and  C_2
REMARK    2  A    between atoms: C_7  and  C_12
REMARK    3  A    between atoms: N_14  and  N_15
REMARK    4  A    between atoms: N_15  and  C_16
REMARK    5  A    between atoms: C_16  and  N_18
REMARK    6  A    between atoms: N_18  and  C_19
REMARK    7  A    between atoms: C_19  and  C_21
REMARK    8  A    between atoms: C_19  and  C_22
REMARK                            x       y       z     vdW  Elec       q    Type
REMARK                         _______ _______ _______ _____ _____    ______ ____
ROOT
ATOM      1  C   UNL     1      -1.248  -0.781   0.009  0.00  0.00    +0.261 C 
ATOM      2  O   UNL     1      -1.209  -1.997   0.002  0.00  0.00    -0.269 OA
ATOM      3  N   UNL     1      -2.436  -0.145   0.024  0.00  0.00    -0.231 N 
ATOM      4  H   UNL     1      -2.468   0.824   0.030  0.00  0.00    +0.173 HD
ENDROOT
BRANCH   1  10
ATOM      5  C   UNL     1       5.324  -2.218   0.033  0.00  0.00    +0.008 C 
ATOM      6  C   UNL     1       3.912  -1.710   0.334  0.00  0.00    -0.009 C 
ATOM      7  C   UNL     1       2.895  -2.497  -0.498  0.00  0.00    +0.008 C 
ATOM      8  C   UNL     1       1.476  -2.176  -0.025  0.00  0.00    +0.037 C 
ATOM      9  C   UNL     1       1.294  -0.664  -0.014  0.00  0.00    -0.025 A 
ATOM     10  C   UNL     1       0.002  -0.004   0.002  0.00  0.00    +0.049 A 
ATOM     11  C   UNL     1      -0.017   1.373   0.010  0.00  0.00    +0.058 A 
ATOM     12  S   UNL     1       1.665   1.793  -0.004  0.00  0.00    -0.101 S 
ATOM     13  C   UNL     1       2.362   0.166  -0.019  0.00  0.00    -0.006 A 
ATOM     14  C   UNL     1       3.808  -0.223  -0.035  0.00  0.00    +0.046 C 
ENDBRANCH   1  10
BRANCH   3  15
ATOM     15  N   UNL     1      -3.626  -0.885   0.031  0.00  0.00    -0.246 N 
ATOM     16  H   UNL     1      -3.595  -1.855   0.025  0.00  0.00    +0.172 HD
BRANCH  15  17
ATOM     17  C   UNL     1      -4.815  -0.249   0.046  0.00  0.00    +0.147 C 
ATOM     18  S   UNL     1      -6.269  -1.153   0.055  0.00  0.00    -0.017 S 
BRANCH  17  19
ATOM     19  N   UNL     1      -4.858   1.098   0.054  0.00  0.00    -0.319 N 
ATOM     20  H   UNL     1      -4.035   1.610   0.049  0.00  0.00    +0.148 HD
BRANCH  19  21
ATOM     21  C   UNL     1      -6.150   1.788   0.070  0.00  0.00    +0.099 C 
ATOM     22  C   UNL     1      -6.646   1.910   1.513  0.00  0.00    +0.033 C 
BRANCH  21  23
ATOM     23  C   UNL     1      -5.992   3.164  -0.524  0.00  0.00    -0.028 A 
ATOM     24  C   UNL     1      -4.870   3.918  -0.233  0.00  0.00    +0.005 A 
ATOM     25  C   UNL     1      -4.722   5.178  -0.781  0.00  0.00    +0.000 A 
ATOM     26  C   UNL     1      -5.701   5.689  -1.613  0.00  0.00    +0.000 A 
ATOM     27  C   UNL     1      -6.825   4.937  -1.900  0.00  0.00    +0.000 A 
ATOM     28  C   UNL     1      -6.971   3.675  -1.355  0.00  0.00    +0.005 A 
ENDBRANCH  21  23
ENDBRANCH  19  21
ENDBRANCH  17  19
ENDBRANCH  15  17
ENDBRANCH   3  15
TORSDOF 6
