REMARK  Name = ZINC61594909
REMARK  9 active torsions:
REMARK  status: ('A' for Active; 'I' for Inactive)
REMARK    1  A    between atoms: C_1  and  C_2
REMARK    2  A    between atoms: C_2  and  C_3
REMARK    3  A    between atoms: C_3  and  N_4
REMARK    4  A    between atoms: C_10  and  S_11
REMARK    5  A    between atoms: S_11  and  C_12
REMARK    6  A    between atoms: C_12  and  C_14
REMARK    7  A    between atoms: C_12  and  C_21
REMARK    8  A    between atoms: C_21  and  C_23
REMARK    9  A    between atoms: C_21  and  N_24
REMARK                            x       y       z     vdW  Elec       q    Type
REMARK                         _______ _______ _______ _____ _____    ______ ____
ROOT
ATOM      1  C   UNL     1       3.843  -3.639  -0.418  0.00  0.00    +0.069 C 
ENDROOT
BRANCH   1   2
ATOM      2  C   UNL     1       4.975  -3.106  -1.259  0.00  0.00    -0.036 A 
ATOM      3  C   UNL     1       5.956  -2.323  -0.680  0.00  0.00    +0.006 A 
ATOM      4  C   UNL     1       6.994  -1.834  -1.451  0.00  0.00    +0.015 A 
ATOM      5  C   UNL     1       7.051  -2.128  -2.801  0.00  0.00    +0.018 A 
ATOM      6  C   UNL     1       6.069  -2.912  -3.380  0.00  0.00    +0.015 A 
ATOM      7  C   UNL     1       5.034  -3.405  -2.607  0.00  0.00    +0.006 A 
ATOM      8 BR   UNL     1       8.471  -1.459  -3.856  0.00  0.00    -0.050 Br
ENDBRANCH   1   2
BRANCH   1   9
ATOM      9  C   UNL     1       4.343  -4.817   0.421  0.00  0.00    -0.060 C 
ATOM     10  C   UNL     1       5.416  -4.330   1.396  0.00  0.00    -0.013 C 
BRANCH   9  11
ATOM     11  N   UNL     1       4.914  -5.841  -0.464  0.00  0.00    +0.381 N 
ATOM     12  H   UNL     1       5.738  -5.474  -0.915  0.00  0.00    -0.090 HD
ATOM     13  H   UNL     1       5.163  -6.654   0.080  0.00  0.00    -0.090 HD
ATOM     14  H   UNL     1       4.234  -6.099  -1.163  0.00  0.00    -0.090 HD
ENDBRANCH   9  11
ENDBRANCH   1   9
BRANCH   1  15
ATOM     15  S   UNL     1       3.236  -2.329   0.679  0.00  0.00    -0.080 S 
BRANCH  15  22
ATOM     16  N   UNL     1       1.021  -2.431   2.386  0.00  0.00    -0.271 N 
ATOM     17  C   UNL     1      -0.007  -3.255   2.674  0.00  0.00    +0.345 A 
ATOM     18  O   UNL     1      -0.883  -3.052   3.495  0.00  0.00    -0.245 OA
ATOM     19  N   UNL     1       0.111  -4.344   1.886  0.00  0.00    -0.226 N 
ATOM     20  H   UNL     1      -0.486  -5.108   1.870  0.00  0.00    +0.194 HD
ATOM     21  N   UNL     1       1.255  -4.167   1.095  0.00  0.00    -0.145 NA
ATOM     22  C   UNL     1       1.784  -3.018   1.401  0.00  0.00    +0.193 A 
BRANCH  16  23
ATOM     23  C   UNL     1       1.279  -1.131   3.011  0.00  0.00    +0.129 C 
BRANCH  23  25
ATOM     24  C   UNL     1       0.833   1.323   2.873  0.00  0.00    +0.005 C 
ATOM     25  C   UNL     1       0.563  -0.035   2.220  0.00  0.00    +0.018 C 
ENDBRANCH  23  25
ENDBRANCH  16  23
ENDBRANCH  15  22
ENDBRANCH   1  15
TORSDOF 7
