REMARK  Name = ZINC36347731
REMARK  6 active torsions:
REMARK  status: ('A' for Active; 'I' for Inactive)
REMARK    1  A    between atoms: C_1  and  O_2
REMARK    2  A    between atoms: O_2  and  C_3
REMARK    3  A    between atoms: C_8  and  C_9
REMARK    4  A    between atoms: N_19  and  C_20
REMARK    5  A    between atoms: C_20  and  C_21
REMARK    6  A    between atoms: C_26  and  O_27
REMARK                            x       y       z     vdW  Elec       q    Type
REMARK                         _______ _______ _______ _____ _____    ______ ____
ROOT
ATOM      1  C   UNL     1       0.107  -2.818   0.120  0.00  0.00    +0.014 C 
ATOM      2  C   UNL     1      -1.388  -2.823  -0.083  0.00  0.00    +0.010 A 
ATOM      3  C   UNL     1      -2.138  -1.786  -0.504  0.00  0.00    +0.021 A 
ATOM      4  C   UNL     1      -3.478  -2.219  -0.537  0.00  0.00    +0.019 A 
ATOM      5  C   UNL     1      -3.496  -3.508  -0.139  0.00  0.00    +0.086 A 
ATOM      6  N   UNL     1      -2.217  -3.887   0.133  0.00  0.00    -0.352 N 
ATOM      7  C   UNL     1      -1.776  -5.216   0.572  0.00  0.00    +0.119 C 
ATOM      8  C   UNL     1      -0.798  -5.056   1.739  0.00  0.00    +0.003 C 
ATOM      9  C   UNL     1       0.620  -4.902   1.204  0.00  0.00    -0.075 C 
ATOM     10  N   UNL     1       0.627  -4.179  -0.069  0.00  0.00    +0.391 N 
ATOM     11  H   UNL     1       0.049  -4.669  -0.735  0.00  0.00    -0.080 HD
ENDROOT
BRANCH   1  17
ATOM     12  C   UNL     1       1.414  -0.754  -0.447  0.00  0.00    +0.122 A 
ATOM     13  C   UNL     1       2.007   0.095  -1.370  0.00  0.00    +0.046 A 
ATOM     14  C   UNL     1       1.929  -0.192  -2.719  0.00  0.00    +0.004 A 
ATOM     15  C   UNL     1       1.260  -1.323  -3.150  0.00  0.00    +0.000 A 
ATOM     16  C   UNL     1       0.667  -2.170  -2.232  0.00  0.00    +0.006 A 
ATOM     17  C   UNL     1       0.748  -1.891  -0.881  0.00  0.00    -0.014 A 
BRANCH  12  19
ATOM     18  C   UNL     1       2.191   0.712   1.255  0.00  0.00    +0.277 C 
ATOM     19  O   UNL     1       1.490  -0.475   0.881  0.00  0.00    -0.495 OA
ENDBRANCH  12  19
ENDBRANCH   1  17
BRANCH  10  20
ATOM     20  C   UNL     1       2.002  -4.109  -0.582  0.00  0.00    -0.038 C 
BRANCH  20  21
ATOM     21  C   UNL     1       2.510  -5.502  -0.852  0.00  0.00    -0.022 A 
ATOM     22  C   UNL     1       3.333  -6.127   0.064  0.00  0.00    +0.005 A 
ATOM     23  C   UNL     1       3.800  -7.405  -0.183  0.00  0.00    +0.000 A 
ATOM     24  C   UNL     1       3.443  -8.060  -1.348  0.00  0.00    +0.004 A 
ATOM     25  C   UNL     1       2.619  -7.439  -2.266  0.00  0.00    +0.045 A 
ATOM     26  C   UNL     1       2.146  -6.159  -2.018  0.00  0.00    +0.118 A 
BRANCH  26  27
ATOM     27  O   UNL     1       1.331  -5.548  -2.918  0.00  0.00    -0.507 OA
ATOM     28  H   UNL     1       1.801  -5.034  -3.589  0.00  0.00    +0.292 HD
ENDBRANCH  26  27
ENDBRANCH  20  21
ENDBRANCH  10  20
TORSDOF 5
