REMARK  Name = ZINC08909003
REMARK  6 active torsions:
REMARK  status: ('A' for Active; 'I' for Inactive)
REMARK    1  A    between atoms: C_5  and  O_7
REMARK    2  A    between atoms: O_7  and  C_8
REMARK    3  A    between atoms: C_8  and  C_9
REMARK    4  A    between atoms: N_11  and  C_12
REMARK    5  A    between atoms: C_15  and  C_18
REMARK    6  A    between atoms: C_21  and  C_23
REMARK                            x       y       z     vdW  Elec       q    Type
REMARK                         _______ _______ _______ _____ _____    ______ ____
ROOT
ATOM      1  C   UNL     1      -2.362   1.111  -0.073  0.00  0.00    +0.034 A 
ATOM      2  C   UNL     1      -2.293  -0.278  -0.079  0.00  0.00    +0.024 A 
ATOM      3  C   UNL     1      -3.446  -1.027  -0.164  0.00  0.00    +0.015 A 
ATOM      4  C   UNL     1      -4.686  -0.389  -0.255  0.00  0.00    +0.039 A 
ATOM      5  C   UNL     1      -4.751   1.007  -0.254  0.00  0.00    +0.015 A 
ATOM      6  C   UNL     1      -3.594   1.749  -0.164  0.00  0.00    +0.024 A 
ENDROOT
BRANCH   4   7
ATOM      7  C   UNL     1      -5.923  -1.188  -0.351  0.00  0.00    +0.249 A 
ATOM      8  N   UNL     1      -7.147  -0.717  -0.441  0.00  0.00    -0.107 NA
ATOM      9  N   UNL     1      -7.979  -1.697  -0.508  0.00  0.00    -0.104 NA
ATOM     10  C   UNL     1      -7.318  -2.835  -0.463  0.00  0.00    +0.284 A 
ATOM     11  O   UNL     1      -6.005  -2.535  -0.368  0.00  0.00    -0.413 OA
BRANCH  10  12
ATOM     12  C   UNL     1      -7.901  -4.182  -0.513  0.00  0.00    +0.191 A 
ATOM     13  C   UNL     1      -9.229  -4.477  -0.614  0.00  0.00    +0.055 A 
ATOM     14  C   UNL     1      -9.332  -5.880  -0.628  0.00  0.00    +0.042 A 
ATOM     15  C   UNL     1      -8.079  -6.370  -0.536  0.00  0.00    +0.196 A 
ATOM     16  O   UNL     1      -7.217  -5.343  -0.473  0.00  0.00    -0.458 OA
ENDBRANCH  10  12
ENDBRANCH   4   7
BRANCH   1  19
ATOM     17  C   UNL     1      -0.148   1.409   0.738  0.00  0.00    +0.255 C 
ATOM     18  O   UNL     1      -0.258   0.389   1.385  0.00  0.00    -0.272 OA
ATOM     19  N   UNL     1      -1.191   1.867   0.018  0.00  0.00    -0.283 N 
ATOM     20  H   UNL     1      -1.128   2.721  -0.438  0.00  0.00    +0.155 HD
BRANCH  17  21
ATOM     21  C   UNL     1       1.158   2.162   0.736  0.00  0.00    +0.324 C 
BRANCH  21  22
ATOM     22  O   UNL     1       2.103   1.479   1.563  0.00  0.00    -0.482 OA
BRANCH  22  27
ATOM     23  C   UNL     1       4.899   3.762   1.102  0.00  0.00    +0.004 A 
ATOM     24  C   UNL     1       5.860   3.153   1.887  0.00  0.00    +0.001 A 
ATOM     25  C   UNL     1       5.566   1.984   2.563  0.00  0.00    +0.019 A 
ATOM     26  C   UNL     1       4.308   1.421   2.457  0.00  0.00    +0.059 A 
ATOM     27  C   UNL     1       3.341   2.030   1.670  0.00  0.00    +0.135 A 
ATOM     28  C   UNL     1       3.642   3.201   0.988  0.00  0.00    +0.047 A 
ATOM     29 BR   UNL     1       3.905  -0.179   3.381  0.00  0.00    -0.047 Br
ENDBRANCH  22  27
ENDBRANCH  21  22
ENDBRANCH  17  21
ENDBRANCH   1  19
TORSDOF 6
