REMARK  Name = ZINC22677180
REMARK  9 active torsions:
REMARK  status: ('A' for Active; 'I' for Inactive)
REMARK    1  A    between atoms: C_1  and  C_2
REMARK    2  A    between atoms: C_3  and  C_7
REMARK    3  A    between atoms: C_10  and  S_13
REMARK    4  A    between atoms: N_11  and  N_12
REMARK    5  A    between atoms: S_13  and  C_14
REMARK    6  A    between atoms: C_14  and  C_15
REMARK    7  A    between atoms: N_17  and  C_18
REMARK    8  A    between atoms: C_18  and  C_20
REMARK    9  A    between atoms: C_18  and  C_21
REMARK                            x       y       z     vdW  Elec       q    Type
REMARK                         _______ _______ _______ _____ _____    ______ ____
ROOT
ATOM      1  S   UNL     1      -0.418   1.969   0.923  0.00  0.00    -0.075 S 
ENDROOT
BRANCH   1   5
ATOM      2  C   UNL     1       3.098   3.533   1.605  0.00  0.00    +0.185 A 
ATOM      3  N   UNL     1       3.369   2.255   1.480  0.00  0.00    -0.127 NA
ATOM      4  N   UNL     1       2.290   1.597   1.248  0.00  0.00    -0.121 NA
ATOM      5  C   UNL     1       1.263   2.415   1.210  0.00  0.00    +0.209 A 
ATOM      6  N   UNL     1       1.741   3.676   1.430  0.00  0.00    -0.224 N 
BRANCH   2   9
ATOM      7  C   UNL     1       6.190   3.199   2.001  0.00  0.00    +0.087 C 
ATOM      8  C   UNL     1       5.412   4.489   2.050  0.00  0.00    +0.112 A 
ATOM      9  C   UNL     1       4.069   4.615   1.875  0.00  0.00    +0.061 A 
ATOM     10  C   UNL     1       3.782   6.048   2.018  0.00  0.00    +0.053 A 
ATOM     11  C   UNL     1       4.964   6.641   2.256  0.00  0.00    +0.196 A 
ATOM     12  O   UNL     1       5.927   5.707   2.271  0.00  0.00    -0.467 OA
ENDBRANCH   2   9
BRANCH   6  13
ATOM     13  N   UNL     1       1.022   4.837   1.472  0.00  0.00    -0.295 N 
ATOM     14  H   UNL     1      -0.067   4.815   1.315  0.00  0.00    +0.163 HD
ATOM     15  H   UNL     1       1.531   5.793   1.661  0.00  0.00    +0.163 HD
ENDBRANCH   6  13
ENDBRANCH   1   5
BRANCH   1  16
ATOM     16  C   UNL     1      -0.238   0.179   0.721  0.00  0.00    +0.173 C 
BRANCH  16  17
ATOM     17  C   UNL     1      -1.589  -0.434   0.458  0.00  0.00    +0.224 C 
ATOM     18  O   UNL     1      -2.576   0.269   0.411  0.00  0.00    -0.275 OA
ATOM     19  N   UNL     1      -1.701  -1.765   0.274  0.00  0.00    -0.308 N 
ATOM     20  H   UNL     1      -0.806  -2.403   0.317  0.00  0.00    +0.149 HD
BRANCH  19  21
ATOM     21  C   UNL     1      -3.014  -2.361   0.018  0.00  0.00    +0.102 C 
ATOM     22  C   UNL     1      -3.307  -2.325  -1.483  0.00  0.00    +0.033 C 
BRANCH  21  23
ATOM     23  C   UNL     1      -3.019  -3.790   0.496  0.00  0.00    -0.009 A 
ATOM     24  C   UNL     1      -1.838  -4.506   0.545  0.00  0.00    +0.008 A 
ATOM     25  C   UNL     1      -1.840  -5.815   0.989  0.00  0.00    +0.020 A 
ATOM     26  C   UNL     1      -3.027  -6.413   1.374  0.00  0.00    +0.042 A 
ATOM     27  C   UNL     1      -4.210  -5.699   1.321  0.00  0.00    +0.040 A 
ATOM     28  C   UNL     1      -4.206  -4.387   0.882  0.00  0.00    +0.047 A 
ATOM     29 CL   UNL     1      -5.691  -3.489   0.814  0.00  0.00    -0.083 Cl
ATOM     30 CL   UNL     1      -3.031  -8.059   1.926  0.00  0.00    -0.083 Cl
ENDBRANCH  21  23
ENDBRANCH  19  21
ENDBRANCH  16  17
ENDBRANCH   1  16
TORSDOF 7
