REMARK  Name = ZINC42858778
REMARK  6 active torsions:
REMARK  status: ('A' for Active; 'I' for Inactive)
REMARK    1  A    between atoms: C_1  and  C_2
REMARK    2  A    between atoms: C_8  and  C_10
REMARK    3  A    between atoms: C_10  and  N_11
REMARK    4  A    between atoms: N_11  and  S_12
REMARK    5  A    between atoms: S_12  and  C_15
REMARK    6  A    between atoms: C_18  and  N_22
REMARK                            x       y       z     vdW  Elec       q    Type
REMARK                         _______ _______ _______ _____ _____    ______ ____
ROOT
ATOM      1  S   UNL     1       0.452   0.105   5.168  0.00  0.00    +0.059 S 
ATOM      2  O   UNL     1       1.260  -0.512   6.162  0.00  0.00    -0.153 OA
ATOM      3  O   UNL     1       0.564   1.484   4.844  0.00  0.00    -0.153 OA
ENDROOT
BRANCH   1   4
ATOM      4  C   UNL     1      -1.223  -0.168   5.641  0.00  0.00    +0.119 A 
ATOM      5  C   UNL     1      -2.111   0.892   5.677  0.00  0.00    +0.031 A 
ATOM      6  C   UNL     1      -3.425   0.683   6.047  0.00  0.00    +0.025 A 
ATOM      7  C   UNL     1      -3.855  -0.595   6.384  0.00  0.00    +0.026 A 
ATOM      8  C   UNL     1      -2.962  -1.657   6.347  0.00  0.00    +0.040 A 
ATOM      9  C   UNL     1      -1.649  -1.442   5.970  0.00  0.00    +0.046 A 
ATOM     10 BR   UNL     1      -0.433  -2.889   5.912  0.00  0.00    -0.048 Br
BRANCH   7  11
ATOM     11  N   UNL     1      -5.183  -0.810   6.760  0.00  0.00    -0.358 N 
ATOM     12  H   UNL     1      -5.806  -0.067   6.786  0.00  0.00    +0.142 HD
ATOM     13  H   UNL     1      -5.482  -1.702   6.995  0.00  0.00    +0.142 HD
ENDBRANCH   7  11
ENDBRANCH   1   4
BRANCH   1  14
ATOM     14  N   UNL     1       0.707  -0.734   3.763  0.00  0.00    -0.190 NA
ATOM     15  H   UNL     1       1.335  -1.473   3.747  0.00  0.00    +0.148 HD
BRANCH  14  16
ATOM     16  C   UNL     1      -0.017  -0.360   2.546  0.00  0.00    +0.109 C 
BRANCH  16  23
ATOM     17  C   UNL     1      -0.263   0.799  -0.134  0.00  0.00    +0.008 C 
ATOM     18  C   UNL     1      -0.164  -0.713   0.076  0.00  0.00    -0.010 C 
ATOM     19  C   UNL     1       0.514  -1.353  -1.137  0.00  0.00    +0.003 C 
ATOM     20  C   UNL     1       1.918  -0.768  -1.304  0.00  0.00    +0.000 C 
ATOM     21  C   UNL     1       2.743  -1.055  -0.048  0.00  0.00    +0.000 C 
ATOM     22  C   UNL     1       2.065  -0.415   1.165  0.00  0.00    +0.005 C 
ATOM     23  C   UNL     1       0.661  -1.000   1.333  0.00  0.00    +0.007 C 
ENDBRANCH  16  23
ENDBRANCH  14  16
ENDBRANCH   1  14
TORSDOF 5
