REMARK  Name = ZINC09046425
REMARK  14 active torsions:
REMARK  status: ('A' for Active; 'I' for Inactive)
REMARK    1  A    between atoms: C_1  and  C_2
REMARK    2  A    between atoms: C_2  and  N_66
REMARK    3  A    between atoms: C_3  and  C_4
REMARK    4  A    between atoms: C_3  and  N_66
REMARK    5  A    between atoms: C_5  and  C_6
REMARK    6  A    between atoms: C_5  and  N_66
REMARK    7  A    between atoms: C_6  and  N_7
REMARK    8  A    between atoms: C_8  and  C_24
REMARK    9  A    between atoms: C_11  and  C_12
REMARK   10  A    between atoms: C_11  and  O_19
REMARK   11  A    between atoms: C_27  and  C_30
REMARK   12  A    between atoms: C_30  and  C_31
REMARK   13  A    between atoms: C_30  and  C_32
REMARK   14  A    between atoms: C_30  and  C_33
REMARK                            x       y       z     vdW  Elec       q    Type
REMARK                         _______ _______ _______ _____ _____    ______ ____
ROOT
ATOM      1  N   UNL     1       0.804   1.733  -0.604  0.00  0.00    -0.285 N 
ATOM      2  C   UNL     1       1.727   0.596  -0.539  0.00  0.00    +0.144 C 
ATOM      3  C   UNL     1       0.882  -0.635  -0.309  0.00  0.00    +0.071 C 
ATOM      4  C   UNL     1       1.328  -1.935  -0.181  0.00  0.00    +0.133 C 
ATOM      5  C   UNL     1      -0.448  -0.190  -0.250  0.00  0.00    +0.249 C 
ATOM      6  O   UNL     1      -1.429  -0.890  -0.076  0.00  0.00    -0.282 OA
ATOM      7  C   UNL     1      -0.452   1.286  -0.438  0.00  0.00    +0.288 C 
ATOM      8  O   UNL     1      -1.445   1.984  -0.446  0.00  0.00    -0.266 OA
ENDROOT
BRANCH   4   9
ATOM      9  C   UNL     1       0.379  -3.009   0.156  0.00  0.00    +0.017 A 
ATOM     10  C   UNL     1      -0.510  -2.852   1.224  0.00  0.00    +0.013 A 
ATOM     11  C   UNL     1      -1.399  -3.860   1.531  0.00  0.00    +0.021 A 
ATOM     12  C   UNL     1      -1.407  -5.031   0.790  0.00  0.00    +0.041 A 
ATOM     13  C   UNL     1      -0.525  -5.196  -0.267  0.00  0.00    +0.021 A 
ATOM     14  C   UNL     1       0.365  -4.194  -0.588  0.00  0.00    +0.013 A 
ATOM     15 CL   UNL     1      -2.526  -6.297   1.188  0.00  0.00    -0.084 Cl
ENDBRANCH   4   9
BRANCH   2  16
ATOM     16  C   UNL     1       2.481   0.469  -1.838  0.00  0.00    -0.022 A 
ATOM     17  C   UNL     1       1.835   0.699  -3.038  0.00  0.00    +0.006 A 
ATOM     18  C   UNL     1       2.528   0.587  -4.229  0.00  0.00    +0.004 A 
ATOM     19  C   UNL     1       3.865   0.236  -4.220  0.00  0.00    -0.042 A 
ATOM     20  C   UNL     1       4.510   0.001  -3.020  0.00  0.00    +0.004 A 
ATOM     21  C   UNL     1       3.818   0.118  -1.829  0.00  0.00    +0.006 A 
BRANCH  19  22
ATOM     22  C   UNL     1       4.619   0.109  -5.519  0.00  0.00    -0.013 C 
ATOM     23  C   UNL     1       5.154  -1.318  -5.660  0.00  0.00    +0.015 C 
ATOM     24  C   UNL     1       3.680   0.419  -6.686  0.00  0.00    +0.015 C 
ATOM     25  C   UNL     1       5.788   1.096  -5.528  0.00  0.00    +0.015 C 
ENDBRANCH  19  22
ENDBRANCH   2  16
BRANCH   4  26
ATOM     26  O   UNL     1       2.634  -2.222  -0.366  0.00  0.00    -0.506 OA
ATOM     27  H   UNL     1       2.782  -3.202  -0.236  0.00  0.00    +0.292 HD
ENDBRANCH   4  26
BRANCH   1  28
ATOM     28  C   UNL     1       1.189   3.130  -0.816  0.00  0.00    +0.090 C 
BRANCH  28  29
ATOM     29  C   UNL     1       1.447   3.799   0.535  0.00  0.00    -0.060 C 
BRANCH  29  30
ATOM     30  N   UNL     1       1.855   5.201   0.303  0.00  0.00    +0.380 N 
ATOM     31  H   UNL     1       2.626   5.216  -0.374  0.00  0.00    -0.082 HD
BRANCH  30  33
ATOM     32  C   UNL     1      -0.469   5.935   0.720  0.00  0.00    -0.017 C 
ATOM     33  C   UNL     1       0.719   5.973  -0.243  0.00  0.00    -0.082 C 
ENDBRANCH  30  33
BRANCH  30  34
ATOM     34  C   UNL     1       2.316   5.809   1.569  0.00  0.00    -0.082 C 
ATOM     35  C   UNL     1       2.934   7.175   1.264  0.00  0.00    -0.017 C 
ENDBRANCH  30  34
ENDBRANCH  29  30
ENDBRANCH  28  29
ENDBRANCH   1  28
TORSDOF 9
