REMARK  Name = ZINC34787053
REMARK  7 active torsions:
REMARK  status: ('A' for Active; 'I' for Inactive)
REMARK    1  A    between atoms: C_1  and  C_2
REMARK    2  A    between atoms: C_4  and  C_32
REMARK    3  A    between atoms: C_11  and  C_17
REMARK    4  A    between atoms: C_12  and  C_16
REMARK    5  A    between atoms: N_18  and  N_19
REMARK    6  A    between atoms: N_18  and  N_26
REMARK    7  A    between atoms: N_19  and  C_20
REMARK                            x       y       z     vdW  Elec       q    Type
REMARK                         _______ _______ _______ _____ _____    ______ ____
ROOT
ATOM      1  C   UNL     1       5.698  -3.499   0.206  0.00  0.00    +0.067 C 
ATOM      2  C   UNL     1       4.217  -3.775   0.161  0.00  0.00    +0.061 A 
ATOM      3  C   UNL     1       3.470  -4.048  -0.991  0.00  0.00    +0.048 A 
ATOM      4  C   UNL     1       2.184  -4.239  -0.619  0.00  0.00    +0.045 A 
ATOM      5  N   UNL     1       2.120  -4.091   0.731  0.00  0.00    -0.202 N 
ATOM      6  N   UNL     1       3.413  -3.806   1.191  0.00  0.00    -0.169 NA
ATOM      7  C   UNL     1       0.974  -4.207   1.518  0.00  0.00    +0.254 A 
ATOM      8  N   UNL     1       1.065  -4.030   2.829  0.00  0.00    -0.192 NA
ATOM      9  C   UNL     1       0.015  -4.128   3.626  0.00  0.00    +0.164 A 
ATOM     10  C   UNL     1      -1.257  -4.432   3.067  0.00  0.00    +0.053 A 
ATOM     11  C   UNL     1      -2.545  -4.591   3.721  0.00  0.00    -0.028 A 
ATOM     12  C   UNL     1      -3.624  -4.881   2.980  0.00  0.00    -0.008 A 
ATOM     13  S   UNL     1      -2.980  -4.965   1.320  0.00  0.00    -0.073 S 
ATOM     14  C   UNL     1      -1.278  -4.607   1.666  0.00  0.00    +0.116 A 
ATOM     15  N   UNL     1      -0.184  -4.487   0.940  0.00  0.00    -0.203 NA
ATOM     16  C   UNL     1      -5.044  -5.088   3.442  0.00  0.00    +0.052 C 
ATOM     17  C   UNL     1      -2.665  -4.431   5.215  0.00  0.00    +0.045 C 
ATOM     18  N   UNL     1       0.152  -3.936   4.989  0.00  0.00    -0.178 N 
ATOM     19  C   UNL     1       1.030  -4.557  -1.534  0.00  0.00    +0.066 C 
ENDROOT
BRANCH  18  20
ATOM     20  N   UNL     1       0.394  -2.685   5.482  0.00  0.00    -0.211 NA
ATOM     21  C   UNL     1      -0.735  -1.785   5.212  0.00  0.00    +0.107 C 
ATOM     22  C   UNL     1      -0.493  -0.441   5.901  0.00  0.00    +0.017 C 
ATOM     23  C   UNL     1       0.809   0.170   5.376  0.00  0.00    +0.003 C 
ATOM     24  C   UNL     1       1.960  -0.808   5.627  0.00  0.00    +0.017 C 
ATOM     25  C   UNL     1       1.647  -2.142   4.945  0.00  0.00    +0.107 C 
ENDBRANCH  18  20
BRANCH  18  26
ATOM     26  N   UNL     1       0.044  -4.998   5.842  0.00  0.00    -0.221 NA
ATOM     27  H   UNL     1      -0.470  -5.754   5.416  0.00  0.00    +0.146 HD
BRANCH  26  28
ATOM     28  C   UNL     1       1.368  -5.449   6.291  0.00  0.00    +0.074 C 
ATOM     29  C   UNL     1       1.847  -6.594   5.396  0.00  0.00    +0.020 C 
ATOM     30  C   UNL     1       3.226  -7.064   5.864  0.00  0.00    +0.002 C 
ATOM     31  C   UNL     1       3.136  -7.550   7.311  0.00  0.00    +0.000 C 
ATOM     32  C   UNL     1       2.657  -6.405   8.206  0.00  0.00    +0.002 C 
ATOM     33  C   UNL     1       1.278  -5.935   7.738  0.00  0.00    +0.020 C 
ENDBRANCH  26  28
ENDBRANCH  18  26
TORSDOF 3
