REMARK  Name = ZINC39723631
REMARK  10 active torsions:
REMARK  status: ('A' for Active; 'I' for Inactive)
REMARK    1  A    between atoms: C_1  and  C_2
REMARK    2  A    between atoms: C_5  and  C_8
REMARK    3  A    between atoms: C_8  and  N_9
REMARK    4  A    between atoms: C_13  and  C_14
REMARK    5  A    between atoms: C_15  and  N_26
REMARK    6  A    between atoms: C_18  and  C_25
REMARK    7  A    between atoms: N_26  and  C_27
REMARK    8  A    between atoms: C_27  and  C_28
REMARK    9  A    between atoms: C_28  and  C_29
REMARK   10  A    between atoms: C_28  and  C_30
REMARK                            x       y       z     vdW  Elec       q    Type
REMARK                         _______ _______ _______ _____ _____    ______ ____
ROOT
ATOM      1  C   UNL     1       3.708  -5.542  -3.498  0.00  0.00    +0.081 A 
ATOM      2  C   UNL     1       4.469  -5.884  -4.641  0.00  0.00    +0.134 A 
ATOM      3  N   UNL     1       3.936  -5.745  -5.846  0.00  0.00    -0.214 NA
ATOM      4  C   UNL     1       2.694  -5.290  -6.014  0.00  0.00    +0.145 A 
ATOM      5  C   UNL     1       2.182  -5.165  -7.317  0.00  0.00    -0.007 A 
ATOM      6  C   UNL     1       0.913  -4.700  -7.499  0.00  0.00    +0.008 A 
ATOM      7  C   UNL     1       0.137  -4.354  -6.385  0.00  0.00    +0.019 A 
ATOM      8  C   UNL     1       0.646  -4.481  -5.138  0.00  0.00    +0.096 A 
ATOM      9  N   UNL     1       1.913  -4.945  -4.946  0.00  0.00    -0.267 N 
ATOM     10  C   UNL     1       2.389  -5.065  -3.688  0.00  0.00    +0.267 A 
ATOM     11  O   UNL     1       1.696  -4.763  -2.732  0.00  0.00    -0.267 OA
ATOM     12  C   UNL     1       3.030  -5.541  -8.505  0.00  0.00    +0.047 C 
ENDROOT
BRANCH   1  17
ATOM     13  N   UNL     1       4.649  -2.294  -0.855  0.00  0.00    -0.251 N 
ATOM     14  C   UNL     1       4.360  -3.193  -1.779  0.00  0.00    +0.259 C 
ATOM     15  O   UNL     1       3.997  -2.854  -2.891  0.00  0.00    -0.269 OA
ATOM     16  C   UNL     1       4.484  -4.570  -1.437  0.00  0.00    +0.077 C 
ATOM     17  C   UNL     1       4.250  -5.678  -2.199  0.00  0.00    +0.037 C 
ATOM     18  S   UNL     1       5.032  -4.452   0.260  0.00  0.00    -0.061 S 
ATOM     19  C   UNL     1       5.058  -2.670   0.378  0.00  0.00    +0.121 C 
ATOM     20  S   UNL     1       5.488  -1.688   1.712  0.00  0.00    -0.027 S 
BRANCH  13  21
ATOM     21  C   UNL     1       4.532  -0.869  -1.173  0.00  0.00    +0.150 C 
BRANCH  21  26
ATOM     22  C   UNL     1       9.553   1.056  -3.290  0.00  0.00    +0.044 C 
ATOM     23  C   UNL     1       8.244   0.554  -2.738  0.00  0.00    -0.050 A 
ATOM     24  C   UNL     1       7.283   0.046  -3.592  0.00  0.00    +0.003 A 
ATOM     25  C   UNL     1       6.082  -0.414  -3.086  0.00  0.00    +0.005 A 
ATOM     26  C   UNL     1       5.842  -0.367  -1.725  0.00  0.00    -0.030 A 
ATOM     27  C   UNL     1       6.803   0.140  -0.871  0.00  0.00    +0.005 A 
ATOM     28  C   UNL     1       8.006   0.596  -1.377  0.00  0.00    +0.003 A 
ENDBRANCH  21  26
ENDBRANCH  13  21
ENDBRANCH   1  17
BRANCH   2  29
ATOM     29  N   UNL     1       5.756  -6.356  -4.501  0.00  0.00    -0.328 N 
ATOM     30  H   UNL     1       6.143  -6.456  -3.617  0.00  0.00    +0.147 HD
BRANCH  29  31
ATOM     31  C   UNL     1       6.539  -6.709  -5.688  0.00  0.00    +0.106 C 
BRANCH  31  32
ATOM     32  C   UNL     1       7.922  -7.203  -5.258  0.00  0.00    -0.000 C 
ATOM     33  C   UNL     1       7.775  -8.505  -4.468  0.00  0.00    +0.009 C 
ATOM     34  C   UNL     1       8.783  -7.453  -6.497  0.00  0.00    +0.009 C 
ENDBRANCH  31  32
ENDBRANCH  29  31
ENDBRANCH   2  29
TORSDOF 6
