REMARK  Name = ZINC43259091
REMARK  7 active torsions:
REMARK  status: ('A' for Active; 'I' for Inactive)
REMARK    1  A    between atoms: C_1  and  C_2
REMARK    2  A    between atoms: C_2  and  C_3
REMARK    3  A    between atoms: C_3  and  C_5
REMARK    4  A    between atoms: C_3  and  N_22
REMARK    5  A    between atoms: C_5  and  C_7
REMARK    6  A    between atoms: C_5  and  N_13
REMARK    7  A    between atoms: C_16  and  C_19
REMARK                            x       y       z     vdW  Elec       q    Type
REMARK                         _______ _______ _______ _____ _____    ______ ____
ROOT
ATOM      1  C   UNL     1       0.849  -2.021  -1.205  0.00  0.00    +0.079 C 
ENDROOT
BRANCH   1   2
ATOM      2  C   UNL     1      -0.521  -2.645  -1.256  0.00  0.00    +0.006 A 
ATOM      3  C   UNL     1      -1.168  -3.200  -2.309  0.00  0.00    +0.014 A 
ATOM      4  C   UNL     1      -2.436  -3.718  -2.121  0.00  0.00    +0.023 A 
ATOM      5  C   UNL     1      -2.995  -3.655  -0.887  0.00  0.00    +0.055 A 
ATOM      6  S   UNL     1      -1.712  -2.852   0.059  0.00  0.00    -0.085 S 
ATOM      7 BR   UNL     1      -4.691  -4.266  -0.316  0.00  0.00    -0.043 Br
ENDBRANCH   1   2
BRANCH   1   8
ATOM      8  N   UNL     1       1.520  -2.413   0.042  0.00  0.00    -0.296 NA
ATOM      9  C   UNL     1       2.820  -1.743   0.173  0.00  0.00    +0.085 C 
ATOM     10  C   UNL     1       3.422  -2.059   1.544  0.00  0.00    +0.028 C 
ATOM     11  C   UNL     1       3.591  -3.574   1.685  0.00  0.00    +0.077 C 
ATOM     12  C   UNL     1       2.231  -4.251   1.496  0.00  0.00    +0.028 C 
ATOM     13  C   UNL     1       1.663  -3.872   0.127  0.00  0.00    +0.085 C 
BRANCH  11  14
ATOM     14  C   UNL     1       4.128  -3.896   3.056  0.00  0.00    +0.214 C 
ATOM     15  O   UNL     1       4.354  -3.002   3.844  0.00  0.00    -0.276 OA
ATOM     16  N   UNL     1       4.357  -5.177   3.406  0.00  0.00    -0.329 N 
ATOM     17  H   UNL     1       4.177  -5.892   2.776  0.00  0.00    +0.145 HD
ATOM     18  H   UNL     1       4.703  -5.384   4.289  0.00  0.00    +0.145 HD
ENDBRANCH  11  14
ENDBRANCH   1   8
BRANCH   1  19
ATOM     19  C   UNL     1       0.718  -0.497  -1.257  0.00  0.00    -0.053 C 
BRANCH  19  20
ATOM     20  N   UNL     1      -0.057  -0.113  -2.444  0.00  0.00    +0.381 N 
ATOM     21  H   UNL     1      -0.975  -0.528  -2.395  0.00  0.00    -0.090 HD
ATOM     22  H   UNL     1      -0.143   0.892  -2.478  0.00  0.00    -0.090 HD
ATOM     23  H   UNL     1       0.415  -0.438  -3.274  0.00  0.00    -0.090 HD
ENDBRANCH  19  20
BRANCH  19  25
ATOM     24  C   UNL     1      -0.019   1.526   0.010  0.00  0.00    +0.002 C 
ATOM     25  C   UNL     1       0.002  -0.004   0.002  0.00  0.00    -0.018 C 
ENDBRANCH  19  25
ENDBRANCH   1  19
TORSDOF 6
