REMARK  Name = ZINC21581043
REMARK  9 active torsions:
REMARK  status: ('A' for Active; 'I' for Inactive)
REMARK    1  A    between atoms: C_1  and  C_2
REMARK    2  A    between atoms: C_2  and  O_4
REMARK    3  A    between atoms: O_4  and  C_5
REMARK    4  A    between atoms: C_10  and  C_11
REMARK    5  A    between atoms: C_12  and  C_13
REMARK    6  A    between atoms: C_15  and  C_25
REMARK    7  A    between atoms: N_16  and  C_18
REMARK    8  A    between atoms: C_18  and  N_19
REMARK    9  A    between atoms: C_30  and  O_31
REMARK                            x       y       z     vdW  Elec       q    Type
REMARK                         _______ _______ _______ _____ _____    ______ ____
ROOT
ATOM      1  C   UNL     1      -5.812  -2.517   0.002  0.00  0.00    +0.175 A 
ATOM      2  N   UNL     1      -6.311  -1.274  -0.041  0.00  0.00    -0.207 NA
ATOM      3  C   UNL     1      -7.603  -1.322  -0.289  0.00  0.00    +0.161 A 
ATOM      4  N   UNL     1      -7.960  -2.629  -0.402  0.00  0.00    -0.261 N 
ATOM      5  N   UNL     1      -6.788  -3.378  -0.210  0.00  0.00    -0.152 NA
ENDROOT
BRANCH   3   6
ATOM      6  C   UNL     1      -8.507  -0.159  -0.417  0.00  0.00    +0.060 A 
ATOM      7  C   UNL     1      -9.713  -0.128   0.284  0.00  0.00    +0.015 A 
ATOM      8  C   UNL     1     -10.552   0.959   0.161  0.00  0.00    +0.001 A 
ATOM      9  C   UNL     1     -10.203   2.021  -0.655  0.00  0.00    +0.004 A 
ATOM     10  C   UNL     1      -9.012   2.002  -1.354  0.00  0.00    +0.046 A 
ATOM     11  C   UNL     1      -8.155   0.919  -1.237  0.00  0.00    +0.128 A 
BRANCH  11  12
ATOM     12  O   UNL     1      -6.981   0.902  -1.920  0.00  0.00    -0.506 OA
ATOM     13  H   UNL     1      -6.707   1.750  -2.563  0.00  0.00    +0.292 HD
ENDBRANCH  11  12
ENDBRANCH   3   6
BRANCH   1  15
ATOM     14  C   UNL     1      -3.497  -1.896   0.455  0.00  0.00    +0.015 C 
ATOM     15  C   UNL     1      -4.402  -2.866   0.252  0.00  0.00    +0.050 C 
BRANCH  14  21
ATOM     16  C   UNL     1      -1.138  -1.234   0.917  0.00  0.00    +0.139 A 
ATOM     17  C   UNL     1       0.183  -1.573   1.157  0.00  0.00    +0.047 A 
ATOM     18  C   UNL     1       0.564  -2.902   1.183  0.00  0.00    +0.004 A 
ATOM     19  C   UNL     1      -0.368  -3.902   0.968  0.00  0.00    +0.001 A 
ATOM     20  C   UNL     1      -1.688  -3.583   0.727  0.00  0.00    +0.011 A 
ATOM     21  C   UNL     1      -2.087  -2.244   0.705  0.00  0.00    +0.017 A 
BRANCH  16  22
ATOM     22  O   UNL     1      -1.514   0.071   0.892  0.00  0.00    -0.425 OA
BRANCH  22  24
ATOM     23  C   UNL     1      -2.350   2.050   2.110  0.00  0.00    +0.136 C 
ATOM     24  C   UNL     1      -2.013   0.583   2.029  0.00  0.00    +0.309 C 
ATOM     25  O   UNL     1      -2.191  -0.132   2.987  0.00  0.00    -0.251 OA
ENDBRANCH  22  24
ENDBRANCH  16  22
ENDBRANCH  14  21
ENDBRANCH   1  15
BRANCH   4  26
ATOM     26  C   UNL     1      -9.302  -3.152  -0.669  0.00  0.00    +0.071 C 
BRANCH  26  27
ATOM     27  N   UNL     1     -10.019  -3.334   0.600  0.00  0.00    +0.393 N 
ATOM     28  C   UNL     1      -9.387  -4.379   1.416  0.00  0.00    -0.076 C 
ATOM     29  C   UNL     1     -10.068  -4.440   2.785  0.00  0.00    -0.019 C 
ATOM     30  C   UNL     1     -11.557  -4.744   2.596  0.00  0.00    -0.004 C 
ATOM     31  C   UNL     1     -12.180  -3.667   1.703  0.00  0.00    -0.019 C 
ATOM     32  C   UNL     1     -11.438  -3.628   0.365  0.00  0.00    -0.076 C 
ATOM     33  H   UNL     1      -9.961  -2.389   1.161  0.00  0.00    -0.079 HD
ENDBRANCH  26  27
ENDBRANCH   4  26
TORSDOF 8
