REMARK  Name = ZINC10202949
REMARK  6 active torsions:
REMARK  status: ('A' for Active; 'I' for Inactive)
REMARK    1  A    between atoms: C_1  and  C_2
REMARK    2  A    between atoms: C_2  and  C_4
REMARK    3  A    between atoms: C_2  and  S_20
REMARK    4  A    between atoms: C_10  and  C_15
REMARK    5  A    between atoms: S_20  and  C_21
REMARK    6  A    between atoms: C_24  and  C_26
REMARK                            x       y       z     vdW  Elec       q    Type
REMARK                         _______ _______ _______ _____ _____    ______ ____
ROOT
ATOM      1  C   UNL     1       2.056  -1.771  -0.150  0.00  0.00    +0.124 A 
ATOM      2  N   UNL     1       3.131  -2.192  -0.865  0.00  0.00    -0.309 N 
ATOM      3  H   UNL     1       3.713  -1.536  -1.279  0.00  0.00    +0.170 HD
ATOM      4  C   UNL     1       3.406  -3.502  -1.008  0.00  0.00    +0.260 A 
ATOM      5  O   UNL     1       4.375  -3.864  -1.653  0.00  0.00    -0.267 OA
ATOM      6  C   UNL     1       2.543  -4.463  -0.393  0.00  0.00    +0.083 A 
ATOM      7  C   UNL     1       2.627  -5.920  -0.404  0.00  0.00    +0.039 A 
ATOM      8  C   UNL     1       1.681  -6.631   0.260  0.00  0.00    +0.059 A 
ATOM      9  S   UNL     1       0.618  -5.372   0.939  0.00  0.00    -0.076 S 
ATOM     10  C   UNL     1       1.458  -3.935   0.325  0.00  0.00    +0.116 A 
ATOM     11  N   UNL     1       1.254  -2.624   0.427  0.00  0.00    -0.225 NA
ENDROOT
BRANCH   7  12
ATOM     12  C   UNL     1       3.720  -6.606  -1.122  0.00  0.00    +0.136 A 
ATOM     13  C   UNL     1       4.525  -7.577  -0.612  0.00  0.00    +0.050 A 
ATOM     14  C   UNL     1       5.418  -7.944  -1.639  0.00  0.00    +0.042 A 
ATOM     15  C   UNL     1       5.124  -7.182  -2.710  0.00  0.00    +0.196 A 
ATOM     16  O   UNL     1       4.097  -6.374  -2.394  0.00  0.00    -0.463 OA
ENDBRANCH   7  12
BRANCH   1  18
ATOM     17  C   UNL     1       2.402   0.219   1.289  0.00  0.00    +0.027 C 
ATOM     18  C   UNL     1       1.789  -0.294  -0.016  0.00  0.00    +0.119 C 
BRANCH  18  19
ATOM     19  S   UNL     1       0.002  -0.004   0.002  0.00  0.00    -0.055 S 
BRANCH  19  20
ATOM     20  C   UNL     1      -0.022   1.758   0.012  0.00  0.00    +0.278 A 
ATOM     21  N   UNL     1       1.026   2.549   0.006  0.00  0.00    -0.101 NA
ATOM     22  N   UNL     1       0.636   3.775   0.016  0.00  0.00    -0.106 NA
ATOM     23  C   UNL     1      -0.674   3.816   0.028  0.00  0.00    +0.251 A 
ATOM     24  O   UNL     1      -1.118   2.540   0.021  0.00  0.00    -0.411 OA
BRANCH  23  25
ATOM     25  C   UNL     1      -1.510   5.034   0.043  0.00  0.00    +0.057 A 
ATOM     26  C   UNL     1      -0.920   6.304   0.050  0.00  0.00    +0.016 A 
ATOM     27  C   UNL     1      -1.749   7.412   0.058  0.00  0.00    +0.020 A 
ATOM     28  C   UNL     1      -3.120   7.232   0.070  0.00  0.00    +0.111 A 
ATOM     29  N   UNL     1      -3.649   6.023   0.069  0.00  0.00    -0.263 NA
ATOM     30  C   UNL     1      -2.903   4.938   0.056  0.00  0.00    +0.124 A 
ENDBRANCH  23  25
ENDBRANCH  19  20
ENDBRANCH  18  19
ENDBRANCH   1  18
TORSDOF 5
