REMARK  Name = ZINC43405169
REMARK  7 active torsions:
REMARK  status: ('A' for Active; 'I' for Inactive)
REMARK    1  A    between atoms: C_1  and  N_2
REMARK    2  A    between atoms: N_2  and  C_3
REMARK    3  A    between atoms: C_4  and  C_6
REMARK    4  A    between atoms: C_6  and  N_7
REMARK    5  A    between atoms: N_7  and  C_8
REMARK    6  A    between atoms: C_10  and  C_18
REMARK    7  A    between atoms: C_18  and  N_19
REMARK                            x       y       z     vdW  Elec       q    Type
REMARK                         _______ _______ _______ _____ _____    ______ ____
ROOT
ATOM      1  N   UNL     1      -0.043  -2.514  -2.631  0.00  0.00    -0.311 N 
ATOM      2  C   UNL     1       0.582  -1.209  -2.858  0.00  0.00    +0.131 C 
ATOM      3  C   UNL     1      -1.185  -2.869  -3.339  0.00  0.00    +0.100 A 
ATOM      4  C   UNL     1      -1.064  -3.446  -4.599  0.00  0.00    -0.027 A 
ATOM      5  C   UNL     1      -2.211  -3.793  -5.289  0.00  0.00    +0.010 A 
ATOM      6  C   UNL     1      -3.444  -3.554  -4.695  0.00  0.00    -0.028 A 
ATOM      7  C   UNL     1      -3.495  -2.979  -3.442  0.00  0.00    +0.021 A 
ATOM      8  N   UNL     1      -2.377  -2.662  -2.805  0.00  0.00    -0.346 N 
ATOM      9  C   UNL     1      -4.939  -2.820  -3.013  0.00  0.00    +0.054 C 
ATOM     10  C   UNL     1      -5.764  -2.953  -4.310  0.00  0.00    +0.011 C 
ATOM     11  C   UNL     1      -4.846  -3.821  -5.198  0.00  0.00    +0.037 C 
ATOM     12  H   UNL     1      -2.435  -2.262  -1.924  0.00  0.00    +0.167 HD
ENDROOT
BRANCH   1  13
ATOM     13  C   UNL     1       0.536  -3.445  -1.659  0.00  0.00    +0.202 C 
BRANCH  13  17
ATOM     14  C   UNL     1      -0.146  -3.581   2.106  0.00  0.00    +0.131 C 
ATOM     15  N   UNL     1       0.384  -3.876   0.772  0.00  0.00    -0.306 N 
ATOM     16  C   UNL     1       1.343  -4.968   0.590  0.00  0.00    +0.131 C 
ATOM     17  C   UNL     1      -0.010  -3.142  -0.287  0.00  0.00    +0.232 C 
ATOM     18  O   UNL     1      -0.804  -2.237  -0.137  0.00  0.00    -0.274 OA
ENDBRANCH  13  17
ENDBRANCH   1  13
BRANCH   4  19
ATOM     19  C   UNL     1       0.295  -3.687  -5.203  0.00  0.00    -0.047 C 
BRANCH  19  20
ATOM     20  N   UNL     1       0.880  -4.903  -4.624  0.00  0.00    +0.381 N 
ATOM     21  H   UNL     1       1.815  -5.031  -4.982  0.00  0.00    -0.090 HD
ATOM     22  H   UNL     1       0.914  -4.815  -3.619  0.00  0.00    -0.090 HD
ATOM     23  H   UNL     1       0.313  -5.700  -4.872  0.00  0.00    -0.090 HD
ENDBRANCH  19  20
ENDBRANCH   4  19
TORSDOF 4
