REMARK  Name = ZINC65305188
REMARK  8 active torsions:
REMARK  status: ('A' for Active; 'I' for Inactive)
REMARK    1  A    between atoms: C_1  and  C_2
REMARK    2  A    between atoms: C_2  and  C_3
REMARK    3  A    between atoms: C_2  and  C_4
REMARK    4  A    between atoms: C_4  and  C_5
REMARK    5  A    between atoms: C_5  and  N_6
REMARK    6  A    between atoms: N_17  and  C_20
REMARK    7  A    between atoms: C_20  and  C_21
REMARK    8  A    between atoms: N_23  and  C_24
REMARK                            x       y       z     vdW  Elec       q    Type
REMARK                         _______ _______ _______ _____ _____    ______ ____
ROOT
ATOM      1  N   UNL     1      -2.758  -2.538  -0.114  0.00  0.00    -0.276 N 
ATOM      2  C   UNL     1      -3.341  -2.871   1.057  0.00  0.00    +0.270 A 
ATOM      3  O   UNL     1      -2.731  -2.742   2.103  0.00  0.00    -0.266 OA
ATOM      4  C   UNL     1      -4.652  -3.365   1.063  0.00  0.00    +0.101 A 
ATOM      5  C   UNL     1      -5.386  -3.527  -0.112  0.00  0.00    +0.074 A 
ATOM      6  C   UNL     1      -6.668  -4.029   0.092  0.00  0.00    +0.035 A 
ATOM      7  C   UNL     1      -7.087  -4.307   1.346  0.00  0.00    +0.048 A 
ATOM      8  S   UNL     1      -5.777  -3.909   2.321  0.00  0.00    -0.090 S 
ATOM      9  N   UNL     1      -4.745  -3.170  -1.313  0.00  0.00    -0.228 N 
ATOM     10  C   UNL     1      -3.460  -2.681  -1.304  0.00  0.00    +0.240 A 
ATOM     11  N   UNL     1      -3.108  -2.423  -2.534  0.00  0.00    -0.129 NA
ATOM     12  N   UNL     1      -4.184  -2.743  -3.372  0.00  0.00    -0.202 N 
ATOM     13  C   UNL     1      -5.180  -3.211  -2.588  0.00  0.00    +0.353 A 
ATOM     14  O   UNL     1      -6.276  -3.587  -2.964  0.00  0.00    -0.244 OA
ENDROOT
BRANCH   1  15
ATOM     15  C   UNL     1      -1.387  -2.020  -0.130  0.00  0.00    +0.128 C 
BRANCH  15  16
ATOM     16  C   UNL     1      -1.416  -0.496   0.002  0.00  0.00    +0.025 C 
BRANCH  16  18
ATOM     17  C   UNL     1      -0.017   1.574  -0.009  0.00  0.00    +0.007 C 
ATOM     18  C   UNL     1       0.015   0.044  -0.015  0.00  0.00    -0.016 C 
ATOM     19  C   UNL     1       0.763  -0.455   1.224  0.00  0.00    +0.007 C 
ENDBRANCH  16  18
ENDBRANCH  15  16
ENDBRANCH   1  15
BRANCH  12  20
ATOM     20  C   UNL     1      -4.219  -2.606  -4.830  0.00  0.00    +0.245 C 
BRANCH  20  21
ATOM     21  C   UNL     1      -4.728  -1.235  -5.194  0.00  0.00    +0.239 C 
ATOM     22  O   UNL     1      -5.033  -0.450  -4.322  0.00  0.00    -0.273 OA
ATOM     23  N   UNL     1      -4.846  -0.882  -6.490  0.00  0.00    -0.282 N 
ATOM     24  H   UNL     1      -4.542  -1.485  -7.186  0.00  0.00    +0.155 HD
BRANCH  23  25
ATOM     25  C   UNL     1      -5.406   0.355  -6.830  0.00  0.00    +0.069 A 
ATOM     26  C   UNL     1      -5.194   1.462  -6.019  0.00  0.00    +0.026 A 
ATOM     27  C   UNL     1      -5.748   2.681  -6.358  0.00  0.00    +0.002 A 
ATOM     28  C   UNL     1      -6.513   2.801  -7.503  0.00  0.00    +0.003 A 
ATOM     29  C   UNL     1      -6.728   1.702  -8.314  0.00  0.00    +0.040 A 
ATOM     30  C   UNL     1      -6.172   0.479  -7.984  0.00  0.00    +0.144 A 
ATOM     31  F   UNL     1      -6.376  -0.594  -8.779  0.00  0.00    -0.204 F 
ENDBRANCH  23  25
ENDBRANCH  20  21
ENDBRANCH  12  20
TORSDOF 6
