REMARK  Name = ZINC43424008
REMARK  4 active torsions:
REMARK  status: ('A' for Active; 'I' for Inactive)
REMARK    1  A    between atoms: C_3  and  C_11
REMARK    2  A    between atoms: C_4  and  N_10
REMARK    3  A    between atoms: C_6  and  C_7
REMARK    4  A    between atoms: C_11  and  N_12
REMARK                            x       y       z     vdW  Elec       q    Type
REMARK                         _______ _______ _______ _____ _____    ______ ____
ROOT
ATOM      1  C   UNL     1       0.712  -0.114   0.361  0.00  0.00    +0.013 A 
ATOM      2  C   UNL     1       1.989   0.407   0.418  0.00  0.00    +0.007 A 
ATOM      3  C   UNL     1       2.248   1.671  -0.075  0.00  0.00    -0.013 A 
ATOM      4  C   UNL     1       1.224   2.428  -0.633  0.00  0.00    +0.030 A 
ATOM      5  C   UNL     1      -0.062   1.915  -0.696  0.00  0.00    +0.036 A 
ATOM      6  C   UNL     1      -0.323   0.638  -0.198  0.00  0.00    +0.038 A 
ENDROOT
BRANCH   6   7
ATOM      7  C   UNL     1      -1.692   0.083  -0.261  0.00  0.00    +0.242 C 
ATOM      8  O   UNL     1      -2.592   0.739  -0.748  0.00  0.00    -0.270 OA
ATOM      9  N   UNL     1      -1.942  -1.151   0.220  0.00  0.00    -0.325 N 
ATOM     10  H   UNL     1      -1.224  -1.675   0.609  0.00  0.00    +0.145 HD
ATOM     11  H   UNL     1      -2.840  -1.515   0.179  0.00  0.00    +0.145 HD
ENDBRANCH   6   7
BRANCH   4  12
ATOM     12  N   UNL     1       1.491   3.707  -1.130  0.00  0.00    -0.358 N 
ATOM     13  H   UNL     1       2.404   4.034  -1.161  0.00  0.00    +0.142 HD
ATOM     14  H   UNL     1       0.764   4.267  -1.443  0.00  0.00    +0.142 HD
ENDBRANCH   4  12
BRANCH   3  15
ATOM     15  C   UNL     1       3.645   2.232  -0.007  0.00  0.00    +0.121 C 
BRANCH  15  16
ATOM     16  N   UNL     1       4.249   2.204  -1.346  0.00  0.00    -0.291 NA
ATOM     17  C   UNL     1       4.589   0.830  -1.742  0.00  0.00    +0.113 C 
ATOM     18  C   UNL     1       5.160   0.837  -3.163  0.00  0.00    +0.175 C 
ATOM     19  O   UNL     1       6.289   1.714  -3.216  0.00  0.00    -0.374 OA
ATOM     20  C   UNL     1       5.988   3.058  -2.835  0.00  0.00    +0.135 C 
ATOM     21  C   UNL     1       5.440   3.068  -1.406  0.00  0.00    +0.086 C 
ATOM     22  C   UNL     1       6.501   2.522  -0.448  0.00  0.00    +0.021 C 
ATOM     23  C   UNL     1       7.758   3.389  -0.525  0.00  0.00    +0.002 C 
ATOM     24  C   UNL     1       8.307   3.362  -1.953  0.00  0.00    +0.003 C 
ATOM     25  C   UNL     1       7.253   3.912  -2.904  0.00  0.00    +0.033 C 
ENDBRANCH  15  16
ENDBRANCH   3  15
TORSDOF 4
