REMARK  Name = ZINC13024344
REMARK  14 active torsions:
REMARK  status: ('A' for Active; 'I' for Inactive)
REMARK    1  A    between atoms: C_1  and  C_2
REMARK    2  A    between atoms: C_2  and  C_3
REMARK    3  A    between atoms: C_3  and  C_4
REMARK    4  A    between atoms: C_3  and  C_5
REMARK    5  A    between atoms: C_3  and  N_6
REMARK    6  A    between atoms: C_7  and  C_9
REMARK    7  A    between atoms: C_9  and  C_11
REMARK    8  A    between atoms: C_9  and  N_18
REMARK    9  A    between atoms: C_16  and  C_17
REMARK   10  A    between atoms: N_18  and  C_19
REMARK   11  A    between atoms: C_22  and  N_25
REMARK   12  A    between atoms: C_26  and  C_28
REMARK   13  A    between atoms: C_29  and  C_31
REMARK   14  A    between atoms: C_31  and  N_32
REMARK                            x       y       z     vdW  Elec       q    Type
REMARK                         _______ _______ _______ _____ _____    ______ ____
ROOT
ATOM      1  N   UNL     1      -5.641   3.049  -2.323  0.00  0.00    -0.254 N 
ATOM      2  C   UNL     1      -4.576   3.871  -2.405  0.00  0.00    +0.242 C 
ATOM      3  O   UNL     1      -4.174   4.236  -3.489  0.00  0.00    -0.273 OA
ENDROOT
BRANCH   1   4
ATOM      4  C   UNL     1      -6.251   2.574  -3.491  0.00  0.00    +0.038 A 
ATOM      5  C   UNL     1      -5.706   1.489  -4.166  0.00  0.00    +0.025 A 
ATOM      6  C   UNL     1      -6.309   1.018  -5.315  0.00  0.00    +0.025 A 
ATOM      7  C   UNL     1      -7.455   1.635  -5.801  0.00  0.00    +0.033 A 
ATOM      8  C   UNL     1      -7.996   2.723  -5.129  0.00  0.00    +0.025 A 
ATOM      9  C   UNL     1      -7.396   3.191  -3.977  0.00  0.00    +0.025 A 
BRANCH   7  10
ATOM     10  N   UNL     1      -8.064   1.160  -6.969  0.00  0.00    -0.286 N 
ATOM     11  C   UNL     1      -8.023  -0.154  -7.264  0.00  0.00    +0.214 C 
ATOM     12  O   UNL     1      -7.542  -0.939  -6.474  0.00  0.00    -0.276 OA
ATOM     13  C   UNL     1      -8.574  -0.650  -8.577  0.00  0.00    +0.109 C 
ATOM     14  H   UNL     1      -8.516   1.777  -7.566  0.00  0.00    +0.155 HD
ENDBRANCH   7  10
ENDBRANCH   1   4
BRANCH   1  15
ATOM     15  C   UNL     1      -6.161   2.652  -1.012  0.00  0.00    +0.197 C 
BRANCH  15  16
ATOM     16  C   UNL     1      -7.646   2.904  -0.963  0.00  0.00    -0.015 A 
ATOM     17  C   UNL     1      -8.524   1.842  -0.843  0.00  0.00    +0.006 A 
ATOM     18  C   UNL     1      -9.886   2.073  -0.794  0.00  0.00    +0.000 A 
ATOM     19  C   UNL     1     -10.371   3.365  -0.876  0.00  0.00    +0.000 A 
ATOM     20  C   UNL     1      -9.494   4.426  -1.002  0.00  0.00    +0.004 A 
ATOM     21  C   UNL     1      -8.132   4.195  -1.046  0.00  0.00    -0.045 A 
ATOM     22  C   UNL     1      -7.176   5.352  -1.183  0.00  0.00    +0.044 C 
ENDBRANCH  15  16
BRANCH  15  24
ATOM     23  N   UNL     1      -5.874   0.689   0.466  0.00  0.00    -0.308 N 
ATOM     24  C   UNL     1      -5.892   1.187  -0.787  0.00  0.00    +0.239 C 
ATOM     25  O   UNL     1      -5.693   0.455  -1.733  0.00  0.00    -0.273 OA
ATOM     26  H   UNL     1      -6.099   1.259   1.217  0.00  0.00    +0.149 HD
BRANCH  23  27
ATOM     27  C   UNL     1      -5.513  -0.713   0.692  0.00  0.00    +0.029 C 
ATOM     28  C   UNL     1      -6.498  -1.619  -0.051  0.00  0.00    +0.031 C 
ATOM     29  C   UNL     1      -4.096  -0.965   0.172  0.00  0.00    +0.031 C 
BRANCH  27  31
ATOM     30  C   UNL     1      -5.194  -2.483   2.426  0.00  0.00    +0.006 C 
ATOM     31  C   UNL     1      -5.570  -1.019   2.190  0.00  0.00    +0.022 C 
ENDBRANCH  27  31
ENDBRANCH  23  27
ENDBRANCH  15  24
ENDBRANCH   1  15
BRANCH   2  32
ATOM     32  C   UNL     1      -3.886   4.337  -1.149  0.00  0.00    +0.242 C 
BRANCH  32  33
ATOM     33  N   UNL     1      -2.686   5.098  -1.505  0.00  0.00    -0.235 N 
ATOM     34  C   UNL     1      -1.419   4.598  -1.687  0.00  0.00    +0.090 A 
ATOM     35  C   UNL     1      -0.863   3.325  -1.616  0.00  0.00    +0.029 A 
ATOM     36  C   UNL     1       0.472   3.152  -1.856  0.00  0.00    +0.002 A 
ATOM     37  C   UNL     1       1.278   4.236  -2.180  0.00  0.00    +0.002 A 
ATOM     38  C   UNL     1       0.756   5.494  -2.261  0.00  0.00    +0.032 A 
ATOM     39  C   UNL     1      -0.608   5.699  -2.015  0.00  0.00    +0.113 A 
ATOM     40  N   UNL     1      -1.391   6.796  -2.019  0.00  0.00    -0.129 NA
ATOM     41  N   UNL     1      -2.604   6.481  -1.727  0.00  0.00    -0.064 NA
ENDBRANCH  32  33
ENDBRANCH   2  32
TORSDOF 9
