REMARK  Name = ZINC08837797
REMARK  12 active torsions:
REMARK  status: ('A' for Active; 'I' for Inactive)
REMARK    1  A    between atoms: C_1  and  N_63
REMARK    2  A    between atoms: C_9  and  O_35
REMARK    3  A    between atoms: C_11  and  C_14
REMARK    4  A    between atoms: C_17  and  O_20
REMARK    5  A    between atoms: O_20  and  C_21
REMARK    6  A    between atoms: C_21  and  C_23
REMARK    7  A    between atoms: C_25  and  O_33
REMARK    8  A    between atoms: C_26  and  O_31
REMARK    9  A    between atoms: C_27  and  O_29
REMARK   10  A    between atoms: O_29  and  C_30
REMARK   11  A    between atoms: O_31  and  C_32
REMARK   12  A    between atoms: O_33  and  C_34
REMARK                            x       y       z     vdW  Elec       q    Type
REMARK                         _______ _______ _______ _____ _____    ______ ____
ROOT
ATOM      1  C   UNL     1      -5.679   2.942   3.965  0.00  0.00    -0.005 A 
ATOM      2  C   UNL     1      -6.649   3.167   3.006  0.00  0.00    +0.011 A 
ATOM      3  C   UNL     1      -7.107   4.449   2.772  0.00  0.00    +0.047 A 
ATOM      4  C   UNL     1      -6.584   5.513   3.493  0.00  0.00    +0.132 A 
ATOM      5  C   UNL     1      -5.607   5.285   4.451  0.00  0.00    +0.047 A 
ATOM      6  C   UNL     1      -5.157   4.000   4.685  0.00  0.00    +0.011 A 
ENDROOT
BRANCH   1  17
ATOM      7  C   UNL     1       0.612   1.634  -1.912  0.00  0.00    -0.096 C 
ATOM      8  C   UNL     1       0.310   1.255   0.461  0.00  0.00    -0.074 C 
ATOM      9  C   UNL     1      -0.501   1.715   1.675  0.00  0.00    +0.018 C 
ATOM     10  C   UNL     1      -1.957   1.330   1.452  0.00  0.00    -0.027 A 
ATOM     11  C   UNL     1      -2.391   1.026   0.205  0.00  0.00    -0.021 A 
ATOM     12  S   UNL     1      -4.109   0.642   0.404  0.00  0.00    -0.080 S 
ATOM     13  C   UNL     1      -4.242   0.879   2.093  0.00  0.00    +0.080 A 
ATOM     14  C   UNL     1      -2.956   1.258   2.501  0.00  0.00    +0.067 A 
ATOM     15  C   UNL     1      -2.754   1.526   3.948  0.00  0.00    +0.220 C 
ATOM     16  N   UNL     1      -3.813   1.603   4.706  0.00  0.00    -0.223 NA
ATOM     17  C   UNL     1      -5.186   1.541   4.221  0.00  0.00    +0.224 C 
ATOM     18  N   UNL     1      -5.288   0.759   2.975  0.00  0.00    -0.313 N 
ATOM     19  C   UNL     1      -1.572   1.024  -1.046  0.00  0.00    -0.036 C 
ATOM     20  H   UNL     1      -6.052   0.191   2.789  0.00  0.00    +0.149 HD
ATOM     21  N   UNL     1      -0.320   1.771  -0.771  0.00  0.00    +0.381 N 
ATOM     22  H   UNL     1      -0.545   2.764  -0.641  0.00  0.00    -0.082 HD
BRANCH  15  23
ATOM     23  O   UNL     1      -1.512   1.683   4.464  0.00  0.00    -0.492 OA
ATOM     24  H   UNL     1      -1.500   1.852   5.415  0.00  0.00    +0.294 HD
ENDBRANCH  15  23
ENDBRANCH   1  17
BRANCH   4  25
ATOM     25  O   UNL     1      -7.029   6.777   3.261  0.00  0.00    -0.422 OA
BRANCH  25  26
ATOM     26  C   UNL     1      -6.165   7.632   2.679  0.00  0.00    +0.345 C 
ATOM     27  O   UNL     1      -5.085   7.234   2.291  0.00  0.00    -0.245 OA
BRANCH  26  28
ATOM     28  C   UNL     1      -6.532   9.050   2.513  0.00  0.00    +0.067 A 
ATOM     29  C   UNL     1      -7.777   9.508   2.953  0.00  0.00    +0.064 A 
ATOM     30  C   UNL     1      -8.116  10.839   2.801  0.00  0.00    +0.166 A 
ATOM     31  C   UNL     1      -7.223  11.722   2.199  0.00  0.00    +0.204 A 
ATOM     32  C   UNL     1      -5.984  11.268   1.754  0.00  0.00    +0.166 A 
ATOM     33  C   UNL     1      -5.638   9.939   1.909  0.00  0.00    +0.064 A 
BRANCH  32  34
ATOM     34  O   UNL     1      -5.114  12.133   1.166  0.00  0.00    -0.491 OA
ATOM     35  C   UNL     1      -3.861  11.599   0.734  0.00  0.00    +0.277 C 
ENDBRANCH  32  34
BRANCH  31  36
ATOM     36  O   UNL     1      -7.561  13.029   2.045  0.00  0.00    -0.488 OA
ATOM     37  C   UNL     1      -8.228  13.389   0.833  0.00  0.00    +0.277 C 
ENDBRANCH  31  36
BRANCH  30  38
ATOM     38  O   UNL     1      -9.324  11.287   3.235  0.00  0.00    -0.491 OA
ATOM     39  C   UNL     1     -10.191  10.327   3.844  0.00  0.00    +0.277 C 
ENDBRANCH  30  38
ENDBRANCH  26  28
ENDBRANCH  25  26
ENDBRANCH   4  25
TORSDOF 8
