REMARK  Name = ZINC66740548
REMARK  2 active torsions:
REMARK  status: ('A' for Active; 'I' for Inactive)
REMARK    1  A    between atoms: C_1  and  C_2
REMARK    2  A    between atoms: C_11  and  C_14
REMARK                            x       y       z     vdW  Elec       q    Type
REMARK                         _______ _______ _______ _____ _____    ______ ____
ROOT
ATOM      1  C   UNL     1      -0.018   1.503   0.010  0.00  0.00    +0.067 C 
ATOM      2  C   UNL     1       0.002  -0.004   0.002  0.00  0.00    +0.055 A 
ATOM      3  C   UNL     1       0.008  -0.795  -1.075  0.00  0.00    +0.082 A 
ATOM      4  C   UNL     1       0.036  -2.138  -0.574  0.00  0.00    +0.168 A 
ATOM      5  N   UNL     1       0.036  -2.062   0.724  0.00  0.00    -0.167 NA
ATOM      6  N   UNL     1       0.024  -0.824   1.094  0.00  0.00    -0.279 N 
ATOM      7  H   UNL     1       0.027  -0.521   2.015  0.00  0.00    +0.189 HD
ATOM      8  C   UNL     1       0.065  -3.267  -1.523  0.00  0.00    +0.268 C 
ATOM      9  O   UNL     1       0.262  -4.408  -1.151  0.00  0.00    -0.268 OA
ATOM     10  N   UNL     1      -0.138  -2.973  -2.829  0.00  0.00    -0.288 N 
ATOM     11  C   UNL     1      -0.547  -1.654  -3.298  0.00  0.00    +0.189 C 
ATOM     12  N   UNL     1      -0.010  -0.572  -2.459  0.00  0.00    -0.319 N 
ATOM     13  H   UNL     1      -0.004  -3.674  -3.486  0.00  0.00    +0.151 HD
ATOM     14  H   UNL     1       0.316   0.257  -2.844  0.00  0.00    +0.148 HD
ENDROOT
BRANCH  11  15
ATOM     15  C   UNL     1      -2.052  -1.577  -3.288  0.00  0.00    +0.006 C 
ATOM     16  C   UNL     1      -2.669  -0.799  -2.404  0.00  0.00    +0.017 C 
ATOM     17  C   UNL     1      -4.147  -0.777  -2.400  0.00  0.00    +0.020 A 
ATOM     18  C   UNL     1      -4.856   0.205  -1.717  0.00  0.00    +0.031 A 
ATOM     19  C   UNL     1      -6.238   0.197  -1.751  0.00  0.00    +0.043 A 
ATOM     20  C   UNL     1      -6.914  -0.782  -2.461  0.00  0.00    +0.043 A 
ATOM     21  C   UNL     1      -6.216  -1.767  -3.138  0.00  0.00    +0.084 A 
ATOM     22  C   UNL     1      -4.832  -1.774  -3.107  0.00  0.00    +0.146 A 
ATOM     23  O   UNL     1      -4.118  -2.746  -3.732  0.00  0.00    -0.486 OA
ATOM     24  C   UNL     1      -2.851  -2.377  -4.282  0.00  0.00    +0.263 C 
ATOM     25 CL   UNL     1      -7.073  -2.989  -4.024  0.00  0.00    -0.080 Cl
ATOM     26 CL   UNL     1      -7.131   1.418  -0.899  0.00  0.00    -0.083 Cl
ENDBRANCH  11  15
TORSDOF 1
