REMARK  Name = ZINC39653483
REMARK  10 active torsions:
REMARK  status: ('A' for Active; 'I' for Inactive)
REMARK    1  A    between atoms: C_1  and  C_2
REMARK    2  A    between atoms: C_2  and  O_3
REMARK    3  A    between atoms: O_3  and  C_4
REMARK    4  A    between atoms: C_6  and  C_12
REMARK    5  A    between atoms: C_9  and  O_10
REMARK    6  A    between atoms: O_10  and  C_11
REMARK    7  A    between atoms: C_12  and  C_13
REMARK    8  A    between atoms: C_13  and  N_14
REMARK    9  A    between atoms: C_15  and  C_17
REMARK   10  A    between atoms: C_28  and  C_30
REMARK                            x       y       z     vdW  Elec       q    Type
REMARK                         _______ _______ _______ _____ _____    ______ ____
ROOT
ATOM      1  C   UNL     1       3.997  -7.452   2.564  0.00  0.00    +0.100 C 
ATOM      2  C   UNL     1       3.622  -8.847   2.016  0.00  0.00    +0.121 C 
ATOM      3  N   UNL     1       4.416  -9.796   2.832  0.00  0.00    -0.297 N 
ATOM      4  C   UNL     1       4.367  -9.233   4.203  0.00  0.00    +0.115 C 
ATOM      5  C   UNL     1       4.485  -7.710   3.999  0.00  0.00    -0.004 C 
ATOM      6  C   UNL     1       5.937  -7.268   4.151  0.00  0.00    -0.010 C 
ATOM      7  C   UNL     1       6.382  -7.481   5.601  0.00  0.00    -0.082 C 
ATOM      8  N   UNL     1       5.517  -6.706   6.498  0.00  0.00    +0.379 N 
ATOM      9  C   UNL     1       4.137  -7.199   6.415  0.00  0.00    -0.082 C 
ATOM     10  C   UNL     1       3.598  -6.974   4.999  0.00  0.00    -0.010 C 
ATOM     11  C   UNL     1       5.041 -10.917   2.421  0.00  0.00    +0.260 C 
ATOM     12  O   UNL     1       5.656 -11.595   3.217  0.00  0.00    -0.271 OA
ATOM     13  H   UNL     1       5.849  -6.800   7.447  0.00  0.00    -0.086 HD
ATOM     14  H   UNL     1       5.542  -5.734   6.231  0.00  0.00    -0.086 HD
ENDROOT
BRANCH  11  15
ATOM     15  C   UNL     1       4.975 -11.328   0.973  0.00  0.00    +0.296 C 
ATOM     16  C   UNL     1       3.530 -11.687   0.601  0.00  0.00    +0.283 C 
ATOM     17  O   UNL     1       3.507 -12.086  -0.774  0.00  0.00    -0.484 OA
ATOM     18  C   UNL     1       4.471 -12.959  -1.174  0.00  0.00    +0.162 A 
ATOM     19  C   UNL     1       4.305 -13.659  -2.360  0.00  0.00    +0.049 A 
ATOM     20  C   UNL     1       5.277 -14.547  -2.781  0.00  0.00    +0.004 A 
ATOM     21  C   UNL     1       6.417 -14.739  -2.022  0.00  0.00    +0.004 A 
ATOM     22  C   UNL     1       6.587 -14.046  -0.839  0.00  0.00    +0.049 A 
ATOM     23  C   UNL     1       5.615 -13.154  -0.410  0.00  0.00    +0.163 A 
ATOM     24  O   UNL     1       5.794 -12.484   0.761  0.00  0.00    -0.473 OA
ENDBRANCH  11  15
BRANCH   1  26
ATOM     25  N   UNL     1       2.943  -5.218   2.447  0.00  0.00    -0.315 N 
ATOM     26  C   UNL     1       2.789  -6.551   2.574  0.00  0.00    +0.218 C 
ATOM     27  O   UNL     1       1.680  -7.024   2.696  0.00  0.00    -0.275 OA
ATOM     28  H   UNL     1       3.830  -4.838   2.350  0.00  0.00    +0.149 HD
BRANCH  25  29
ATOM     29  C   UNL     1       1.769  -4.341   2.457  0.00  0.00    +0.109 C 
BRANCH  29  30
ATOM     30  C   UNL     1       2.217  -2.887   2.299  0.00  0.00    +0.054 C 
BRANCH  30  33
ATOM     31  C   UNL     1      -0.566  -0.640   3.515  0.00  0.00    +0.162 A 
ATOM     32  C   UNL     1       0.544  -1.470   3.504  0.00  0.00    +0.053 A 
ATOM     33  C   UNL     1       1.010  -1.985   2.309  0.00  0.00    -0.042 A 
ATOM     34  C   UNL     1       0.370  -1.675   1.123  0.00  0.00    +0.007 A 
ATOM     35  C   UNL     1      -0.737  -0.848   1.127  0.00  0.00    +0.049 A 
ATOM     36  C   UNL     1      -1.213  -0.333   2.322  0.00  0.00    +0.162 A 
BRANCH  36  37
ATOM     37  O   UNL     1      -2.306   0.476   2.328  0.00  0.00    -0.491 OA
ATOM     38  C   UNL     1      -2.919   0.749   1.066  0.00  0.00    +0.277 C 
ENDBRANCH  36  37
BRANCH  31  39
ATOM     39  O   UNL     1      -1.026  -0.133   4.690  0.00  0.00    -0.489 OA
BRANCH  39  41
ATOM     40  C   UNL     1      -0.972   0.170   7.087  0.00  0.00    +0.048 C 
ATOM     41  C   UNL     1      -0.313  -0.491   5.875  0.00  0.00    +0.226 C 
ENDBRANCH  39  41
ENDBRANCH  31  39
ENDBRANCH  30  33
ENDBRANCH  29  30
ENDBRANCH  25  29
ENDBRANCH   1  26
TORSDOF 8
