REMARK  Name = ZINC63747049
REMARK  8 active torsions:
REMARK  status: ('A' for Active; 'I' for Inactive)
REMARK    1  A    between atoms: C_1  and  C_2
REMARK    2  A    between atoms: C_2  and  C_3
REMARK    3  A    between atoms: C_2  and  N_4
REMARK    4  A    between atoms: C_8  and  S_14
REMARK    5  A    between atoms: S_14  and  N_17
REMARK    6  A    between atoms: C_23  and  C_25
REMARK    7  A    between atoms: C_25  and  C_26
REMARK    8  A    between atoms: C_26  and  C_27
REMARK                            x       y       z     vdW  Elec       q    Type
REMARK                         _______ _______ _______ _____ _____    ______ ____
ROOT
ATOM      1  N   UNL     1      -1.421  -5.564   4.896  0.00  0.00    -0.174 NA
ATOM      2  C   UNL     1      -2.396  -6.288   4.068  0.00  0.00    +0.128 C 
ATOM      3  C   UNL     1      -1.681  -6.814   2.817  0.00  0.00    +0.125 C 
ATOM      4  N   UNL     1      -0.452  -7.504   3.233  0.00  0.00    -0.299 N 
ATOM      5  C   UNL     1       0.522  -6.780   4.062  0.00  0.00    +0.125 C 
ATOM      6  C   UNL     1      -0.190  -6.253   5.308  0.00  0.00    +0.128 C 
ATOM      7  C   UNL     1      -0.223  -8.780   2.862  0.00  0.00    +0.216 C 
ATOM      8  O   UNL     1      -1.034  -9.368   2.179  0.00  0.00    -0.276 OA
ENDROOT
BRANCH   1   9
ATOM      9  S   UNL     1      -1.703  -3.997   5.352  0.00  0.00    +0.061 S 
ATOM     10  O   UNL     1      -0.937  -3.772   6.528  0.00  0.00    -0.153 OA
ATOM     11  O   UNL     1      -3.111  -3.809   5.312  0.00  0.00    -0.153 OA
BRANCH   9  16
ATOM     12  N   UNL     1       0.711  -0.489   1.189  0.00  0.00    -0.299 N 
ATOM     13  C   UNL     1       0.052  -1.303   2.095  0.00  0.00    +0.060 A 
ATOM     14  C   UNL     1      -1.277  -1.756   2.036  0.00  0.00    +0.029 A 
ATOM     15  C   UNL     1      -1.791  -2.565   3.020  0.00  0.00    +0.030 A 
ATOM     16  C   UNL     1      -1.021  -2.960   4.101  0.00  0.00    +0.107 A 
ATOM     17  C   UNL     1       0.292  -2.530   4.186  0.00  0.00    +0.045 A 
ATOM     18  C   UNL     1       0.806  -1.721   3.201  0.00  0.00    +0.043 A 
ATOM     19  S   UNL     1       2.387  -0.962   2.923  0.00  0.00    -0.027 S 
ATOM     20  C   UNL     1       1.998  -0.144   1.385  0.00  0.00    +0.292 A 
ATOM     21  O   UNL     1       2.715   0.552   0.689  0.00  0.00    -0.259 OA
BRANCH  12  23
ATOM     22  C   UNL     1      -0.019   1.526   0.010  0.00  0.00    +0.030 C 
ATOM     23  C   UNL     1       0.002  -0.004   0.002  0.00  0.00    +0.085 C 
ATOM     24  C   UNL     1       0.718  -0.497  -1.257  0.00  0.00    +0.030 C 
ENDBRANCH  12  23
ENDBRANCH   9  16
ENDBRANCH   1   9
BRANCH   7  25
ATOM     25  C   UNL     1       1.041  -9.475   3.297  0.00  0.00    +0.100 C 
BRANCH  25  26
ATOM     26  C   UNL     1       1.053 -10.902   2.746  0.00  0.00    +0.042 C 
BRANCH  26  27
ATOM     27  C   UNL     1       2.318 -11.598   3.180  0.00  0.00    -0.041 C 
ATOM     28  C   UNL     1       2.474 -12.403   4.255  0.00  0.00    -0.001 A 
ATOM     29  C   UNL     1       1.550 -12.855   5.303  0.00  0.00    +0.010 A 
ATOM     30  C   UNL     1       2.009 -13.678   6.272  0.00  0.00    +0.001 A 
ATOM     31  C   UNL     1       3.342 -14.110   6.302  0.00  0.00    +0.002 A 
ATOM     32  C   UNL     1       4.250 -13.739   5.375  0.00  0.00    +0.026 A 
ATOM     33  C   UNL     1       3.877 -12.874   4.309  0.00  0.00    +0.043 A 
ATOM     34  N   UNL     1       4.561 -12.379   3.306  0.00  0.00    -0.380 N 
ATOM     35  C   UNL     1       3.667 -11.542   2.498  0.00  0.00    +0.144 C 
ATOM     36  H   UNL     1       5.500 -12.542   3.126  0.00  0.00    +0.160 HD
ENDBRANCH  26  27
ENDBRANCH  25  26
ENDBRANCH   7  25
TORSDOF 6
