REMARK  Name = ZINC36883757
REMARK  9 active torsions:
REMARK  status: ('A' for Active; 'I' for Inactive)
REMARK    1  A    between atoms: C_4  and  C_7
REMARK    2  A    between atoms: C_7  and  C_9
REMARK    3  A    between atoms: C_7  and  N_32
REMARK    4  A    between atoms: C_9  and  N_10
REMARK    5  A    between atoms: C_11  and  C_13
REMARK    6  A    between atoms: C_13  and  C_14
REMARK    7  A    between atoms: C_14  and  S_15
REMARK    8  A    between atoms: S_15  and  C_16
REMARK    9  A    between atoms: C_16  and  C_17
REMARK                            x       y       z     vdW  Elec       q    Type
REMARK                         _______ _______ _______ _____ _____    ______ ____
ROOT
ATOM      1  C   UNL     1       7.016  -3.380   2.398  0.00  0.00    +0.106 C 
ENDROOT
BRANCH   1   3
ATOM      2  N   UNL     1       5.320  -1.941   1.316  0.00  0.00    -0.317 N 
ATOM      3  C   UNL     1       5.837  -2.443   2.455  0.00  0.00    +0.214 C 
ATOM      4  O   UNL     1       5.353  -2.140   3.525  0.00  0.00    -0.276 OA
ATOM      5  H   UNL     1       5.707  -2.183   0.460  0.00  0.00    +0.149 HD
BRANCH   2   6
ATOM      6  C   UNL     1       4.174  -1.030   1.370  0.00  0.00    +0.093 C 
BRANCH   6   7
ATOM      7  C   UNL     1       3.870  -0.508  -0.035  0.00  0.00    -0.020 C 
BRANCH   7  11
ATOM      8  C   UNL     1       7.127   1.896  -1.399  0.00  0.00    +0.000 A 
ATOM      9  C   UNL     1       7.011   0.585  -1.822  0.00  0.00    +0.000 A 
ATOM     10  C   UNL     1       5.957  -0.193  -1.381  0.00  0.00    +0.002 A 
ATOM     11  C   UNL     1       5.019   0.340  -0.516  0.00  0.00    -0.059 A 
ATOM     12  C   UNL     1       5.136   1.651  -0.092  0.00  0.00    +0.002 A 
ATOM     13  C   UNL     1       6.189   2.429  -0.535  0.00  0.00    +0.000 A 
ENDBRANCH   7  11
BRANCH   7  14
ATOM     14  N   UNL     1       2.645   0.302  -0.003  0.00  0.00    +0.385 N 
ATOM     15  C   UNL     1       2.327   0.805  -1.363  0.00  0.00    -0.078 C 
ATOM     16  C   UNL     1       0.811   1.116  -1.282  0.00  0.00    -0.020 C 
ATOM     17  C   UNL     1       0.271  -0.028  -0.394  0.00  0.00    -0.020 C 
ATOM     18  C   UNL     1       1.492  -0.534   0.397  0.00  0.00    -0.078 C 
ATOM     19  H   UNL     1       2.754   1.073   0.638  0.00  0.00    -0.081 HD
ENDBRANCH   7  14
ENDBRANCH   6   7
ENDBRANCH   2   6
ENDBRANCH   1   3
BRANCH   1  20
ATOM     20  C   UNL     1       7.402  -3.800   3.818  0.00  0.00    +0.079 C 
BRANCH  20  21
ATOM     21  S   UNL     1       8.821  -4.928   3.751  0.00  0.00    -0.153 S 
BRANCH  21  22
ATOM     22  C   UNL     1       9.149  -5.325   5.490  0.00  0.00    +0.143 C 
BRANCH  22  23
ATOM     23  C   UNL     1      10.321  -6.269   5.577  0.00  0.00    +0.121 A 
ATOM     24  N   UNL     1      10.737  -6.704   6.794  0.00  0.00    -0.310 N 
ATOM     25  H   UNL     1      10.274  -6.401   7.591  0.00  0.00    +0.170 HD
ATOM     26  C   UNL     1      11.780  -7.547   6.917  0.00  0.00    +0.260 A 
ATOM     27  O   UNL     1      12.141  -7.929   8.017  0.00  0.00    -0.267 OA
ATOM     28  C   UNL     1      12.457  -7.988   5.734  0.00  0.00    +0.075 A 
ATOM     29  C   UNL     1      13.602  -8.892   5.626  0.00  0.00    -0.023 A 
ATOM     30  C   UNL     1      14.060  -9.153   4.383  0.00  0.00    -0.004 A 
ATOM     31  S   UNL     1      13.008  -8.224   3.301  0.00  0.00    -0.073 S 
ATOM     32  C   UNL     1      11.955  -7.485   4.523  0.00  0.00    +0.116 A 
ATOM     33  N   UNL     1      10.915  -6.657   4.480  0.00  0.00    -0.226 NA
ATOM     34  C   UNL     1      15.210 -10.037   4.007  0.00  0.00    +0.043 C 
ATOM     35  C   UNL     1      16.037 -10.319   5.270  0.00  0.00    +0.005 C 
ATOM     36  C   UNL     1      15.086 -10.729   6.398  0.00  0.00    +0.005 C 
ATOM     37  C   UNL     1      14.263  -9.521   6.849  0.00  0.00    +0.037 C 
ENDBRANCH  22  23
ENDBRANCH  21  22
ENDBRANCH  20  21
ENDBRANCH   1  20
TORSDOF 9
