REMARK  Name = ZINC40851563
REMARK  6 active torsions:
REMARK  status: ('A' for Active; 'I' for Inactive)
REMARK    1  A    between atoms: C_4  and  C_7
REMARK    2  A    between atoms: C_7  and  C_9
REMARK    3  A    between atoms: C_7  and  N_20
REMARK    4  A    between atoms: C_18  and  O_19
REMARK    5  A    between atoms: C_21  and  C_23
REMARK    6  A    between atoms: C_25  and  N_30
REMARK                            x       y       z     vdW  Elec       q    Type
REMARK                         _______ _______ _______ _____ _____    ______ ____
ROOT
ATOM      1  C   UNL     1       3.634  -0.633  -0.084  0.00  0.00    +0.138 C 
ENDROOT
BRANCH   1   2
ATOM      2  C   UNL     1       3.919  -1.231  -1.438  0.00  0.00    +0.026 A 
ATOM      3  C   UNL     1       4.933  -0.694  -2.248  0.00  0.00    -0.009 A 
ATOM      4  C   UNL     1       5.701   0.404  -1.823  0.00  0.00    +0.009 A 
ATOM      5  C   UNL     1       6.676   0.898  -2.634  0.00  0.00    +0.001 A 
ATOM      6  C   UNL     1       6.925   0.332  -3.883  0.00  0.00    +0.001 A 
ATOM      7  C   UNL     1       6.201  -0.731  -4.327  0.00  0.00    +0.008 A 
ATOM      8  C   UNL     1       5.187  -1.270  -3.518  0.00  0.00    -0.017 A 
ATOM      9  C   UNL     1       4.420  -2.368  -3.945  0.00  0.00    +0.012 A 
ATOM     10  C   UNL     1       3.446  -2.865  -3.137  0.00  0.00    +0.046 A 
ATOM     11  C   UNL     1       3.196  -2.302  -1.881  0.00  0.00    +0.123 A 
BRANCH  11  12
ATOM     12  O   UNL     1       2.220  -2.824  -1.094  0.00  0.00    -0.506 OA
ATOM     13  H   UNL     1       1.342  -2.452  -1.257  0.00  0.00    +0.292 HD
ENDBRANCH  11  12
ENDBRANCH   1   2
BRANCH   1  17
ATOM     14  C   UNL     1      -0.028   1.560  -0.240  0.00  0.00    +0.000 A 
ATOM     15  C   UNL     1       1.172   2.201  -0.485  0.00  0.00    +0.000 A 
ATOM     16  C   UNL     1       2.357   1.491  -0.434  0.00  0.00    +0.006 A 
ATOM     17  C   UNL     1       2.342   0.141  -0.138  0.00  0.00    -0.023 A 
ATOM     18  C   UNL     1       1.142  -0.500   0.107  0.00  0.00    +0.006 A 
ATOM     19  C   UNL     1      -0.043   0.210   0.055  0.00  0.00    +0.000 A 
ENDBRANCH   1  17
BRANCH   1  20
ATOM     20  N   UNL     1       3.521  -1.704   0.909  0.00  0.00    -0.300 N 
ATOM     21  C   UNL     1       3.770  -1.448   2.209  0.00  0.00    +0.246 C 
ATOM     22  O   UNL     1       4.089  -0.328   2.557  0.00  0.00    -0.270 OA
ATOM     23  H   UNL     1       3.266  -2.598   0.631  0.00  0.00    +0.150 HD
BRANCH  21  24
ATOM     24  C   UNL     1       3.655  -2.528   3.210  0.00  0.00    +0.057 A 
ATOM     25  C   UNL     1       3.294  -3.817   2.813  0.00  0.00    +0.047 A 
ATOM     26  C   UNL     1       3.190  -4.821   3.752  0.00  0.00    +0.127 A 
ATOM     27  C   UNL     1       3.440  -4.554   5.087  0.00  0.00    +0.034 A 
ATOM     28  C   UNL     1       3.798  -3.280   5.489  0.00  0.00    +0.023 A 
ATOM     29  C   UNL     1       3.913  -2.266   4.558  0.00  0.00    +0.053 A 
ATOM     30 CL   UNL     1       4.368  -0.669   5.062  0.00  0.00    -0.083 Cl
BRANCH  26  31
ATOM     31  N   UNL     1       2.807  -6.188   3.333  0.00  0.00    +0.056 N 
ATOM     32  O   UNL     1       2.587  -6.423   2.167  0.00  0.00    -0.126 OA
ATOM     33  O   UNL     1       2.715  -7.070   4.155  0.00  0.00    -0.126 OA
ENDBRANCH  26  31
ENDBRANCH  21  24
ENDBRANCH   1  20
TORSDOF 6
