REMARK  Name = ZINC65440489
REMARK  8 active torsions:
REMARK  status: ('A' for Active; 'I' for Inactive)
REMARK    1  A    between atoms: C_1  and  C_2
REMARK    2  A    between atoms: C_2  and  C_3
REMARK    3  A    between atoms: C_2  and  N_4
REMARK    4  A    between atoms: C_7  and  C_9
REMARK    5  A    between atoms: C_9  and  N_10
REMARK    6  A    between atoms: N_13  and  C_14
REMARK    7  A    between atoms: C_14  and  C_15
REMARK    8  A    between atoms: C_14  and  C_22
REMARK                            x       y       z     vdW  Elec       q    Type
REMARK                         _______ _______ _______ _____ _____    ______ ____
ROOT
ATOM      1  N   UNL     1      -4.674  -3.701  -0.822  0.00  0.00    -0.299 N 
ATOM      2  C   UNL     1      -5.669  -4.430  -0.278  0.00  0.00    +0.300 C 
ATOM      3  O   UNL     1      -5.643  -4.705   0.906  0.00  0.00    -0.253 OA
ATOM      4  N   UNL     1      -6.691  -4.854  -1.046  0.00  0.00    -0.288 N 
ATOM      5  H   UNL     1      -4.695  -3.482  -1.767  0.00  0.00    +0.150 HD
ATOM      6  H   UNL     1      -6.712  -4.635  -1.991  0.00  0.00    +0.151 HD
ENDROOT
BRANCH   1   7
ATOM      7  C   UNL     1      -3.563  -3.240   0.013  0.00  0.00    +0.107 C 
BRANCH   7  11
ATOM      8  N   UNL     1      -1.376  -0.512   0.012  0.00  0.00    +0.381 N 
ATOM      9  C   UNL     1      -2.083  -0.102  -1.228  0.00  0.00    -0.078 C 
ATOM     10  C   UNL     1      -3.236  -1.131  -1.335  0.00  0.00    -0.015 C 
ATOM     11  C   UNL     1      -2.579  -2.440  -0.843  0.00  0.00    -0.012 C 
ATOM     12  C   UNL     1      -1.374  -1.992   0.004  0.00  0.00    -0.074 C 
ATOM     13  H   UNL     1      -1.868  -0.170   0.824  0.00  0.00    -0.081 HD
BRANCH   8  15
ATOM     14  C   UNL     1      -0.019   1.526   0.010  0.00  0.00    -0.014 C 
ATOM     15  C   UNL     1       0.002  -0.004   0.002  0.00  0.00    -0.075 C 
ATOM     16  C   UNL     1       0.742  -0.511   1.242  0.00  0.00    -0.014 C 
ENDBRANCH   8  15
ENDBRANCH   7  11
ENDBRANCH   1   7
BRANCH   4  17
ATOM     17  C   UNL     1      -7.772  -5.646  -0.455  0.00  0.00    +0.142 C 
BRANCH  17  18
ATOM     18  C   UNL     1      -8.421  -6.489  -1.523  0.00  0.00    -0.022 A 
ATOM     19  C   UNL     1      -8.632  -5.963  -2.784  0.00  0.00    +0.007 A 
ATOM     20  C   UNL     1      -9.226  -6.734  -3.765  0.00  0.00    +0.020 A 
ATOM     21  C   UNL     1      -9.611  -8.033  -3.484  0.00  0.00    +0.041 A 
ATOM     22  C   UNL     1      -9.399  -8.559  -2.222  0.00  0.00    +0.020 A 
ATOM     23  C   UNL     1      -8.799  -7.788  -1.244  0.00  0.00    +0.007 A 
ATOM     24 CL   UNL     1     -10.358  -9.003  -4.715  0.00  0.00    -0.084 Cl
ENDBRANCH  17  18
BRANCH  17  25
ATOM     25  C   UNL     1      -8.799  -4.723   0.149  0.00  0.00    +0.014 A 
ATOM     26  C   UNL     1      -9.480  -4.850   1.314  0.00  0.00    +0.013 A 
ATOM     27  C   UNL     1     -10.384  -3.868   1.673  0.00  0.00    +0.008 A 
ATOM     28  C   UNL     1     -10.563  -2.807   0.848  0.00  0.00    +0.045 A 
ATOM     29  S   UNL     1      -9.428  -3.176  -0.480  0.00  0.00    -0.099 S 
ENDBRANCH  17  25
ENDBRANCH   4  17
TORSDOF 6
