REMARK  Name = ZINC33028216
REMARK  12 active torsions:
REMARK  status: ('A' for Active; 'I' for Inactive)
REMARK    1  A    between atoms: C_1  and  O_2
REMARK    2  A    between atoms: O_2  and  C_3
REMARK    3  A    between atoms: C_8  and  C_9
REMARK    4  A    between atoms: C_9  and  C_11
REMARK    5  A    between atoms: C_9  and  N_33
REMARK    6  A    between atoms: C_11  and  N_12
REMARK    7  A    between atoms: C_13  and  C_15
REMARK    8  A    between atoms: C_18  and  S_21
REMARK    9  A    between atoms: S_21  and  N_24
REMARK   10  A    between atoms: N_24  and  C_25
REMARK   11  A    between atoms: C_30  and  O_31
REMARK   12  A    between atoms: O_31  and  C_32
REMARK                            x       y       z     vdW  Elec       q    Type
REMARK                         _______ _______ _______ _____ _____    ______ ____
ROOT
ATOM      1  N   UNL     1      -1.475   5.206  -6.024  0.00  0.00    -0.313 N 
ATOM      2  C   UNL     1      -1.964   3.986  -5.722  0.00  0.00    +0.244 C 
ATOM      3  O   UNL     1      -2.382   3.264  -6.605  0.00  0.00    -0.270 OA
ATOM      4  H   UNL     1      -1.097   5.860  -5.225  0.00  0.00    +0.149 HD
ENDROOT
BRANCH   2   5
ATOM      5  C   UNL     1      -1.991   3.528  -4.317  0.00  0.00    +0.037 A 
ATOM      6  C   UNL     1      -2.496   2.266  -4.000  0.00  0.00    +0.015 A 
ATOM      7  C   UNL     1      -2.518   1.845  -2.687  0.00  0.00    +0.029 A 
ATOM      8  C   UNL     1      -2.041   2.670  -1.684  0.00  0.00    +0.109 A 
ATOM      9  C   UNL     1      -1.544   3.924  -1.990  0.00  0.00    +0.029 A 
ATOM     10  C   UNL     1      -1.511   4.356  -3.300  0.00  0.00    +0.015 A 
BRANCH   8  11
ATOM     11  S   UNL     1      -2.074   2.124  -0.009  0.00  0.00    +0.072 S 
ATOM     12  O   UNL     1      -3.093   1.137   0.076  0.00  0.00    -0.150 OA
ATOM     13  O   UNL     1      -2.076   3.293   0.799  0.00  0.00    -0.150 OA
BRANCH  11  14
ATOM     14  N   UNL     1      -0.639   1.350   0.281  0.00  0.00    -0.213 N 
ATOM     15  H   UNL     1      -0.636   0.292   0.583  0.00  0.00    +0.174 HD
BRANCH  14  16
ATOM     16  C   UNL     1       0.570   2.042   0.144  0.00  0.00    +0.090 A 
ATOM     17  C   UNL     1       0.647   3.382   0.493  0.00  0.00    +0.028 A 
ATOM     18  C   UNL     1       1.843   4.062   0.361  0.00  0.00    +0.002 A 
ATOM     19  C   UNL     1       2.962   3.413  -0.128  0.00  0.00    +0.004 A 
ATOM     20  C   UNL     1       2.890   2.078  -0.483  0.00  0.00    +0.047 A 
ATOM     21  C   UNL     1       1.697   1.388  -0.349  0.00  0.00    +0.142 A 
BRANCH  21  22
ATOM     22  O   UNL     1       1.625   0.076  -0.699  0.00  0.00    -0.493 OA
ATOM     23  C   UNL     1       2.820  -0.530  -1.196  0.00  0.00    +0.277 C 
ENDBRANCH  21  22
ENDBRANCH  14  16
ENDBRANCH  11  14
ENDBRANCH   8  11
ENDBRANCH   2   5
BRANCH   1  24
ATOM     24  C   UNL     1      -1.449   5.660  -7.417  0.00  0.00    +0.094 C 
BRANCH  24  25
ATOM     25  C   UNL     1      -0.736   7.011  -7.499  0.00  0.00    -0.017 C 
BRANCH  25  31
ATOM     26  C   UNL     1       1.635   6.438  -8.081  0.00  0.00    +0.122 A 
ATOM     27  C   UNL     1       2.970   6.285  -7.734  0.00  0.00    +0.046 A 
ATOM     28  C   UNL     1       3.376   6.521  -6.435  0.00  0.00    +0.004 A 
ATOM     29  C   UNL     1       2.454   6.914  -5.482  0.00  0.00    +0.000 A 
ATOM     30  C   UNL     1       1.125   7.072  -5.826  0.00  0.00    +0.005 A 
ATOM     31  C   UNL     1       0.714   6.838  -7.124  0.00  0.00    -0.018 A 
BRANCH  26  33
ATOM     32  C   UNL     1       2.235   5.793 -10.289  0.00  0.00    +0.277 C 
ATOM     33  O   UNL     1       1.232   6.202  -9.357  0.00  0.00    -0.495 OA
ENDBRANCH  26  33
ENDBRANCH  25  31
BRANCH  25  34
ATOM     34  N   UNL     1      -1.372   7.957  -6.572  0.00  0.00    +0.385 N 
ATOM     35  C   UNL     1      -0.741   9.299  -6.665  0.00  0.00    -0.078 C 
ATOM     36  C   UNL     1      -1.819  10.239  -6.070  0.00  0.00    -0.020 C 
ATOM     37  C   UNL     1      -3.139   9.622  -6.584  0.00  0.00    -0.020 C 
ATOM     38  C   UNL     1      -2.797   8.157  -6.913  0.00  0.00    -0.078 C 
ATOM     39  H   UNL     1      -1.254   7.519  -5.570  0.00  0.00    -0.081 HD
ENDBRANCH  25  34
ENDBRANCH  24  25
ENDBRANCH   1  24
TORSDOF 10
