REMARK  Name = ZINC67570487
REMARK  14 active torsions:
REMARK  status: ('A' for Active; 'I' for Inactive)
REMARK    1  A    between atoms: C_1  and  C_2
REMARK    2  A    between atoms: C_2  and  C_4
REMARK    3  A    between atoms: C_2  and  N_23
REMARK    4  A    between atoms: N_6  and  C_7
REMARK    5  A    between atoms: C_7  and  C_8
REMARK    6  A    between atoms: C_8  and  C_10
REMARK    7  A    between atoms: C_8  and  N_18
REMARK    8  A    between atoms: C_13  and  O_16
REMARK    9  A    between atoms: O_16  and  C_17
REMARK   10  A    between atoms: C_24  and  O_26
REMARK   11  A    between atoms: O_26  and  C_27
REMARK   12  A    between atoms: C_27  and  C_28
REMARK   13  A    between atoms: C_27  and  C_29
REMARK   14  A    between atoms: C_27  and  C_30
REMARK                            x       y       z     vdW  Elec       q    Type
REMARK                         _______ _______ _______ _____ _____    ______ ____
ROOT
ATOM      1  C   UNL     1       0.897  -0.516  -3.594  0.00  0.00    +0.093 C 
ENDROOT
BRANCH   1   4
ATOM      2  C   UNL     1       3.135  -0.326  -2.650  0.00  0.00    +0.233 C 
ATOM      3  O   UNL     1       2.734  -0.898  -1.658  0.00  0.00    -0.274 OA
ATOM      4  N   UNL     1       2.295  -0.086  -3.676  0.00  0.00    -0.315 N 
ATOM      5  H   UNL     1       2.616   0.372  -4.469  0.00  0.00    +0.149 HD
BRANCH   2   7
ATOM      6  C   UNL     1       5.246  -0.562  -3.929  0.00  0.00    +0.038 C 
ATOM      7  C   UNL     1       4.573   0.116  -2.734  0.00  0.00    +0.159 C 
BRANCH   7   8
ATOM      8  N   UNL     1       5.273  -0.259  -1.503  0.00  0.00    -0.270 N 
ATOM      9  C   UNL     1       6.365   0.428  -1.113  0.00  0.00    +0.401 C 
ATOM     10  O   UNL     1       6.770   1.357  -1.782  0.00  0.00    -0.226 OA
ATOM     11  H   UNL     1       4.949  -1.000  -0.968  0.00  0.00    +0.153 HD
BRANCH   9  12
ATOM     12  O   UNL     1       7.008   0.083   0.019  0.00  0.00    -0.445 OA
BRANCH  12  13
ATOM     13  C   UNL     1       8.158   0.854   0.372  0.00  0.00    +0.107 C 
ATOM     14  C   UNL     1       7.754   2.318   0.558  0.00  0.00    +0.055 C 
ATOM     15  C   UNL     1       8.750   0.319   1.678  0.00  0.00    +0.055 C 
ATOM     16  C   UNL     1       9.203   0.751  -0.741  0.00  0.00    +0.055 C 
ENDBRANCH  12  13
ENDBRANCH   9  12
ENDBRANCH   7   8
ENDBRANCH   2   7
ENDBRANCH   1   4
BRANCH   1  17
ATOM     17  C   UNL     1       0.141  -0.031  -4.832  0.00  0.00    -0.020 C 
BRANCH  17  18
ATOM     18  C   UNL     1       0.685  -0.721  -6.056  0.00  0.00    -0.059 A 
ATOM     19  C   UNL     1       0.280  -2.007  -6.361  0.00  0.00    +0.005 A 
ATOM     20  C   UNL     1       0.779  -2.643  -7.481  0.00  0.00    +0.046 A 
ATOM     21  C   UNL     1       1.686  -1.988  -8.302  0.00  0.00    +0.120 A 
ATOM     22  C   UNL     1       2.091  -0.698  -7.994  0.00  0.00    +0.046 A 
ATOM     23  C   UNL     1       1.586  -0.065  -6.875  0.00  0.00    +0.005 A 
BRANCH  21  24
ATOM     24  O   UNL     1       2.178  -2.611  -9.405  0.00  0.00    -0.495 OA
ATOM     25  C   UNL     1       3.109  -1.877 -10.204  0.00  0.00    +0.277 C 
ENDBRANCH  21  24
ENDBRANCH  17  18
BRANCH  17  26
ATOM     26  N   UNL     1      -1.287  -0.344  -4.688  0.00  0.00    +0.385 N 
ATOM     27  C   UNL     1      -1.858   0.387  -3.528  0.00  0.00    -0.078 C 
ATOM     28  C   UNL     1      -3.375   0.419  -3.840  0.00  0.00    -0.020 C 
ATOM     29  C   UNL     1      -3.409   0.618  -5.373  0.00  0.00    -0.020 C 
ATOM     30  C   UNL     1      -2.036   0.130  -5.872  0.00  0.00    -0.078 C 
ATOM     31  H   UNL     1      -1.415  -1.338  -4.571  0.00  0.00    -0.081 HD
ENDBRANCH  17  26
ENDBRANCH   1  17
TORSDOF 9
