REMARK  Name = ZINC20806327
REMARK  7 active torsions:
REMARK  status: ('A' for Active; 'I' for Inactive)
REMARK    1  A    between atoms: C_3  and  C_8
REMARK    2  A    between atoms: C_8  and  S_9
REMARK    3  A    between atoms: S_9  and  C_10
REMARK    4  A    between atoms: N_14  and  N_15
REMARK    5  A    between atoms: N_16  and  N_17
REMARK    6  A    between atoms: C_18  and  C_19
REMARK    7  A    between atoms: C_23  and  O_25
REMARK                            x       y       z     vdW  Elec       q    Type
REMARK                         _______ _______ _______ _____ _____    ______ ____
ROOT
ATOM      1  C   UNL     1      -3.953   9.647   0.089  0.00  0.00    +0.210 A 
ATOM      2  N   UNL     1      -4.590   8.500   0.090  0.00  0.00    -0.119 NA
ATOM      3  N   UNL     1      -3.636   7.475   0.070  0.00  0.00    -0.109 NA
ATOM      4  C   UNL     1      -2.447   8.028   0.066  0.00  0.00    +0.254 A 
ATOM      5  N   UNL     1      -2.612   9.385   0.074  0.00  0.00    -0.211 N 
ATOM      6  N   UNL     1      -1.234   7.354   0.051  0.00  0.00    -0.204 N 
ATOM      7  H   UNL     1      -0.291   7.920   0.044  0.00  0.00    +0.177 HD
ENDROOT
BRANCH   5   8
ATOM      8  N   UNL     1      -1.613  10.316   0.068  0.00  0.00    -0.294 N 
ATOM      9  H   UNL     1      -0.561   9.993   0.056  0.00  0.00    +0.163 HD
ATOM     10  H   UNL     1      -1.859  11.388   0.075  0.00  0.00    +0.163 HD
ENDBRANCH   5   8
BRANCH   6  11
ATOM     11  N   UNL     1      -1.211   5.953   0.044  0.00  0.00    -0.188 NA
ATOM     12  C   UNL     1      -0.076   5.323   0.030  0.00  0.00    +0.138 C 
BRANCH  12  13
ATOM     13  C   UNL     1      -0.051   3.849   0.023  0.00  0.00    -0.002 A 
ATOM     14  C   UNL     1      -1.248   3.127   0.031  0.00  0.00    +0.010 A 
ATOM     15  C   UNL     1      -1.221   1.748   0.017  0.00  0.00    +0.004 A 
ATOM     16  C   UNL     1      -0.013   1.076   0.008  0.00  0.00    +0.045 A 
ATOM     17  C   UNL     1       1.182   1.784   0.000  0.00  0.00    +0.117 A 
ATOM     18  C   UNL     1       1.167   3.168   0.007  0.00  0.00    +0.054 A 
BRANCH  17  19
ATOM     19  O   UNL     1       2.366   1.117  -0.015  0.00  0.00    -0.507 OA
ATOM     20  H   UNL     1       3.313   1.677  -0.021  0.00  0.00    +0.292 HD
ENDBRANCH  17  19
ENDBRANCH  12  13
ENDBRANCH   6  11
BRANCH   1  21
ATOM     21  S   UNL     1      -4.696  11.245   0.104  0.00  0.00    -0.080 S 
BRANCH  21  22
ATOM     22  C   UNL     1      -6.477  10.900   0.120  0.00  0.00    +0.112 C 
BRANCH  22  25
ATOM     23  C   UNL     1      -8.302  13.994  -1.044  0.00  0.00    +0.001 A 
ATOM     24  C   UNL     1      -7.601  12.802  -1.056  0.00  0.00    +0.004 A 
ATOM     25  C   UNL     1      -7.239  12.200   0.134  0.00  0.00    -0.036 A 
ATOM     26  C   UNL     1      -7.582  12.787   1.338  0.00  0.00    +0.019 A 
ATOM     27  C   UNL     1      -8.279  13.982   1.351  0.00  0.00    +0.018 A 
ATOM     28  C   UNL     1      -8.641  14.584   0.159  0.00  0.00    +0.015 A 
ATOM     29 BR   UNL     1      -8.742  14.789   2.997  0.00  0.00    -0.050 Br
ENDBRANCH  22  25
ENDBRANCH  21  22
ENDBRANCH   1  21
TORSDOF 7
