REMARK  Name = ZINC14547756
REMARK  7 active torsions:
REMARK  status: ('A' for Active; 'I' for Inactive)
REMARK    1  A    between atoms: C_4  and  C_7
REMARK    2  A    between atoms: C_7  and  C_8
REMARK    3  A    between atoms: C_8  and  N_9
REMARK    4  A    between atoms: N_9  and  S_10
REMARK    5  A    between atoms: S_10  and  C_13
REMARK    6  A    between atoms: C_26  and  C_29
REMARK    7  A    between atoms: C_38  and  O_39
REMARK                            x       y       z     vdW  Elec       q    Type
REMARK                         _______ _______ _______ _____ _____    ______ ____
ROOT
ATOM      1  C   UNL     1      -1.659   2.087   0.679  0.00  0.00    +0.106 A 
ATOM      2  C   UNL     1      -2.283   0.948   0.202  0.00  0.00    +0.030 A 
ATOM      3  C   UNL     1      -1.522  -0.134  -0.193  0.00  0.00    +0.025 A 
ATOM      4  C   UNL     1      -0.136  -0.077  -0.110  0.00  0.00    +0.031 A 
ATOM      5  C   UNL     1       0.493   1.061   0.369  0.00  0.00    -0.018 A 
ATOM      6  C   UNL     1      -0.283   2.142   0.767  0.00  0.00    +0.034 A 
ATOM      7  C   UNL     1       1.981   1.167   0.479  0.00  0.00    +0.049 C 
ATOM      8  C   UNL     1       2.554   2.042  -0.610  0.00  0.00    -0.023 C 
ATOM      9  C   UNL     1       3.712   1.572  -1.007  0.00  0.00    -0.030 C 
ATOM     10  C   UNL     1       4.072   0.320  -0.231  0.00  0.00    +0.033 C 
ATOM     11  C   UNL     1       2.696  -0.186   0.295  0.00  0.00    +0.029 C 
ATOM     12  C   UNL     1       2.036  -0.974  -0.840  0.00  0.00    +0.109 C 
ATOM     13  N   UNL     1       0.621  -1.181  -0.515  0.00  0.00    -0.336 N 
ATOM     14  H   UNL     1       0.221  -2.062  -0.579  0.00  0.00    +0.147 HD
ENDROOT
BRANCH  12  15
ATOM     15  C   UNL     1       2.150  -0.197  -2.127  0.00  0.00    +0.022 A 
ATOM     16  C   UNL     1       3.294  -0.326  -2.931  0.00  0.00    -0.009 A 
ATOM     17  C   UNL     1       4.347  -1.183  -2.568  0.00  0.00    +0.009 A 
ATOM     18  C   UNL     1       5.438  -1.287  -3.375  0.00  0.00    +0.001 A 
ATOM     19  C   UNL     1       5.527  -0.560  -4.560  0.00  0.00    +0.001 A 
ATOM     20  C   UNL     1       4.524   0.275  -4.946  0.00  0.00    +0.008 A 
ATOM     21  C   UNL     1       3.381   0.410  -4.140  0.00  0.00    -0.017 A 
ATOM     22  C   UNL     1       2.326   1.263  -4.507  0.00  0.00    +0.012 A 
ATOM     23  C   UNL     1       1.234   1.369  -3.704  0.00  0.00    +0.046 A 
ATOM     24  C   UNL     1       1.143   0.641  -2.514  0.00  0.00    +0.122 A 
BRANCH  24  25
ATOM     25  O   UNL     1       0.039   0.768  -1.732  0.00  0.00    -0.506 OA
ATOM     26  H   UNL     1      -0.130   1.673  -1.434  0.00  0.00    +0.292 HD
ENDBRANCH  24  25
ENDBRANCH  12  15
BRANCH   1  27
ATOM     27  S   UNL     1      -2.626   3.471   1.183  0.00  0.00    +0.058 S 
ATOM     28  O   UNL     1      -1.786   4.613   1.077  0.00  0.00    -0.153 OA
ATOM     29  O   UNL     1      -3.866   3.371   0.496  0.00  0.00    -0.153 OA
BRANCH  27  30
ATOM     30  N   UNL     1      -2.959   3.275   2.793  0.00  0.00    -0.190 NA
ATOM     31  H   UNL     1      -3.874   3.143   3.086  0.00  0.00    +0.148 HD
BRANCH  30  32
ATOM     32  C   UNL     1      -1.872   3.301   3.774  0.00  0.00    +0.110 C 
BRANCH  32  33
ATOM     33  C   UNL     1      -2.456   3.475   5.178  0.00  0.00    +0.052 C 
BRANCH  33  37
ATOM     34  C   UNL     1       0.714   3.551   8.040  0.00  0.00    +0.000 A 
ATOM     35  C   UNL     1       0.278   4.728   7.461  0.00  0.00    +0.000 A 
ATOM     36  C   UNL     1      -0.748   4.703   6.535  0.00  0.00    +0.003 A 
ATOM     37  C   UNL     1      -1.337   3.502   6.187  0.00  0.00    -0.046 A 
ATOM     38  C   UNL     1      -0.904   2.326   6.770  0.00  0.00    +0.003 A 
ATOM     39  C   UNL     1       0.125   2.350   7.693  0.00  0.00    +0.000 A 
ENDBRANCH  33  37
ENDBRANCH  32  33
ENDBRANCH  30  32
ENDBRANCH  27  30
ENDBRANCH   1  27
TORSDOF 7
