REMARK  Name = ZINC31852869
REMARK  8 active torsions:
REMARK  status: ('A' for Active; 'I' for Inactive)
REMARK    1  A    between atoms: C_1  and  C_2
REMARK    2  A    between atoms: C_2  and  C_3
REMARK    3  A    between atoms: C_9  and  C_27
REMARK    4  A    between atoms: C_11  and  S_12
REMARK    5  A    between atoms: S_12  and  C_13
REMARK    6  A    between atoms: C_13  and  C_15
REMARK    7  A    between atoms: C_13  and  C_16
REMARK    8  A    between atoms: C_21  and  C_24
REMARK                            x       y       z     vdW  Elec       q    Type
REMARK                         _______ _______ _______ _____ _____    ______ ____
ROOT
ATOM      1  S   UNL     1       0.614  -3.451   3.718  0.00  0.00    -0.093 S 
ENDROOT
BRANCH   1  10
ATOM      2  C   UNL     1       1.016  -7.202   6.365  0.00  0.00    -0.008 A 
ATOM      3  C   UNL     1       0.852  -6.133   5.572  0.00  0.00    +0.024 A 
ATOM      4  C   UNL     1       1.804  -5.039   5.649  0.00  0.00    +0.040 A 
ATOM      5  C   UNL     1       2.843  -5.222   6.587  0.00  0.00    +0.113 A 
ATOM      6  S   UNL     1       2.488  -6.810   7.291  0.00  0.00    -0.074 S 
ATOM      7  N   UNL     1       3.779  -4.310   6.763  0.00  0.00    -0.225 NA
ATOM      8  C   UNL     1       3.765  -3.194   6.059  0.00  0.00    +0.128 A 
ATOM      9  N   UNL     1       2.826  -2.958   5.161  0.00  0.00    -0.225 NA
ATOM     10  C   UNL     1       1.846  -3.816   4.923  0.00  0.00    +0.109 A 
ATOM     11  C   UNL     1       4.847  -2.170   6.281  0.00  0.00    +0.088 C 
BRANCH   2  13
ATOM     12  C   UNL     1       0.677  -9.488   5.467  0.00  0.00    +0.009 C 
ATOM     13  C   UNL     1       0.160  -8.438   6.453  0.00  0.00    +0.039 C 
ENDBRANCH   2  13
ENDBRANCH   1  10
BRANCH   1  14
ATOM     14  C   UNL     1       1.187  -1.826   3.164  0.00  0.00    +0.136 C 
ATOM     15  C   UNL     1       1.085  -0.828   4.319  0.00  0.00    +0.029 C 
BRANCH  14  16
ATOM     16  C   UNL     1       0.331  -1.356   2.016  0.00  0.00    +0.229 C 
ATOM     17  O   UNL     1      -0.801  -1.772   1.894  0.00  0.00    -0.274 OA
ATOM     18  N   UNL     1       0.824  -0.472   1.126  0.00  0.00    -0.301 N 
ATOM     19  C   UNL     1       0.002  -0.004   0.002  0.00  0.00    +0.108 C 
ATOM     20  C   UNL     1      -0.019   1.528   0.010  0.00  0.00    +0.034 C 
ATOM     21  C   UNL     1       1.419   2.053  -0.001  0.00  0.00    +0.105 C 
ATOM     22  C   UNL     1       2.149   1.573   1.256  0.00  0.00    +0.034 C 
ATOM     23  C   UNL     1       2.194   0.042   1.262  0.00  0.00    +0.108 C 
BRANCH  21  24
ATOM     24  C   UNL     1       1.402   3.560  -0.027  0.00  0.00    +0.359 C 
ATOM     25  O   UNL     1       0.349   4.152  -0.035  0.00  0.00    -0.246 OA
ATOM     26  O   UNL     1       2.557   4.244  -0.040  0.00  0.00    -0.246 OA
ENDBRANCH  21  24
ENDBRANCH  14  16
ENDBRANCH   1  14
TORSDOF 5
