REMARK  Name = ZINC28935279
REMARK  9 active torsions:
REMARK  status: ('A' for Active; 'I' for Inactive)
REMARK    1  A    between atoms: C_1  and  C_2
REMARK    2  A    between atoms: C_7  and  N_8
REMARK    3  A    between atoms: N_8  and  S_9
REMARK    4  A    between atoms: S_9  and  C_12
REMARK    5  A    between atoms: C_15  and  C_32
REMARK    6  A    between atoms: C_16  and  C_18
REMARK    7  A    between atoms: N_20  and  N_21
REMARK    8  A    between atoms: C_22  and  C_24
REMARK    9  A    between atoms: C_24  and  C_25
REMARK                            x       y       z     vdW  Elec       q    Type
REMARK                         _______ _______ _______ _____ _____    ______ ____
ROOT
ATOM      1  C   UNL     1       2.494  -0.595   3.403  0.00  0.00    +0.109 A 
ATOM      2  C   UNL     1       3.102  -1.716   2.867  0.00  0.00    +0.029 A 
ATOM      3  C   UNL     1       4.471  -1.741   2.670  0.00  0.00    +0.006 A 
ATOM      4  C   UNL     1       5.239  -0.645   3.007  0.00  0.00    -0.038 A 
ATOM      5  C   UNL     1       4.632   0.489   3.548  0.00  0.00    +0.043 A 
ATOM      6  C   UNL     1       3.249   0.509   3.739  0.00  0.00    +0.042 A 
ATOM      7  C   UNL     1       6.731  -0.674   2.792  0.00  0.00    +0.044 C 
ENDROOT
BRANCH   5   8
ATOM      8  C   UNL     1       5.449   1.666   3.913  0.00  0.00    +0.260 C 
ATOM      9  O   UNL     1       6.658   1.629   3.790  0.00  0.00    -0.269 OA
ATOM     10  N   UNL     1       4.854   2.781   4.381  0.00  0.00    -0.230 N 
ATOM     11  H   UNL     1       3.889   2.811   4.479  0.00  0.00    +0.173 HD
BRANCH  10  12
ATOM     12  N   UNL     1       5.628   3.896   4.726  0.00  0.00    -0.234 N 
ATOM     13  C   UNL     1       5.032   5.011   5.194  0.00  0.00    +0.233 C 
ATOM     14  O   UNL     1       3.826   5.048   5.317  0.00  0.00    -0.274 OA
ATOM     15  H   UNL     1       6.592   3.866   4.628  0.00  0.00    +0.173 HD
BRANCH  13  16
ATOM     16  C   UNL     1       5.865   6.211   5.566  0.00  0.00    +0.132 C 
BRANCH  16  17
ATOM     17  C   UNL     1       4.965   7.315   6.057  0.00  0.00    -0.038 A 
ATOM     18  C   UNL     1       4.447   8.233   5.163  0.00  0.00    +0.007 A 
ATOM     19  C   UNL     1       3.620   9.246   5.613  0.00  0.00    +0.038 A 
ATOM     20  C   UNL     1       3.312   9.340   6.960  0.00  0.00    +0.123 A 
ATOM     21  C   UNL     1       3.831   8.419   7.854  0.00  0.00    +0.038 A 
ATOM     22  C   UNL     1       4.653   7.404   7.401  0.00  0.00    +0.007 A 
ATOM     23  F   UNL     1       2.504  10.329   7.400  0.00  0.00    -0.205 F 
ENDBRANCH  16  17
ENDBRANCH  13  16
ENDBRANCH  10  12
ENDBRANCH   5   8
BRANCH   1  24
ATOM     24  S   UNL     1       0.749  -0.574   3.650  0.00  0.00    +0.072 S 
ATOM     25  O   UNL     1       0.494   0.387   4.665  0.00  0.00    -0.150 OA
ATOM     26  O   UNL     1       0.339  -1.930   3.764  0.00  0.00    -0.150 OA
BRANCH  24  27
ATOM     27  N   UNL     1       0.065   0.012   2.261  0.00  0.00    -0.216 N 
ATOM     28  H   UNL     1      -0.468   0.822   2.287  0.00  0.00    +0.174 HD
BRANCH  27  35
ATOM     29  C   UNL     1       0.315   1.563  -0.111  0.00  0.00    +0.046 C 
ATOM     30  C   UNL     1       0.382   0.057  -0.131  0.00  0.00    -0.028 A 
ATOM     31  C   UNL     1       0.576  -0.610  -1.325  0.00  0.00    +0.005 A 
ATOM     32  C   UNL     1       0.637  -1.991  -1.344  0.00  0.00    +0.000 A 
ATOM     33  C   UNL     1       0.505  -2.709  -0.170  0.00  0.00    +0.002 A 
ATOM     34  C   UNL     1       0.312  -2.048   1.027  0.00  0.00    +0.025 A 
ATOM     35  C   UNL     1       0.255  -0.660   1.051  0.00  0.00    +0.051 A 
ENDBRANCH  27  35
ENDBRANCH  24  27
ENDBRANCH   1  24
TORSDOF 7
