REMARK  Name = ZINC35739153
REMARK  5 active torsions:
REMARK  status: ('A' for Active; 'I' for Inactive)
REMARK    1  A    between atoms: C_1  and  C_2
REMARK    2  A    between atoms: C_2  and  C_4
REMARK    3  A    between atoms: C_2  and  N_9
REMARK    4  A    between atoms: N_9  and  C_10
REMARK    5  A    between atoms: C_15  and  N_16
REMARK                            x       y       z     vdW  Elec       q    Type
REMARK                         _______ _______ _______ _____ _____    ______ ____
ROOT
ATOM      1  C   UNL     1       2.086  -0.592  -1.215  0.00  0.00    +0.051 A 
ATOM      2  C   UNL     1       2.818  -0.263  -0.084  0.00  0.00    +0.051 A 
ATOM      3  C   UNL     1       4.199  -0.378  -0.100  0.00  0.00    +0.078 A 
ATOM      4  C   UNL     1       4.852  -0.822  -1.248  0.00  0.00    +0.144 A 
ATOM      5  C   UNL     1       4.121  -1.150  -2.377  0.00  0.00    +0.072 A 
ATOM      6  C   UNL     1       2.738  -1.041  -2.362  0.00  0.00    +0.049 A 
ATOM      7  O   UNL     1       6.209  -0.927  -1.248  0.00  0.00    -0.481 OA
ATOM      8  C   UNL     1       6.927   0.022  -0.456  0.00  0.00    +0.325 C 
ATOM      9  C   UNL     1       6.288   0.133   0.905  0.00  0.00    +0.255 C 
ATOM     10  O   UNL     1       6.967   0.386   1.878  0.00  0.00    -0.272 OA
ATOM     11  N   UNL     1       4.957  -0.051   1.037  0.00  0.00    -0.280 N 
ATOM     12  H   UNL     1       4.530   0.041   1.903  0.00  0.00    +0.155 HD
ENDROOT
BRANCH   6  13
ATOM     13  N   UNL     1       1.997  -1.378  -3.503  0.00  0.00    -0.356 N 
ATOM     14  H   UNL     1       1.030  -1.298  -3.495  0.00  0.00    +0.142 HD
ATOM     15  H   UNL     1       2.450  -1.691  -4.302  0.00  0.00    +0.142 HD
ENDBRANCH   6  13
BRANCH   1  16
ATOM     16  N   UNL     1       0.688  -0.476  -1.203  0.00  0.00    -0.333 N 
ATOM     17  H   UNL     1       0.175  -0.710  -1.993  0.00  0.00    +0.147 HD
BRANCH  16  19
ATOM     18  C   UNL     1      -0.019   1.526   0.010  0.00  0.00    +0.036 C 
ATOM     19  C   UNL     1       0.002  -0.004   0.002  0.00  0.00    +0.133 C 
BRANCH  19  20
ATOM     20  C   UNL     1      -1.412  -0.526   0.013  0.00  0.00    +0.125 A 
ATOM     21  C   UNL     1      -2.076  -0.977   1.092  0.00  0.00    +0.046 A 
ATOM     22  C   UNL     1      -3.361  -1.364   0.650  0.00  0.00    +0.041 A 
ATOM     23  C   UNL     1      -3.406  -1.127  -0.673  0.00  0.00    +0.195 A 
ATOM     24  O   UNL     1      -2.224  -0.614  -1.053  0.00  0.00    -0.466 OA
ENDBRANCH  19  20
ENDBRANCH  16  19
ENDBRANCH   1  16
TORSDOF 4
