REMARK  Name = ZINC01404934
REMARK  6 active torsions:
REMARK  status: ('A' for Active; 'I' for Inactive)
REMARK    1  A    between atoms: C_1  and  C_2
REMARK    2  A    between atoms: C_2  and  O_3
REMARK    3  A    between atoms: O_3  and  C_4
REMARK    4  A    between atoms: C_7  and  N_10
REMARK    5  A    between atoms: C_11  and  C_29
REMARK    6  A    between atoms: C_21  and  C_22
REMARK                            x       y       z     vdW  Elec       q    Type
REMARK                         _______ _______ _______ _____ _____    ______ ____
ROOT
ATOM      1  N   UNL     1       2.742   7.521   0.741  0.00  0.00    -0.255 N 
ATOM      2  C   UNL     1       1.562   8.401   0.729  0.00  0.00    +0.149 C 
ATOM      3  C   UNL     1       2.085   9.779   0.467  0.00  0.00    +0.027 C 
ATOM      4  C   UNL     1       3.429   9.681   0.305  0.00  0.00    +0.098 C 
ATOM      5  C   UNL     1       3.830   8.283   0.504  0.00  0.00    +0.266 C 
ATOM      6  O   UNL     1       4.974   7.872   0.459  0.00  0.00    -0.268 OA
ATOM      7  N   UNL     1       4.214  10.781  -0.005  0.00  0.00    -0.338 N 
ATOM      8  C   UNL     1       4.029  11.409  -1.319  0.00  0.00    +0.122 C 
ATOM      9  C   UNL     1       2.537  11.466  -1.662  0.00  0.00    +0.131 C 
ATOM     10  N   UNL     1       1.698  11.911  -0.555  0.00  0.00    -0.382 N 
ATOM     11  C   UNL     1       1.394  11.070   0.414  0.00  0.00    +0.050 C 
ATOM     12  H   UNL     1       4.957  11.186   0.698  0.00  0.00    +0.146 HD
ATOM     13  H   UNL     1       1.319  12.943  -0.526  0.00  0.00    +0.160 HD
ENDROOT
BRANCH  11  14
ATOM     14  C   UNL     1       0.373  11.423   1.430  0.00  0.00    -0.002 A 
ATOM     15  C   UNL     1      -0.817  12.038   1.041  0.00  0.00    +0.011 A 
ATOM     16  C   UNL     1      -1.765  12.360   1.990  0.00  0.00    +0.020 A 
ATOM     17  C   UNL     1      -1.533  12.084   3.326  0.00  0.00    +0.041 A 
ATOM     18  C   UNL     1      -0.351  11.478   3.718  0.00  0.00    +0.020 A 
ATOM     19  C   UNL     1       0.602  11.147   2.777  0.00  0.00    +0.011 A 
ATOM     20 CL   UNL     1      -2.728  12.498   4.516  0.00  0.00    -0.084 Cl
ENDBRANCH  11  14
BRANCH   2  21
ATOM     21  C   UNL     1       0.864   8.352   2.063  0.00  0.00    +0.013 A 
ATOM     22  C   UNL     1       1.587   8.099   3.213  0.00  0.00    +0.008 A 
ATOM     23  C   UNL     1       0.947   8.055   4.438  0.00  0.00    +0.001 A 
ATOM     24  C   UNL     1      -0.417   8.265   4.514  0.00  0.00    +0.003 A 
ATOM     25  C   UNL     1      -1.143   8.518   3.365  0.00  0.00    +0.039 A 
ATOM     26  C   UNL     1      -0.502   8.568   2.139  0.00  0.00    +0.129 A 
ATOM     27  F   UNL     1      -1.209   8.821   1.016  0.00  0.00    -0.205 F 
ENDBRANCH   2  21
BRANCH   1  31
ATOM     28  C   UNL     1       2.728   3.406   1.407  0.00  0.00    +0.121 A 
ATOM     29  C   UNL     1       1.535   4.115   1.419  0.00  0.00    +0.047 A 
ATOM     30  C   UNL     1       1.539   5.479   1.203  0.00  0.00    +0.027 A 
ATOM     31  C   UNL     1       2.737   6.140   0.964  0.00  0.00    +0.038 A 
ATOM     32  C   UNL     1       3.930   5.429   0.947  0.00  0.00    +0.027 A 
ATOM     33  C   UNL     1       3.925   4.066   1.168  0.00  0.00    +0.047 A 
BRANCH  28  34
ATOM     34  O   UNL     1       2.723   2.064   1.625  0.00  0.00    -0.492 OA
BRANCH  34  36
ATOM     35  C   UNL     1       1.649  -0.051   2.087  0.00  0.00    +0.048 C 
ATOM     36  C   UNL     1       1.455   1.450   1.865  0.00  0.00    +0.225 C 
ENDBRANCH  34  36
ENDBRANCH  28  34
ENDBRANCH   1  31
TORSDOF 5
