REMARK  Name = ZINC14547757
REMARK  7 active torsions:
REMARK  status: ('A' for Active; 'I' for Inactive)
REMARK    1  A    between atoms: C_4  and  C_7
REMARK    2  A    between atoms: C_7  and  C_8
REMARK    3  A    between atoms: C_8  and  N_9
REMARK    4  A    between atoms: N_9  and  S_10
REMARK    5  A    between atoms: S_10  and  C_13
REMARK    6  A    between atoms: C_26  and  C_29
REMARK    7  A    between atoms: C_38  and  O_39
REMARK                            x       y       z     vdW  Elec       q    Type
REMARK                         _______ _______ _______ _____ _____    ______ ____
ROOT
ATOM      1  C   UNL     1       7.276   6.559   0.726  0.00  0.00    +0.106 A 
ATOM      2  C   UNL     1       7.002   6.849  -0.598  0.00  0.00    +0.030 A 
ATOM      3  C   UNL     1       5.735   6.644  -1.105  0.00  0.00    +0.025 A 
ATOM      4  C   UNL     1       4.726   6.145  -0.290  0.00  0.00    +0.031 A 
ATOM      5  C   UNL     1       5.013   5.842   1.046  0.00  0.00    -0.018 A 
ATOM      6  C   UNL     1       6.280   6.056   1.544  0.00  0.00    +0.034 A 
ATOM      7  C   UNL     1       3.917   5.292   1.872  0.00  0.00    +0.049 C 
ATOM      8  C   UNL     1       3.889   5.455   3.349  0.00  0.00    -0.023 C 
ATOM      9  C   UNL     1       2.624   5.512   3.745  0.00  0.00    -0.030 C 
ATOM     10  C   UNL     1       1.692   5.423   2.535  0.00  0.00    +0.033 C 
ATOM     11  C   UNL     1       2.589   5.966   1.414  0.00  0.00    +0.029 C 
ATOM     12  C   UNL     1       2.335   5.446   0.011  0.00  0.00    +0.109 C 
ATOM     13  N   UNL     1       3.439   5.978  -0.817  0.00  0.00    -0.336 N 
ATOM     14  H   UNL     1       3.269   6.215  -1.742  0.00  0.00    +0.147 HD
ENDROOT
BRANCH  12  15
ATOM     15  C   UNL     1       2.357   3.939   0.001  0.00  0.00    +0.022 A 
ATOM     16  C   UNL     1       1.177   3.214   0.235  0.00  0.00    -0.009 A 
ATOM     17  C   UNL     1      -0.043   3.868   0.481  0.00  0.00    +0.009 A 
ATOM     18  C   UNL     1      -1.168   3.134   0.704  0.00  0.00    +0.001 A 
ATOM     19  C   UNL     1      -1.130   1.741   0.687  0.00  0.00    +0.001 A 
ATOM     20  C   UNL     1       0.034   1.074   0.458  0.00  0.00    +0.008 A 
ATOM     21  C   UNL     1       1.216   1.797   0.223  0.00  0.00    -0.017 A 
ATOM     22  C   UNL     1       2.435   1.142  -0.023  0.00  0.00    +0.012 A 
ATOM     23  C   UNL     1       3.560   1.872  -0.247  0.00  0.00    +0.046 A 
ATOM     24  C   UNL     1       3.524   3.270  -0.235  0.00  0.00    +0.122 A 
BRANCH  24  25
ATOM     25  O   UNL     1       4.665   3.973  -0.461  0.00  0.00    -0.506 OA
ATOM     26  H   UNL     1       4.822   4.179  -1.393  0.00  0.00    +0.292 HD
ENDBRANCH  24  25
ENDBRANCH  12  15
BRANCH   1  27
ATOM     27  S   UNL     1       8.892   6.832   1.372  0.00  0.00    +0.058 S 
ATOM     28  O   UNL     1       9.033   5.970   2.493  0.00  0.00    -0.153 OA
ATOM     29  O   UNL     1       9.783   6.795   0.265  0.00  0.00    -0.153 OA
BRANCH  27  30
ATOM     30  N   UNL     1       8.931   8.380   1.958  0.00  0.00    -0.190 NA
ATOM     31  H   UNL     1       9.510   9.040   1.547  0.00  0.00    +0.148 HD
BRANCH  30  32
ATOM     32  C   UNL     1       8.090   8.752   3.099  0.00  0.00    +0.110 C 
BRANCH  32  33
ATOM     33  C   UNL     1       8.572  10.086   3.674  0.00  0.00    +0.052 C 
BRANCH  33  37
ATOM     34  C   UNL     1       6.122  11.173   7.000  0.00  0.00    +0.000 A 
ATOM     35  C   UNL     1       7.258  10.412   7.198  0.00  0.00    +0.000 A 
ATOM     36  C   UNL     1       8.052  10.060   6.122  0.00  0.00    +0.003 A 
ATOM     37  C   UNL     1       7.707  10.469   4.847  0.00  0.00    -0.046 A 
ATOM     38  C   UNL     1       6.573  11.234   4.649  0.00  0.00    +0.003 A 
ATOM     39  C   UNL     1       5.777  11.582   5.725  0.00  0.00    +0.000 A 
ENDBRANCH  33  37
ENDBRANCH  32  33
ENDBRANCH  30  32
ENDBRANCH  27  30
ENDBRANCH   1  27
TORSDOF 7
