REMARK  Name = ZINC40985696
REMARK  11 active torsions:
REMARK  status: ('A' for Active; 'I' for Inactive)
REMARK    1  A    between atoms: C_1  and  C_2
REMARK    2  A    between atoms: C_2  and  C_3
REMARK    3  A    between atoms: C_3  and  C_4
REMARK    4  A    between atoms: C_4  and  S_5
REMARK    5  A    between atoms: S_5  and  C_6
REMARK    6  A    between atoms: C_9  and  C_13
REMARK    7  A    between atoms: N_15  and  C_16
REMARK    8  A    between atoms: C_16  and  C_17
REMARK    9  A    between atoms: C_17  and  C_19
REMARK   10  A    between atoms: C_17  and  N_26
REMARK   11  A    between atoms: C_22  and  C_25
REMARK                            x       y       z     vdW  Elec       q    Type
REMARK                         _______ _______ _______ _____ _____    ______ ____
ROOT
ATOM      1  C   UNL     1      -1.086 -10.778   0.078  0.00  0.00    +0.094 C 
ENDROOT
BRANCH   1   4
ATOM      2  C   UNL     1      -2.826 -11.548   1.601  0.00  0.00    +0.248 C 
ATOM      3  O   UNL     1      -3.654 -11.226   0.771  0.00  0.00    -0.270 OA
ATOM      4  N   UNL     1      -1.514 -11.365   1.350  0.00  0.00    -0.312 N 
ATOM      5  H   UNL     1      -0.853 -11.623   2.012  0.00  0.00    +0.149 HD
BRANCH   2   9
ATOM      6  C   UNL     1      -4.039 -13.213   5.212  0.00  0.00    +0.190 A 
ATOM      7  N   UNL     1      -2.743 -13.042   4.983  0.00  0.00    -0.229 NA
ATOM      8  C   UNL     1      -2.317 -12.517   3.850  0.00  0.00    +0.129 A 
ATOM      9  C   UNL     1      -3.256 -12.139   2.881  0.00  0.00    +0.092 A 
ATOM     10  C   UNL     1      -4.617 -12.337   3.162  0.00  0.00    +0.146 A 
ATOM     11  N   UNL     1      -4.960 -12.874   4.319  0.00  0.00    -0.209 NA
ATOM     12 CL   UNL     1      -5.830 -11.889   2.003  0.00  0.00    -0.061 Cl
BRANCH   6  13
ATOM     13  S   UNL     1      -4.552 -13.919   6.742  0.00  0.00    -0.086 S 
BRANCH  13  14
ATOM     14  C   UNL     1      -2.999 -14.219   7.630  0.00  0.00    +0.077 C 
BRANCH  14  15
ATOM     15  C   UNL     1      -3.303 -14.839   8.995  0.00  0.00    +0.011 C 
BRANCH  15  17
ATOM     16  C   UNL     1      -2.296 -15.712  11.109  0.00  0.00    +0.004 C 
ATOM     17  C   UNL     1      -1.992 -15.091   9.743  0.00  0.00    -0.003 C 
ENDBRANCH  15  17
ENDBRANCH  14  15
ENDBRANCH  13  14
ENDBRANCH   6  13
ENDBRANCH   2   9
ENDBRANCH   1   4
BRANCH   1  18
ATOM     18  C   UNL     1       0.441 -10.805  -0.008  0.00  0.00    -0.020 C 
BRANCH  18  19
ATOM     19  N   UNL     1       1.010 -10.162   1.184  0.00  0.00    +0.385 N 
ATOM     20  C   UNL     1       0.547  -8.761   1.232  0.00  0.00    -0.078 C 
ATOM     21  C   UNL     1       0.596  -8.295   2.666  0.00  0.00    -0.019 C 
ATOM     22  C   UNL     1       1.903  -7.539   2.968  0.00  0.00    -0.002 C 
ATOM     23  C   UNL     1       3.121  -8.212   2.304  0.00  0.00    -0.002 C 
ATOM     24  C   UNL     1       3.072  -9.716   2.405  0.00  0.00    -0.019 C 
ATOM     25  C   UNL     1       2.400 -10.284   1.138  0.00  0.00    -0.078 C 
ATOM     26  H   UNL     1       0.669 -10.642   2.003  0.00  0.00    -0.081 HD
ENDBRANCH  18  19
BRANCH  18  27
ATOM     27  C   UNL     1       0.915 -12.233  -0.083  0.00  0.00    -0.059 A 
ATOM     28  C   UNL     1       0.996 -12.996   1.067  0.00  0.00    +0.002 A 
ATOM     29  C   UNL     1       1.431 -14.306   0.999  0.00  0.00    +0.003 A 
ATOM     30  C   UNL     1       1.785 -14.854  -0.220  0.00  0.00    -0.050 A 
ATOM     31  C   UNL     1       1.703 -14.092  -1.370  0.00  0.00    +0.003 A 
ATOM     32  C   UNL     1       1.264 -12.783  -1.302  0.00  0.00    +0.002 A 
ATOM     33  C   UNL     1       2.260 -16.282  -0.294  0.00  0.00    +0.044 C 
ENDBRANCH  18  27
ENDBRANCH   1  18
TORSDOF 9
