REMARK  Name = ZINC28956732
REMARK  7 active torsions:
REMARK  status: ('A' for Active; 'I' for Inactive)
REMARK    1  A    between atoms: C_1  and  N_2
REMARK    2  A    between atoms: C_6  and  C_7
REMARK    3  A    between atoms: C_18  and  C_20
REMARK    4  A    between atoms: C_20  and  C_21
REMARK    5  A    between atoms: C_21  and  C_23
REMARK    6  A    between atoms: C_21  and  N_32
REMARK    7  A    between atoms: C_23  and  C_24
REMARK                            x       y       z     vdW  Elec       q    Type
REMARK                         _______ _______ _______ _____ _____    ______ ____
ROOT
ATOM      1  C   UNL     1       6.012  -1.432  -5.455  0.00  0.00    +0.150 C 
ATOM      2  N   UNL     1       4.557  -1.269  -5.410  0.00  0.00    -0.330 N 
ATOM      3  C   UNL     1       3.872  -0.252  -4.814  0.00  0.00    +0.045 A 
ATOM      4  C   UNL     1       2.555  -0.487  -5.015  0.00  0.00    +0.080 A 
ATOM      5  N   UNL     1       2.429  -1.618  -5.708  0.00  0.00    -0.231 NA
ATOM      6  C   UNL     1       3.626  -2.106  -5.958  0.00  0.00    +0.141 A 
ATOM      7  C   UNL     1       1.460   0.418  -4.513  0.00  0.00    +0.164 C 
ATOM      8  N   UNL     1       2.074   1.383  -3.583  0.00  0.00    -0.295 N 
ATOM      9  C   UNL     1       3.347   2.010  -3.966  0.00  0.00    +0.114 C 
ATOM     10  C   UNL     1       4.430   0.928  -4.063  0.00  0.00    +0.074 C 
ATOM     11  C   UNL     1       1.485   1.679  -2.407  0.00  0.00    +0.214 C 
ATOM     12  O   UNL     1       2.006   2.471  -1.651  0.00  0.00    -0.276 OA
ENDROOT
BRANCH   6  13
ATOM     13  C   UNL     1       3.915  -3.350  -6.704  0.00  0.00    +0.018 A 
ATOM     14  C   UNL     1       5.162  -3.965  -6.585  0.00  0.00    +0.014 A 
ATOM     15  C   UNL     1       5.424  -5.127  -7.280  0.00  0.00    +0.039 A 
ATOM     16  C   UNL     1       4.455  -5.679  -8.103  0.00  0.00    +0.123 A 
ATOM     17  C   UNL     1       3.217  -5.070  -8.228  0.00  0.00    +0.039 A 
ATOM     18  C   UNL     1       2.943  -3.910  -7.535  0.00  0.00    +0.014 A 
ATOM     19  F   UNL     1       4.719  -6.815  -8.785  0.00  0.00    -0.205 F 
ENDBRANCH   6  13
BRANCH  11  20
ATOM     20  C   UNL     1       0.180   1.025  -2.033  0.00  0.00    +0.080 C 
BRANCH  20  21
ATOM     21  C   UNL     1      -0.268   1.531  -0.660  0.00  0.00    -0.062 C 
BRANCH  21  22
ATOM     22  N   UNL     1       0.693   1.092   0.361  0.00  0.00    +0.381 N 
ATOM     23  H   UNL     1       0.371   1.456   1.348  0.00  0.00    -0.090 HD
ATOM     24  H   UNL     1       1.688   1.500   0.127  0.00  0.00    -0.090 HD
ATOM     25  H   UNL     1       0.740  -0.006   0.372  0.00  0.00    -0.090 HD
ENDBRANCH  21  22
BRANCH  21  26
ATOM     26  C   UNL     1      -1.652   0.964  -0.334  0.00  0.00    +0.022 C 
BRANCH  26  27
ATOM     27  C   UNL     1      -2.146   1.558   0.960  0.00  0.00    -0.011 A 
ATOM     28  C   UNL     1      -3.050   2.603   0.940  0.00  0.00    +0.044 A 
ATOM     29  C   UNL     1      -3.504   3.148   2.128  0.00  0.00    +0.124 A 
ATOM     30  C   UNL     1      -3.053   2.646   3.337  0.00  0.00    +0.041 A 
ATOM     31  C   UNL     1      -2.149   1.602   3.357  0.00  0.00    +0.041 A 
ATOM     32  C   UNL     1      -1.699   1.053   2.168  0.00  0.00    +0.127 A 
ATOM     33  F   UNL     1      -0.819   0.028   2.188  0.00  0.00    -0.205 F 
ATOM     34  F   UNL     1      -4.388   4.170   2.109  0.00  0.00    -0.205 F 
ENDBRANCH  26  27
ENDBRANCH  21  26
ENDBRANCH  20  21
ENDBRANCH  11  20
TORSDOF 6
