REMARK  Name = ZINC19997381
REMARK  1 active torsions:
REMARK  status: ('A' for Active; 'I' for Inactive)
REMARK    1  A    between atoms: C_14  and  N_18
REMARK                            x       y       z     vdW  Elec       q    Type
REMARK                         _______ _______ _______ _____ _____    ______ ____
ROOT
ATOM      1  C   UNL     1      -0.017   1.400   0.010  0.00  0.00    +0.015 C 
ATOM      2  C   UNL     1       1.152   2.097   0.002  0.00  0.00    +0.051 C 
ATOM      3  C   UNL     1       2.378   1.411  -0.013  0.00  0.00    +0.179 C 
ATOM      4  O   UNL     1       3.522   2.093  -0.021  0.00  0.00    -0.288 OA
ATOM      5  C   UNL     1       2.397   0.007  -0.021  0.00  0.00    +0.051 C 
ATOM      6  C   UNL     1       1.228  -0.689  -0.013  0.00  0.00    +0.015 C 
ATOM      7  C   UNL     1       0.002  -0.004   0.002  0.00  0.00    +0.016 C 
ATOM      8  C   UNL     1      -1.254  -0.753   0.011  0.00  0.00    +0.141 C 
ATOM      9  N   UNL     1      -1.376  -2.108   0.010  0.00  0.00    -0.267 N 
ATOM     10  C   UNL     1      -2.696  -2.432   0.019  0.00  0.00    +0.230 C 
ATOM     11  C   UNL     1      -3.225  -3.739   0.022  0.00  0.00    +0.082 C 
ATOM     12  C   UNL     1      -2.365  -4.852   0.021  0.00  0.00    +0.018 C 
ATOM     13  C   UNL     1      -2.878  -6.112   0.024  0.00  0.00    +0.024 C 
ATOM     14  C   UNL     1      -4.262  -6.320   0.028  0.00  0.00    +0.028 C 
ATOM     15  C   UNL     1      -5.134  -5.247   0.030  0.00  0.00    +0.074 C 
ATOM     16  C   UNL     1      -4.631  -3.942   0.033  0.00  0.00    +0.193 C 
ATOM     17  O   UNL     1      -5.394  -2.984   0.039  0.00  0.00    -0.287 OA
ATOM     18  O   UNL     1      -3.407  -1.300   0.026  0.00  0.00    -0.362 OA
ATOM     19  N   UNL     1      -2.486  -0.222   0.026  0.00  0.00    -0.205 N 
ATOM     20  H   UNL     1      -0.640  -2.740   0.003  0.00  0.00    +0.157 HD
ATOM     21  H   UNL     1      -2.705   0.723   0.034  0.00  0.00    +0.209 HD
ENDROOT
BRANCH  14  22
ATOM     22  N   UNL     1      -4.763  -7.616   0.030  0.00  0.00    -0.358 N 
ATOM     23  H   UNL     1      -4.155  -8.371   0.029  0.00  0.00    +0.142 HD
ATOM     24  H   UNL     1      -5.722  -7.765   0.033  0.00  0.00    +0.142 HD
ENDBRANCH  14  22
TORSDOF 1
