REMARK  Name = ZINC39744753
REMARK  13 active torsions:
REMARK  status: ('A' for Active; 'I' for Inactive)
REMARK    1  A    between atoms: C_1  and  C_2
REMARK    2  A    between atoms: C_2  and  N_3
REMARK    3  A    between atoms: C_4  and  C_22
REMARK    4  A    between atoms: C_7  and  S_8
REMARK    5  A    between atoms: S_8  and  C_9
REMARK    6  A    between atoms: C_9  and  C_10
REMARK    7  A    between atoms: C_10  and  C_12
REMARK    8  A    between atoms: C_16  and  N_18
REMARK    9  A    between atoms: C_22  and  C_24
REMARK   10  A    between atoms: C_22  and  N_27
REMARK   11  A    between atoms: C_24  and  C_25
REMARK   12  A    between atoms: C_24  and  C_26
REMARK   13  A    between atoms: C_28  and  C_30
REMARK                            x       y       z     vdW  Elec       q    Type
REMARK                         _______ _______ _______ _____ _____    ______ ____
ROOT
ATOM      1  N   UNL     1       0.688  -0.476  -1.203  0.00  0.00    -0.305 N 
ATOM      2  C   UNL     1       0.126  -0.748  -2.420  0.00  0.00    +0.155 A 
ATOM      3  N   UNL     1       1.084  -1.140  -3.211  0.00  0.00    -0.132 NA
ATOM      4  N   UNL     1       2.205  -1.136  -2.582  0.00  0.00    -0.122 NA
ATOM      5  C   UNL     1       2.021  -0.732  -1.347  0.00  0.00    +0.192 A 
ENDROOT
BRANCH   1   7
ATOM      6  C   UNL     1      -0.019   1.526   0.010  0.00  0.00    +0.027 C 
ATOM      7  C   UNL     1       0.002  -0.004   0.002  0.00  0.00    +0.122 C 
ENDBRANCH   1   7
BRANCH   5   8
ATOM      8  S   UNL     1       3.261  -0.556  -0.107  0.00  0.00    -0.078 S 
BRANCH   8   9
ATOM      9  C   UNL     1       4.792  -1.052  -0.943  0.00  0.00    +0.157 C 
BRANCH   9  10
ATOM     10  C   UNL     1       5.947  -0.946   0.019  0.00  0.00    +0.173 C 
ATOM     11  O   UNL     1       5.756  -0.573   1.157  0.00  0.00    -0.291 OA
BRANCH  10  12
ATOM     12  C   UNL     1       7.306  -1.296  -0.422  0.00  0.00    +0.020 A 
ATOM     13  C   UNL     1       7.531  -1.721  -1.736  0.00  0.00    +0.013 A 
ATOM     14  C   UNL     1       8.807  -2.046  -2.143  0.00  0.00    +0.023 A 
ATOM     15  C   UNL     1       9.866  -1.954  -1.254  0.00  0.00    +0.071 A 
ATOM     16  C   UNL     1       9.650  -1.534   0.049  0.00  0.00    +0.145 A 
ATOM     17  C   UNL     1       8.381  -1.199   0.468  0.00  0.00    +0.045 A 
ATOM     18 CL   UNL     1      11.470  -2.366  -1.774  0.00  0.00    -0.081 Cl
BRANCH  16  19
ATOM     19  N   UNL     1      10.788  -1.438   0.992  0.00  0.00    +0.058 N 
ATOM     20  O   UNL     1      10.602  -1.072   2.129  0.00  0.00    -0.126 OA
ATOM     21  O   UNL     1      11.903  -1.727   0.625  0.00  0.00    -0.126 OA
ENDBRANCH  16  19
ENDBRANCH  10  12
ENDBRANCH   9  10
ENDBRANCH   8   9
ENDBRANCH   5   8
BRANCH   2  22
ATOM     22  C   UNL     1      -1.332  -0.617  -2.780  0.00  0.00    +0.144 C 
BRANCH  22  23
ATOM     23  N   UNL     1      -1.456   0.048  -4.080  0.00  0.00    -0.301 N 
ATOM     24  C   UNL     1      -2.583   0.720  -4.388  0.00  0.00    +0.245 C 
ATOM     25  O   UNL     1      -3.496   0.774  -3.588  0.00  0.00    -0.270 OA
ATOM     26  H   UNL     1      -0.727   0.004  -4.718  0.00  0.00    +0.150 HD
BRANCH  24  27
ATOM     27  C   UNL     1      -2.709   1.390  -5.700  0.00  0.00    +0.037 A 
ATOM     28  C   UNL     1      -1.664   1.325  -6.623  0.00  0.00    +0.013 A 
ATOM     29  C   UNL     1      -1.788   1.952  -7.846  0.00  0.00    +0.001 A 
ATOM     30  C   UNL     1      -2.944   2.646  -8.157  0.00  0.00    +0.000 A 
ATOM     31  C   UNL     1      -3.983   2.715  -7.245  0.00  0.00    +0.001 A 
ATOM     32  C   UNL     1      -3.874   2.087  -6.022  0.00  0.00    +0.013 A 
ENDBRANCH  24  27
ENDBRANCH  22  23
BRANCH  22  33
ATOM     33  C   UNL     1      -1.965  -2.007  -2.856  0.00  0.00    +0.011 C 
ATOM     34  C   UNL     1      -1.835  -2.701  -1.498  0.00  0.00    +0.009 C 
ATOM     35  C   UNL     1      -3.445  -1.875  -3.221  0.00  0.00    +0.009 C 
ENDBRANCH  22  33
ENDBRANCH   2  22
TORSDOF 10
