REMARK  Name = ZINC20452146
REMARK  5 active torsions:
REMARK  status: ('A' for Active; 'I' for Inactive)
REMARK    1  A    between atoms: C_3  and  C_12
REMARK    2  A    between atoms: C_5  and  C_6
REMARK    3  A    between atoms: N_14  and  C_15
REMARK    4  A    between atoms: C_15  and  C_16
REMARK    5  A    between atoms: C_16  and  C_17
REMARK                            x       y       z     vdW  Elec       q    Type
REMARK                         _______ _______ _______ _____ _____    ______ ____
ROOT
ATOM      1  C   UNL     1       2.698   2.905  -5.323  0.00  0.00    +0.251 C 
ATOM      2  O   UNL     1       2.951   2.321  -6.360  0.00  0.00    -0.270 OA
ATOM      3  N   UNL     1       3.323   4.063  -5.032  0.00  0.00    -0.311 N 
ATOM      4  H   UNL     1       3.093   4.591  -4.095  0.00  0.00    +0.149 HD
ENDROOT
BRANCH   1   7
ATOM      5  C   UNL     1       0.107   0.897  -3.468  0.00  0.00    +0.010 A 
ATOM      6  C   UNL     1       0.967   1.186  -4.498  0.00  0.00    +0.021 A 
ATOM      7  C   UNL     1       1.713   2.349  -4.390  0.00  0.00    +0.074 A 
ATOM      8  S   UNL     1       1.155   2.998  -2.825  0.00  0.00    -0.090 S 
ATOM      9  C   UNL     1       0.027   1.748  -2.412  0.00  0.00    -0.023 A 
BRANCH   9  10
ATOM     10  C   UNL     1      -0.837   1.636  -1.182  0.00  0.00    -0.034 C 
ATOM     11  C   UNL     1      -0.013   1.086   0.008  0.00  0.00    -0.013 C 
ATOM     12  C   UNL     1      -0.815   1.624   1.222  0.00  0.00    -0.020 C 
ATOM     13  C   UNL     1      -1.304   3.004   0.731  0.00  0.00    -0.082 C 
ATOM     14  N   UNL     1      -1.287   2.974  -0.743  0.00  0.00    +0.384 N 
ATOM     15  H   UNL     1      -0.595   3.738  -1.126  0.00  0.00    -0.085 HD
ATOM     16  H   UNL     1      -2.298   3.167  -1.133  0.00  0.00    -0.085 HD
ENDBRANCH   9  10
ENDBRANCH   1   7
BRANCH   3  17
ATOM     17  C   UNL     1       4.307   4.619  -5.964  0.00  0.00    +0.110 C 
BRANCH  17  18
ATOM     18  C   UNL     1       4.862   5.927  -5.399  0.00  0.00    +0.074 C 
BRANCH  18  19
ATOM     19  C   UNL     1       5.875   6.499  -6.358  0.00  0.00    +0.052 A 
ATOM     20  C   UNL     1       5.747   7.762  -6.829  0.00  0.00    +0.071 A 
ATOM     21  S   UNL     1       7.187   7.872  -7.881  0.00  0.00    -0.061 S 
ATOM     22  C   UNL     1       7.798   6.272  -7.596  0.00  0.00    +0.156 A 
ATOM     23  N   UNL     1       6.910   5.781  -6.753  0.00  0.00    -0.230 NA
ATOM     24  N   UNL     1       8.931   5.667  -8.117  0.00  0.00    -0.338 N 
ATOM     25  H   UNL     1       9.183   4.634  -7.834  0.00  0.00    +0.144 HD
ATOM     26  H   UNL     1       9.579   6.220  -8.814  0.00  0.00    +0.144 HD
ENDBRANCH  18  19
ENDBRANCH  17  18
ENDBRANCH   3  17
TORSDOF 5
