REMARK  Name = ZINC02917009
REMARK  4 active torsions:
REMARK  status: ('A' for Active; 'I' for Inactive)
REMARK    1  A    between atoms: C_1  and  N_2
REMARK    2  A    between atoms: C_3  and  C_16
REMARK    3  A    between atoms: N_18  and  C_19
REMARK    4  A    between atoms: C_19  and  C_20
REMARK                            x       y       z     vdW  Elec       q    Type
REMARK                         _______ _______ _______ _____ _____    ______ ____
ROOT
ATOM      1  C   UNL     1      -1.429  -1.451   0.233  0.00  0.00    +0.151 C 
ATOM      2  N   UNL     1      -2.549  -0.506   0.226  0.00  0.00    -0.324 N 
ATOM      3  C   UNL     1      -2.440   0.874   0.141  0.00  0.00    +0.106 A 
ATOM      4  C   UNL     1      -3.690   1.418   0.157  0.00  0.00    +0.048 A 
ATOM      5  C   UNL     1      -4.612   0.361   0.261  0.00  0.00    +0.084 A 
ATOM      6  C   UNL     1      -3.871  -0.840   0.307  0.00  0.00    +0.149 A 
ATOM      7  N   UNL     1      -4.514  -2.000   0.407  0.00  0.00    -0.211 NA
ATOM      8  C   UNL     1      -5.842  -2.056   0.464  0.00  0.00    +0.143 A 
ATOM      9  C   UNL     1      -6.470  -3.313   0.570  0.00  0.00    +0.047 A 
ATOM     10  C   UNL     1      -7.828  -3.383   0.630  0.00  0.00    +0.005 A 
ATOM     11  C   UNL     1      -8.585  -2.202   0.587  0.00  0.00    +0.018 A 
ATOM     12  C   UNL     1      -7.970  -1.004   0.485  0.00  0.00    +0.096 A 
ATOM     13  N   UNL     1      -6.609  -0.922   0.424  0.00  0.00    -0.268 N 
ATOM     14  C   UNL     1      -6.024   0.293   0.323  0.00  0.00    +0.268 A 
ATOM     15  O   UNL     1      -6.698   1.307   0.285  0.00  0.00    -0.267 OA
ENDROOT
BRANCH   3  16
ATOM     16  C   UNL     1      -1.186   1.625   0.043  0.00  0.00    +0.261 C 
ATOM     17  O   UNL     1      -0.127   1.032  -0.054  0.00  0.00    -0.269 OA
ATOM     18  N   UNL     1      -1.205   2.973   0.059  0.00  0.00    -0.307 N 
ATOM     19  H   UNL     1      -2.051   3.446   0.068  0.00  0.00    +0.149 HD
BRANCH  18  20
ATOM     20  C   UNL     1       0.054   3.723   0.070  0.00  0.00    +0.131 C 
BRANCH  20  21
ATOM     21  C   UNL     1      -0.242   5.200   0.095  0.00  0.00    -0.016 C 
ATOM     22  C   UNL     1       0.269   5.955   1.036  0.00  0.00    +0.005 C 
ENDBRANCH  20  21
ENDBRANCH  18  20
ENDBRANCH   3  16
TORSDOF 3
