REMARK  Name = ZINC38768456
REMARK  6 active torsions:
REMARK  status: ('A' for Active; 'I' for Inactive)
REMARK    1  A    between atoms: C_6  and  C_7
REMARK    2  A    between atoms: C_7  and  O_8
REMARK    3  A    between atoms: O_8  and  C_9
REMARK    4  A    between atoms: C_12  and  C_16
REMARK    5  A    between atoms: C_13  and  O_15
REMARK    6  A    between atoms: C_18  and  C_22
REMARK                            x       y       z     vdW  Elec       q    Type
REMARK                         _______ _______ _______ _____ _____    ______ ____
ROOT
ATOM      1  C   UNL     1      -2.875  -1.699  -1.505  0.00  0.00    +0.124 A 
ATOM      2  C   UNL     1      -3.594  -2.133  -0.400  0.00  0.00    +0.046 A 
ATOM      3  C   UNL     1      -4.773  -2.832  -0.573  0.00  0.00    +0.013 A 
ATOM      4  C   UNL     1      -5.239  -3.102  -1.846  0.00  0.00    +0.022 A 
ATOM      5  C   UNL     1      -4.523  -2.671  -2.954  0.00  0.00    +0.126 A 
ATOM      6  C   UNL     1      -3.343  -1.963  -2.783  0.00  0.00    +0.091 A 
ENDROOT
BRANCH   4   7
ATOM      7  C   UNL     1      -6.524  -3.866  -2.031  0.00  0.00    +0.164 C 
ATOM      8  C   UNL     1      -7.684  -2.916  -2.275  0.00  0.00    +0.008 C 
ATOM      9  C   UNL     1      -8.512  -3.150  -1.230  0.00  0.00    +0.139 C 
ATOM     10  N   UNL     1      -8.002  -4.090  -0.425  0.00  0.00    -0.185 NA
ATOM     11  N   UNL     1      -6.910  -4.548  -0.783  0.00  0.00    -0.297 N 
ATOM     12  H   UNL     1      -6.397  -5.232  -0.326  0.00  0.00    +0.183 HD
BRANCH   8  13
ATOM     13  C   UNL     1      -7.864  -1.966  -3.384  0.00  0.00    -0.018 A 
ATOM     14  C   UNL     1      -8.022  -2.435  -4.692  0.00  0.00    +0.009 A 
ATOM     15  C   UNL     1      -8.190  -1.540  -5.726  0.00  0.00    +0.016 A 
ATOM     16  C   UNL     1      -8.204  -0.178  -5.473  0.00  0.00    +0.018 A 
ATOM     17  C   UNL     1      -8.048   0.294  -4.180  0.00  0.00    +0.016 A 
ATOM     18  C   UNL     1      -7.885  -0.590  -3.135  0.00  0.00    +0.009 A 
ATOM     19 BR   UNL     1      -8.435   1.043  -6.898  0.00  0.00    -0.050 Br
ENDBRANCH   8  13
ENDBRANCH   4   7
BRANCH   5  20
ATOM     20  O   UNL     1      -4.981  -2.937  -4.205  0.00  0.00    -0.506 OA
ATOM     21  H   UNL     1      -5.565  -2.255  -4.563  0.00  0.00    +0.292 HD
ENDBRANCH   5  20
BRANCH   1  22
ATOM     22  O   UNL     1      -1.715  -1.011  -1.334  0.00  0.00    -0.487 OA
BRANCH  22  23
ATOM     23  C   UNL     1      -1.293  -0.775   0.010  0.00  0.00    +0.264 C 
BRANCH  23  29
ATOM     24  C   UNL     1      -0.017   1.378   0.010  0.00  0.00    +0.010 A 
ATOM     25  C   UNL     1       1.170   2.086   0.002  0.00  0.00    +0.039 A 
ATOM     26  C   UNL     1       2.379   1.410  -0.013  0.00  0.00    +0.123 A 
ATOM     27  C   UNL     1       2.396   0.026  -0.021  0.00  0.00    +0.039 A 
ATOM     28  C   UNL     1       1.208  -0.680  -0.013  0.00  0.00    +0.010 A 
ATOM     29  C   UNL     1       0.002  -0.004   0.002  0.00  0.00    -0.010 A 
ATOM     30  F   UNL     1       3.540   2.101  -0.021  0.00  0.00    -0.205 F 
ENDBRANCH  23  29
ENDBRANCH  22  23
ENDBRANCH   1  22
TORSDOF 6
