REMARK  Name = ZINC52309181
REMARK  9 active torsions:
REMARK  status: ('A' for Active; 'I' for Inactive)
REMARK    1  A    between atoms: C_1  and  C_2
REMARK    2  A    between atoms: C_2  and  C_3
REMARK    3  A    between atoms: C_3  and  C_5
REMARK    4  A    between atoms: C_3  and  N_21
REMARK    5  A    between atoms: C_5  and  C_7
REMARK    6  A    between atoms: C_5  and  S_13
REMARK    7  A    between atoms: S_13  and  C_14
REMARK    8  A    between atoms: C_16  and  C_20
REMARK    9  A    between atoms: N_18  and  C_19
REMARK                            x       y       z     vdW  Elec       q    Type
REMARK                         _______ _______ _______ _____ _____    ______ ____
ROOT
ATOM      1  C   UNL     1      -1.595  -2.103   0.087  0.00  0.00    +0.075 C 
ENDROOT
BRANCH   1   2
ATOM      2  C   UNL     1      -2.980  -2.697   0.100  0.00  0.00    +0.003 A 
ATOM      3  C   UNL     1      -3.568  -3.511  -0.811  0.00  0.00    +0.027 A 
ATOM      4  C   UNL     1      -4.864  -3.939  -0.589  0.00  0.00    +0.025 A 
ATOM      5  C   UNL     1      -5.508  -3.532   0.533  0.00  0.00    +0.060 A 
ATOM      6  S   UNL     1      -4.268  -2.519   1.323  0.00  0.00    -0.099 S 
ATOM      7 BR   UNL     1      -5.726  -5.074  -1.832  0.00  0.00    -0.050 Br
ENDBRANCH   1   2
BRANCH   1   8
ATOM      8  C   UNL     1      -1.695  -0.576   0.108  0.00  0.00    -0.057 C 
BRANCH   8   9
ATOM      9  N   UNL     1      -2.528  -0.125  -1.015  0.00  0.00    +0.381 N 
ATOM     10  H   UNL     1      -2.111  -0.422  -1.884  0.00  0.00    -0.090 HD
ATOM     11  H   UNL     1      -3.451  -0.523  -0.931  0.00  0.00    -0.090 HD
ATOM     12  H   UNL     1      -2.594   0.882  -1.002  0.00  0.00    -0.090 HD
ENDBRANCH   8   9
BRANCH   8  14
ATOM     13  C   UNL     1      -0.381   1.548   0.137  0.00  0.00    +0.002 C 
ATOM     14  C   UNL     1      -0.296   0.029  -0.020  0.00  0.00    -0.018 C 
ENDBRANCH   8  14
ENDBRANCH   1   8
BRANCH   1  15
ATOM     15  S   UNL     1      -0.680  -2.669   1.547  0.00  0.00    -0.099 S 
BRANCH  15  16
ATOM     16  C   UNL     1      -0.450  -4.393   1.264  0.00  0.00    +0.095 A 
ATOM     17  C   UNL     1      -0.596  -5.041   0.075  0.00  0.00    +0.059 A 
ATOM     18  C   UNL     1      -0.321  -6.394   0.288  0.00  0.00    +0.061 A 
ATOM     19  N   UNL     1      -0.021  -6.562   1.550  0.00  0.00    -0.176 NA
ATOM     20  N   UNL     1      -0.087  -5.318   2.191  0.00  0.00    -0.261 N 
ATOM     21  C   UNL     1       0.183  -5.061   3.607  0.00  0.00    +0.173 C 
ATOM     22  C   UNL     1      -0.364  -7.477  -0.759  0.00  0.00    +0.067 C 
ENDBRANCH  15  16
ENDBRANCH   1  15
TORSDOF 6
