REMARK  Name = ZINC09783338
REMARK  8 active torsions:
REMARK  status: ('A' for Active; 'I' for Inactive)
REMARK    1  A    between atoms: C_1  and  C_2
REMARK    2  A    between atoms: C_2  and  C_4
REMARK    3  A    between atoms: C_2  and  S_15
REMARK    4  A    between atoms: N_6  and  C_7
REMARK    5  A    between atoms: C_8  and  C_12
REMARK    6  A    between atoms: S_15  and  C_16
REMARK    7  A    between atoms: C_19  and  C_26
REMARK    8  A    between atoms: N_20  and  C_21
REMARK                            x       y       z     vdW  Elec       q    Type
REMARK                         _______ _______ _______ _____ _____    ______ ____
ROOT
ATOM      1  S   UNL     1       4.680   7.103  -0.345  0.00  0.00    -0.073 S 
ENDROOT
BRANCH   1   2
ATOM      2  C   UNL     1       3.899   5.537  -0.139  0.00  0.00    +0.193 A 
ATOM      3  N   UNL     1       4.501   4.377  -0.004  0.00  0.00    -0.122 NA
ATOM      4  N   UNL     1       3.631   3.440   0.125  0.00  0.00    -0.128 NA
ATOM      5  C   UNL     1       2.420   3.945   0.080  0.00  0.00    +0.167 A 
ATOM      6  N   UNL     1       2.554   5.303  -0.095  0.00  0.00    -0.299 N 
BRANCH   5   7
ATOM      7  C   UNL     1       1.151   3.194   0.191  0.00  0.00    +0.038 A 
ATOM      8  C   UNL     1       0.149   3.634   1.058  0.00  0.00    +0.013 A 
ATOM      9  C   UNL     1      -1.032   2.930   1.157  0.00  0.00    +0.001 A 
ATOM     10  C   UNL     1      -1.225   1.785   0.403  0.00  0.00    +0.001 A 
ATOM     11  C   UNL     1      -0.239   1.346  -0.463  0.00  0.00    +0.021 A 
ATOM     12  C   UNL     1       0.949   2.042  -0.571  0.00  0.00    +0.052 A 
ATOM     13 CL   UNL     1       2.188   1.485  -1.652  0.00  0.00    -0.083 Cl
ENDBRANCH   5   7
BRANCH   6  14
ATOM     14  C   UNL     1       1.479   6.291  -0.209  0.00  0.00    +0.091 C 
ATOM     15  C   UNL     1       1.587   7.037  -1.555  0.00  0.00    +0.025 C 
ATOM     16  C   UNL     1       1.179   8.493  -1.215  0.00  0.00    +0.002 C 
ATOM     17  C   UNL     1       1.809   8.707   0.184  0.00  0.00    +0.002 C 
ATOM     18  C   UNL     1       1.619   7.352   0.896  0.00  0.00    +0.025 C 
ENDBRANCH   6  14
ENDBRANCH   1   2
BRANCH   1  20
ATOM     19  C   UNL     1       6.716   5.710  -1.519  0.00  0.00    +0.029 C 
ATOM     20  C   UNL     1       6.417   6.595  -0.308  0.00  0.00    +0.137 C 
BRANCH  20  21
ATOM     21  C   UNL     1       7.299   7.816  -0.348  0.00  0.00    +0.231 C 
ATOM     22  O   UNL     1       6.857   8.870  -0.754  0.00  0.00    -0.274 OA
ATOM     23  N   UNL     1       8.578   7.738   0.068  0.00  0.00    -0.278 N 
ATOM     24  H   UNL     1       8.932   6.895   0.393  0.00  0.00    +0.155 HD
BRANCH  23  25
ATOM     25  C   UNL     1       9.390   8.862   0.030  0.00  0.00    +0.084 A 
ATOM     26  C   UNL     1      10.719   8.980   0.417  0.00  0.00    +0.065 A 
ATOM     27  C   UNL     1      11.326  10.281   0.266  0.00  0.00    +0.022 A 
ATOM     28  C   UNL     1      10.553  11.266  -0.225  0.00  0.00    +0.048 A 
ATOM     29  S   UNL     1       8.989  10.460  -0.502  0.00  0.00    -0.081 S 
BRANCH  26  30
ATOM     30  C   UNL     1      11.470   7.838   0.949  0.00  0.00    +0.244 C 
ATOM     31  O   UNL     1      10.929   6.753   1.061  0.00  0.00    -0.270 OA
ATOM     32  N   UNL     1      12.758   7.990   1.314  0.00  0.00    -0.325 N 
ATOM     33  H   UNL     1      13.189   8.854   1.225  0.00  0.00    +0.145 HD
ATOM     34  H   UNL     1      13.255   7.234   1.666  0.00  0.00    +0.145 HD
ENDBRANCH  26  30
ENDBRANCH  23  25
ENDBRANCH  20  21
ENDBRANCH   1  20
TORSDOF 7
