REMARK  Name = ZINC03317333
REMARK  8 active torsions:
REMARK  status: ('A' for Active; 'I' for Inactive)
REMARK    1  A    between atoms: C_1  and  C_2
REMARK    2  A    between atoms: C_2  and  C_3
REMARK    3  A    between atoms: C_2  and  C_4
REMARK    4  A    between atoms: C_2  and  C_5
REMARK    5  A    between atoms: C_5  and  C_7
REMARK    6  A    between atoms: C_7  and  S_8
REMARK    7  A    between atoms: S_8  and  C_9
REMARK    8  A    between atoms: N_22  and  C_23
REMARK                            x       y       z     vdW  Elec       q    Type
REMARK                         _______ _______ _______ _____ _____    ______ ____
ROOT
ATOM      1  C   UNL     1       3.481   1.796   1.062  0.00  0.00    +0.198 A 
ATOM      2  N   UNL     1       4.125   0.687   1.336  0.00  0.00    -0.120 NA
ATOM      3  N   UNL     1       3.416  -0.330   0.999  0.00  0.00    -0.109 NA
ATOM      4  C   UNL     1       2.274   0.065   0.488  0.00  0.00    +0.245 A 
ATOM      5  N   UNL     1       2.280   1.435   0.513  0.00  0.00    -0.255 N 
ATOM      6  C   UNL     1       1.197   2.162   0.035  0.00  0.00    +0.064 A 
ATOM      7  C   UNL     1       1.195   3.549   0.057  0.00  0.00    +0.027 A 
ATOM      8  C   UNL     1       0.103   4.243  -0.425  0.00  0.00    +0.002 A 
ATOM      9  C   UNL     1      -0.995   3.566  -0.932  0.00  0.00    +0.001 A 
ATOM     10  C   UNL     1      -1.013   2.187  -0.957  0.00  0.00    +0.015 A 
ATOM     11  C   UNL     1       0.085   1.475  -0.478  0.00  0.00    +0.064 A 
ATOM     12  C   UNL     1       0.106   0.001  -0.493  0.00  0.00    +0.268 A 
ATOM     13  O   UNL     1      -0.840  -0.626  -0.930  0.00  0.00    -0.267 OA
ATOM     14  N   UNL     1       1.191  -0.641  -0.013  0.00  0.00    -0.245 N 
ENDROOT
BRANCH  14  15
ATOM     15  C   UNL     1       1.224  -2.041  -0.021  0.00  0.00    +0.053 A 
ATOM     16  C   UNL     1       0.748  -2.755   1.071  0.00  0.00    +0.026 A 
ATOM     17  C   UNL     1       0.776  -4.135   1.057  0.00  0.00    +0.002 A 
ATOM     18  C   UNL     1       1.289  -4.807  -0.038  0.00  0.00    +0.000 A 
ATOM     19  C   UNL     1       1.769  -4.099  -1.124  0.00  0.00    +0.002 A 
ATOM     20  C   UNL     1       1.738  -2.718  -1.119  0.00  0.00    +0.026 A 
ENDBRANCH  14  15
BRANCH   1  21
ATOM     21  S   UNL     1       4.052   3.438   1.347  0.00  0.00    -0.078 S 
BRANCH  21  22
ATOM     22  C   UNL     1       5.693   3.210   2.087  0.00  0.00    +0.152 C 
BRANCH  22  23
ATOM     23  C   UNL     1       6.301   4.556   2.384  0.00  0.00    +0.149 C 
ATOM     24  O   UNL     1       5.691   5.566   2.124  0.00  0.00    -0.296 OA
BRANCH  23  26
ATOM     25  C   UNL     1       8.051   6.112   3.201  0.00  0.00    +0.018 C 
ATOM     26  C   UNL     1       7.671   4.643   3.006  0.00  0.00    +0.021 C 
ATOM     27  C   UNL     1       7.662   3.934   4.362  0.00  0.00    +0.018 C 
ATOM     28  C   UNL     1       8.693   3.971   2.086  0.00  0.00    +0.018 C 
ENDBRANCH  23  26
ENDBRANCH  22  23
ENDBRANCH  21  22
ENDBRANCH   1  21
TORSDOF 5
