REMARK  Name = ZINC36093644
REMARK  8 active torsions:
REMARK  status: ('A' for Active; 'I' for Inactive)
REMARK    1  A    between atoms: C_1  and  N_2
REMARK    2  A    between atoms: C_10  and  O_33
REMARK    3  A    between atoms: C_12  and  C_15
REMARK    4  A    between atoms: C_18  and  O_23
REMARK    5  A    between atoms: C_19  and  O_21
REMARK    6  A    between atoms: O_21  and  C_22
REMARK    7  A    between atoms: O_23  and  C_24
REMARK    8  A    between atoms: C_24  and  C_26
REMARK                            x       y       z     vdW  Elec       q    Type
REMARK                         _______ _______ _______ _____ _____    ______ ____
ROOT
ATOM      1  C   UNL     1      -0.196   1.424  -0.143  0.00  0.00    -0.096 C 
ATOM      2  N   UNL     1      -0.148  -0.044  -0.128  0.00  0.00    +0.381 N 
ATOM      3  C   UNL     1      -1.517  -0.578  -0.116  0.00  0.00    -0.074 C 
ATOM      4  C   UNL     1      -1.501  -2.081  -0.414  0.00  0.00    +0.018 C 
ATOM      5  C   UNL     1      -0.512  -2.737   0.540  0.00  0.00    -0.027 A 
ATOM      6  C   UNL     1       0.404  -1.981   1.192  0.00  0.00    -0.021 A 
ATOM      7  S   UNL     1       1.322  -3.134   2.173  0.00  0.00    -0.080 S 
ATOM      8  C   UNL     1       0.547  -4.536   1.745  0.00  0.00    +0.080 A 
ATOM      9  C   UNL     1      -0.449  -4.154   0.837  0.00  0.00    +0.067 A 
ATOM     10  C   UNL     1      -1.324  -5.223   0.291  0.00  0.00    +0.220 C 
ATOM     11  N   UNL     1      -0.962  -6.462   0.487  0.00  0.00    -0.223 NA
ATOM     12  C   UNL     1       0.272  -6.867   1.148  0.00  0.00    +0.224 C 
ATOM     13  N   UNL     1       0.732  -5.850   2.111  0.00  0.00    -0.313 N 
ATOM     14  C   UNL     1       0.571  -0.500   1.076  0.00  0.00    -0.036 C 
ATOM     15  H   UNL     1       1.142  -6.094   2.955  0.00  0.00    +0.149 HD
ATOM     16  H   UNL     1       0.333  -0.373  -0.952  0.00  0.00    -0.082 HD
ENDROOT
BRANCH  12  17
ATOM     17  C   UNL     1       1.341  -7.077   0.107  0.00  0.00    -0.002 A 
ATOM     18  C   UNL     1       2.668  -6.860   0.429  0.00  0.00    +0.011 A 
ATOM     19  C   UNL     1       3.653  -7.050  -0.522  0.00  0.00    +0.050 A 
ATOM     20  C   UNL     1       3.312  -7.461  -1.801  0.00  0.00    +0.173 A 
ATOM     21  C   UNL     1       1.976  -7.680  -2.124  0.00  0.00    +0.163 A 
ATOM     22  C   UNL     1       0.994  -7.492  -1.165  0.00  0.00    +0.056 A 
BRANCH  21  23
ATOM     23  O   UNL     1       1.635  -8.083  -3.378  0.00  0.00    -0.491 OA
ATOM     24  C   UNL     1       0.245  -8.288  -3.638  0.00  0.00    +0.277 C 
ENDBRANCH  21  23
BRANCH  20  25
ATOM     25  O   UNL     1       4.279  -7.649  -2.738  0.00  0.00    -0.419 OA
BRANCH  25  26
ATOM     26  C   UNL     1       4.498  -6.662  -3.628  0.00  0.00    +0.345 C 
ATOM     27  O   UNL     1       3.910  -5.604  -3.519  0.00  0.00    -0.245 OA
BRANCH  26  28
ATOM     28  C   UNL     1       5.453  -6.864  -4.736  0.00  0.00    +0.059 A 
ATOM     29  C   UNL     1       6.126  -8.081  -4.867  0.00  0.00    +0.016 A 
ATOM     30  C   UNL     1       7.016  -8.264  -5.904  0.00  0.00    +0.021 A 
ATOM     31  C   UNL     1       7.244  -7.245  -6.814  0.00  0.00    +0.041 A 
ATOM     32  C   UNL     1       6.579  -6.036  -6.689  0.00  0.00    +0.021 A 
ATOM     33  C   UNL     1       5.682  -5.843  -5.660  0.00  0.00    +0.016 A 
ATOM     34 CL   UNL     1       8.367  -7.483  -8.116  0.00  0.00    -0.084 Cl
ENDBRANCH  26  28
ENDBRANCH  25  26
ENDBRANCH  20  25
ENDBRANCH  12  17
BRANCH  10  35
ATOM     35  O   UNL     1      -2.457  -4.923  -0.386  0.00  0.00    -0.492 OA
ATOM     36  H   UNL     1      -2.947  -5.697  -0.695  0.00  0.00    +0.294 HD
ENDBRANCH  10  35
TORSDOF 6
