REMARK  Name = ZINC08453501
REMARK  18 active torsions:
REMARK  status: ('A' for Active; 'I' for Inactive)
REMARK    1  A    between atoms: C_1  and  C_2
REMARK    2  A    between atoms: C_2  and  C_3
REMARK    3  A    between atoms: C_3  and  C_4
REMARK    4  A    between atoms: C_4  and  C_5
REMARK    5  A    between atoms: C_5  and  C_6
REMARK    6  A    between atoms: C_6  and  N_7
REMARK    7  A    between atoms: C_8  and  C_31
REMARK    8  A    between atoms: C_11  and  C_21
REMARK    9  A    between atoms: N_12  and  C_15
REMARK   10  A    between atoms: C_15  and  C_16
REMARK   11  A    between atoms: C_16  and  C_17
REMARK   12  A    between atoms: C_17  and  C_18
REMARK   13  A    between atoms: C_18  and  C_19
REMARK   14  A    between atoms: C_19  and  C_20
REMARK   15  A    between atoms: C_23  and  O_28
REMARK   16  A    between atoms: C_25  and  O_27
REMARK   17  A    between atoms: C_33  and  O_38
REMARK   18  A    between atoms: C_35  and  O_37
REMARK                            x       y       z     vdW  Elec       q    Type
REMARK                         _______ _______ _______ _____ _____    ______ ____
ROOT
ATOM      1  N   UNL     1       7.083   4.224   2.891  0.00  0.00    -0.266 N 
ATOM      2  C   UNL     1       6.654   3.839   4.134  0.00  0.00    +0.057 C 
ATOM      3  C   UNL     1       5.486   3.111   4.028  0.00  0.00    +0.073 C 
ATOM      4  C   UNL     1       5.173   3.045   2.581  0.00  0.00    +0.073 C 
ATOM      5  C   UNL     1       4.005   2.317   2.474  0.00  0.00    +0.057 C 
ATOM      6  N   UNL     1       3.573   1.938   3.718  0.00  0.00    -0.266 N 
ATOM      7  C   UNL     1       4.410   2.372   4.680  0.00  0.00    +0.253 C 
ATOM      8  O   UNL     1       4.287   2.187   5.878  0.00  0.00    -0.270 OA
ATOM      9  C   UNL     1       6.249   3.784   1.929  0.00  0.00    +0.253 C 
ATOM     10  O   UNL     1       6.370   3.971   0.731  0.00  0.00    -0.270 OA
ENDROOT
BRANCH   2  11
ATOM     11  C   UNL     1       7.339   4.157   5.400  0.00  0.00    +0.004 A 
ATOM     12  C   UNL     1       6.619   4.688   6.474  0.00  0.00    +0.055 A 
ATOM     13  C   UNL     1       7.266   4.979   7.662  0.00  0.00    +0.121 A 
ATOM     14  C   UNL     1       8.630   4.755   7.785  0.00  0.00    +0.090 A 
ATOM     15  C   UNL     1       9.351   4.234   6.720  0.00  0.00    +0.121 A 
ATOM     16  C   UNL     1       8.713   3.934   5.529  0.00  0.00    +0.055 A 
BRANCH  13  17
ATOM     17  O   UNL     1       6.565   5.490   8.709  0.00  0.00    -0.507 OA
ATOM     18  H   UNL     1       6.523   6.456   8.719  0.00  0.00    +0.292 HD
ENDBRANCH  13  17
BRANCH  15  19
ATOM     19  O   UNL     1      10.687   4.018   6.847  0.00  0.00    -0.507 OA
ATOM     20  H   UNL     1      11.234   4.773   6.591  0.00  0.00    +0.292 HD
ENDBRANCH  15  19
ENDBRANCH   2  11
BRANCH   5  21
ATOM     21  C   UNL     1       3.319   2.000   1.209  0.00  0.00    +0.004 A 
ATOM     22  C   UNL     1       4.040   1.474   0.133  0.00  0.00    +0.055 A 
ATOM     23  C   UNL     1       3.392   1.178  -1.053  0.00  0.00    +0.121 A 
ATOM     24  C   UNL     1       2.027   1.402  -1.176  0.00  0.00    +0.090 A 
ATOM     25  C   UNL     1       1.306   1.924  -0.111  0.00  0.00    +0.121 A 
ATOM     26  C   UNL     1       1.947   2.229   1.078  0.00  0.00    +0.055 A 
BRANCH  23  27
ATOM     27  O   UNL     1       4.092   0.667  -2.100  0.00  0.00    -0.507 OA
ATOM     28  H   UNL     1       4.455   1.338  -2.695  0.00  0.00    +0.292 HD
ENDBRANCH  23  27
BRANCH  25  29
ATOM     29  O   UNL     1      -0.029   2.141  -0.237  0.00  0.00    -0.507 OA
ATOM     30  H   UNL     1      -0.576   1.386   0.018  0.00  0.00    +0.292 HD
ENDBRANCH  25  29
ENDBRANCH   5  21
BRANCH   6  31
ATOM     31  C   UNL     1       2.359   1.157   3.970  0.00  0.00    +0.114 C 
BRANCH  31  32
ATOM     32  C   UNL     1       2.671  -0.334   3.820  0.00  0.00    +0.019 C 
BRANCH  32  33
ATOM     33  C   UNL     1       1.403  -1.149   4.082  0.00  0.00    +0.002 C 
BRANCH  33  34
ATOM     34  C   UNL     1       1.715  -2.639   3.932  0.00  0.00    -0.000 C 
BRANCH  34  35
ATOM     35  C   UNL     1       0.448  -3.455   4.194  0.00  0.00    -0.003 C 
ATOM     36  C   UNL     1       0.760  -4.945   4.045  0.00  0.00    +0.004 C 
ENDBRANCH  34  35
ENDBRANCH  33  34
ENDBRANCH  32  33
ENDBRANCH  31  32
ENDBRANCH   6  31
BRANCH   1  37
ATOM     37  C   UNL     1       8.293   5.011   2.640  0.00  0.00    +0.114 C 
BRANCH  37  38
ATOM     38  C   UNL     1       7.974   6.499   2.794  0.00  0.00    +0.019 C 
BRANCH  38  39
ATOM     39  C   UNL     1       9.237   7.321   2.532  0.00  0.00    +0.002 C 
BRANCH  39  40
ATOM     40  C   UNL     1       8.918   8.810   2.686  0.00  0.00    -0.000 C 
BRANCH  40  42
ATOM     41  C   UNL     1       9.863  11.120   2.578  0.00  0.00    +0.004 C 
ATOM     42  C   UNL     1      10.182   9.632   2.424  0.00  0.00    -0.003 C 
ENDBRANCH  40  42
ENDBRANCH  39  40
ENDBRANCH  38  39
ENDBRANCH  37  38
ENDBRANCH   1  37
TORSDOF 16
