REMARK  Name = ZINC34755917
REMARK  5 active torsions:
REMARK  status: ('A' for Active; 'I' for Inactive)
REMARK    1  A    between atoms: C_1  and  C_2
REMARK    2  A    between atoms: C_2  and  S_3
REMARK    3  A    between atoms: S_3  and  C_4
REMARK    4  A    between atoms: N_20  and  C_23
REMARK    5  A    between atoms: C_23  and  C_24
REMARK                            x       y       z     vdW  Elec       q    Type
REMARK                         _______ _______ _______ _____ _____    ______ ____
ROOT
ATOM      1  C   UNL     1       0.806  -2.359   1.324  0.00  0.00    +0.191 A 
ATOM      2  N   UNL     1       1.366  -3.116   2.261  0.00  0.00    -0.206 NA
ATOM      3  C   UNL     1       1.363  -4.436   2.193  0.00  0.00    +0.134 A 
ATOM      4  C   UNL     1       0.741  -5.074   1.083  0.00  0.00    +0.051 A 
ATOM      5  C   UNL     1       0.620  -6.506   0.800  0.00  0.00    -0.025 A 
ATOM      6  C   UNL     1      -0.023  -6.854  -0.333  0.00  0.00    -0.004 A 
ATOM      7  S   UNL     1      -0.500  -5.320  -1.083  0.00  0.00    -0.073 S 
ATOM      8  C   UNL     1       0.168  -4.210   0.129  0.00  0.00    +0.115 A 
ATOM      9  N   UNL     1       0.208  -2.899   0.271  0.00  0.00    -0.215 NA
ATOM     10  C   UNL     1      -0.276  -8.239  -0.844  0.00  0.00    +0.043 C 
ATOM     11  C   UNL     1       0.629  -9.213  -0.076  0.00  0.00    +0.005 C 
ATOM     12  C   UNL     1       0.517  -8.910   1.421  0.00  0.00    +0.005 C 
ATOM     13  C   UNL     1       1.189  -7.572   1.732  0.00  0.00    +0.037 C 
ATOM     14  N   UNL     1       1.957  -5.189   3.189  0.00  0.00    -0.318 N 
ATOM     15  C   UNL     1       3.340  -5.670   3.051  0.00  0.00    +0.088 C 
ATOM     16  C   UNL     1       4.113  -5.298   4.320  0.00  0.00    -0.059 C 
ATOM     17  N   UNL     1       3.405  -5.821   5.495  0.00  0.00    +0.387 N 
ATOM     18  C   UNL     1       2.096  -5.166   5.622  0.00  0.00    -0.059 C 
ATOM     19  C   UNL     1       1.226  -5.527   4.420  0.00  0.00    +0.088 C 
ATOM     20  H   UNL     1       3.273  -6.816   5.391  0.00  0.00    -0.081 HD
ENDROOT
BRANCH   1  21
ATOM     21  S   UNL     1       0.853  -0.606   1.487  0.00  0.00    -0.086 S 
BRANCH  21  23
ATOM     22  C   UNL     1      -0.054   1.525   0.031  0.00  0.00    +0.016 C 
ATOM     23  C   UNL     1      -0.020  -0.005   0.015  0.00  0.00    +0.074 C 
ENDBRANCH  21  23
ENDBRANCH   1  21
BRANCH  17  24
ATOM     24  C   UNL     1       4.201  -5.559   6.702  0.00  0.00    +0.018 C 
BRANCH  24  25
ATOM     25  C   UNL     1       3.536  -6.202   7.891  0.00  0.00    +0.194 C 
ATOM     26  O   UNL     1       2.500  -6.817   7.748  0.00  0.00    -0.278 OA
ATOM     27  N   UNL     1       4.091  -6.093   9.114  0.00  0.00    -0.331 N 
ATOM     28  H   UNL     1       4.919  -5.601   9.229  0.00  0.00    +0.145 HD
ATOM     29  H   UNL     1       3.663  -6.507   9.880  0.00  0.00    +0.145 HD
ENDBRANCH  24  25
ENDBRANCH  17  24
TORSDOF 4
