REMARK  Name = ZINC40385588
REMARK  4 active torsions:
REMARK  status: ('A' for Active; 'I' for Inactive)
REMARK    1  A    between atoms: C_16  and  C_20
REMARK    2  A    between atoms: C_17  and  N_19
REMARK    3  A    between atoms: C_20  and  N_22
REMARK    4  A    between atoms: N_22  and  C_23
REMARK                            x       y       z     vdW  Elec       q    Type
REMARK                         _______ _______ _______ _____ _____    ______ ____
ROOT
ATOM      1  C   UNL     1       1.960   2.639  -1.175  0.00  0.00    +0.000 A 
ATOM      2  C   UNL     1       3.231   2.739  -1.710  0.00  0.00    +0.000 A 
ATOM      3  C   UNL     1       4.084   1.656  -1.653  0.00  0.00    +0.005 A 
ATOM      4  C   UNL     1       3.677   0.469  -1.058  0.00  0.00    -0.027 A 
ATOM      5  C   UNL     1       2.416   0.371  -0.516  0.00  0.00    -0.041 A 
ATOM      6  C   UNL     1       1.556   1.461  -0.582  0.00  0.00    +0.004 A 
ATOM      7  C   UNL     1       1.916  -0.872   0.171  0.00  0.00    +0.054 C 
ATOM      8  C   UNL     1       2.736  -2.091  -0.246  0.00  0.00    +0.113 C 
ATOM      9  N   UNL     1       4.161  -1.734  -0.149  0.00  0.00    -0.296 N 
ATOM     10  C   UNL     1       4.654  -0.680  -1.042  0.00  0.00    +0.143 C 
ATOM     11  C   UNL     1       4.991  -2.359   0.738  0.00  0.00    +0.200 A 
ATOM     12  N   UNL     1       6.322  -2.076   0.711  0.00  0.00    -0.294 N 
ATOM     13  H   UNL     1       6.666  -1.437   0.067  0.00  0.00    +0.172 HD
ATOM     14  C   UNL     1       7.165  -2.678   1.576  0.00  0.00    +0.264 A 
ATOM     15  O   UNL     1       8.358  -2.428   1.558  0.00  0.00    -0.267 OA
ATOM     16  C   UNL     1       6.633  -3.606   2.506  0.00  0.00    +0.107 A 
ATOM     17  C   UNL     1       5.247  -3.856   2.482  0.00  0.00    +0.135 A 
ATOM     18  N   UNL     1       4.480  -3.216   1.599  0.00  0.00    -0.200 NA
ENDROOT
BRANCH  17  19
ATOM     19  N   UNL     1       4.690  -4.748   3.365  0.00  0.00    -0.342 N 
ATOM     20  H   UNL     1       5.237  -5.154   4.056  0.00  0.00    +0.144 HD
ATOM     21  H   UNL     1       3.748  -4.973   3.298  0.00  0.00    +0.144 HD
ENDBRANCH  17  19
BRANCH  16  22
ATOM     22  C   UNL     1       7.502  -4.288   3.466  0.00  0.00    +0.092 C 
ATOM     23  S   UNL     1       7.881  -3.541   4.959  0.00  0.00    -0.034 S 
BRANCH  22  24
ATOM     24  N   UNL     1       8.005  -5.504   3.174  0.00  0.00    -0.308 N 
ATOM     25  H   UNL     1       7.741  -5.954   2.357  0.00  0.00    +0.153 HD
BRANCH  24  26
ATOM     26  C   UNL     1       8.906  -6.116   4.050  0.00  0.00    +0.034 A 
ATOM     27  C   UNL     1       8.647  -6.133   5.415  0.00  0.00    +0.043 A 
ATOM     28  C   UNL     1       9.540  -6.739   6.279  0.00  0.00    +0.044 A 
ATOM     29  C   UNL     1      10.690  -7.329   5.786  0.00  0.00    +0.040 A 
ATOM     30  C   UNL     1      10.950  -7.314   4.427  0.00  0.00    +0.044 A 
ATOM     31  C   UNL     1      10.058  -6.715   3.557  0.00  0.00    +0.043 A 
ATOM     32 CL   UNL     1      12.395  -8.055   3.812  0.00  0.00    -0.083 Cl
ATOM     33 CL   UNL     1       9.217  -6.760   7.985  0.00  0.00    -0.083 Cl
ENDBRANCH  24  26
ENDBRANCH  22  24
ENDBRANCH  16  22
TORSDOF 4
