REMARK  Name = ZINC42858769
REMARK  6 active torsions:
REMARK  status: ('A' for Active; 'I' for Inactive)
REMARK    1  A    between atoms: C_1  and  C_2
REMARK    2  A    between atoms: C_8  and  C_10
REMARK    3  A    between atoms: C_10  and  N_11
REMARK    4  A    between atoms: N_11  and  S_12
REMARK    5  A    between atoms: S_12  and  C_15
REMARK    6  A    between atoms: C_18  and  N_22
REMARK                            x       y       z     vdW  Elec       q    Type
REMARK                         _______ _______ _______ _____ _____    ______ ____
ROOT
ATOM      1  S   UNL     1       4.576  -0.582   2.326  0.00  0.00    +0.059 S 
ATOM      2  O   UNL     1       5.110  -1.311   3.423  0.00  0.00    -0.153 OA
ATOM      3  O   UNL     1       4.832  -0.941   0.975  0.00  0.00    -0.153 OA
ENDROOT
BRANCH   1   4
ATOM      4  C   UNL     1       5.120   1.083   2.516  0.00  0.00    +0.119 A 
ATOM      5  C   UNL     1       5.707   1.743   1.452  0.00  0.00    +0.031 A 
ATOM      6  C   UNL     1       6.135   3.048   1.598  0.00  0.00    +0.025 A 
ATOM      7  C   UNL     1       5.975   3.699   2.815  0.00  0.00    +0.026 A 
ATOM      8  C   UNL     1       5.385   3.034   3.882  0.00  0.00    +0.040 A 
ATOM      9  C   UNL     1       4.954   1.730   3.728  0.00  0.00    +0.046 A 
ATOM     10 BR   UNL     1       4.143   0.826   5.178  0.00  0.00    -0.048 Br
BRANCH   7  11
ATOM     11  N   UNL     1       6.408   5.018   2.965  0.00  0.00    -0.358 N 
ATOM     12  H   UNL     1       6.820   5.482   2.219  0.00  0.00    +0.142 HD
ATOM     13  H   UNL     1       6.295   5.472   3.815  0.00  0.00    +0.142 HD
ENDBRANCH   7  11
ENDBRANCH   1   4
BRANCH   1  14
ATOM     14  N   UNL     1       2.931  -0.583   2.513  0.00  0.00    -0.190 NA
ATOM     15  H   UNL     1       2.528  -1.052   3.260  0.00  0.00    +0.148 HD
BRANCH  14  16
ATOM     16  C   UNL     1       2.084   0.123   1.549  0.00  0.00    +0.109 C 
BRANCH  16  23
ATOM     17  C   UNL     1      -0.158   1.833   0.752  0.00  0.00    +0.008 C 
ATOM     18  C   UNL     1      -0.232   0.310   0.628  0.00  0.00    -0.010 C 
ATOM     19  C   UNL     1      -1.683  -0.146   0.794  0.00  0.00    +0.003 C 
ATOM     20  C   UNL     1      -2.196   0.279   2.171  0.00  0.00    +0.000 C 
ATOM     21  C   UNL     1      -1.332  -0.364   3.258  0.00  0.00    +0.000 C 
ATOM     22  C   UNL     1       0.119   0.092   3.092  0.00  0.00    +0.005 C 
ATOM     23  C   UNL     1       0.633  -0.333   1.715  0.00  0.00    +0.007 C 
ENDBRANCH  16  23
ENDBRANCH  14  16
ENDBRANCH   1  14
TORSDOF 5
