REMARK  Name = ZINC38975485
REMARK  7 active torsions:
REMARK  status: ('A' for Active; 'I' for Inactive)
REMARK    1  A    between atoms: C_1  and  C_2
REMARK    2  A    between atoms: C_6  and  N_9
REMARK    3  A    between atoms: C_7  and  C_8
REMARK    4  A    between atoms: N_9  and  C_10
REMARK    5  A    between atoms: C_10  and  C_11
REMARK    6  A    between atoms: C_18  and  C_23
REMARK    7  A    between atoms: C_24  and  C_26
REMARK                            x       y       z     vdW  Elec       q    Type
REMARK                         _______ _______ _______ _____ _____    ______ ____
ROOT
ATOM      1  N   UNL     1      -0.014  -2.790   2.135  0.00  0.00    -0.266 N 
ATOM      2  C   UNL     1      -1.154  -3.094   2.787  0.00  0.00    +0.257 C 
ATOM      3  O   UNL     1      -1.116  -3.777   3.794  0.00  0.00    -0.269 OA
ENDROOT
BRANCH   1   9
ATOM      4  C   UNL     1       0.139   1.647   0.025  0.00  0.00    +0.044 C 
ATOM      5  C   UNL     1       0.014   0.148  -0.073  0.00  0.00    -0.046 A 
ATOM      6  C   UNL     1      -0.144  -0.452  -1.309  0.00  0.00    +0.004 A 
ATOM      7  C   UNL     1      -0.259  -1.826  -1.404  0.00  0.00    +0.002 A 
ATOM      8  C   UNL     1      -0.216  -2.605  -0.264  0.00  0.00    +0.024 A 
ATOM      9  C   UNL     1      -0.057  -2.005   0.979  0.00  0.00    +0.040 A 
ATOM     10  C   UNL     1       0.063  -0.624   1.070  0.00  0.00    -0.026 A 
ATOM     11  C   UNL     1       0.241   0.030   2.416  0.00  0.00    +0.046 C 
ENDBRANCH   1   9
BRANCH   2  12
ATOM     12  C   UNL     1      -2.439  -2.601   2.284  0.00  0.00    +0.074 A 
ATOM     13  C   UNL     1      -3.711  -2.791   2.802  0.00  0.00    +0.021 A 
ATOM     14  C   UNL     1      -4.735  -2.199   2.102  0.00  0.00    +0.008 A 
ATOM     15  C   UNL     1      -4.445  -1.488   0.984  0.00  0.00    +0.046 A 
ATOM     16  S   UNL     1      -2.773  -1.594   0.851  0.00  0.00    -0.092 S 
ENDBRANCH   2  12
BRANCH   1  17
ATOM     17  C   UNL     1       1.271  -3.283   2.638  0.00  0.00    +0.131 C 
BRANCH  17  18
ATOM     18  C   UNL     1       1.660  -4.556   1.884  0.00  0.00    +0.116 C 
ATOM     19  C   UNL     1       3.119  -4.843   2.178  0.00  0.00    -0.003 C 
ATOM     20  C   UNL     1       3.417  -6.050   2.740  0.00  0.00    -0.007 A 
ATOM     21  C   UNL     1       4.800  -6.409   3.056  0.00  0.00    +0.009 A 
ATOM     22  C   UNL     1       5.050  -7.622   3.614  0.00  0.00    +0.001 A 
ATOM     23  C   UNL     1       4.020  -8.522   3.887  0.00  0.00    +0.005 A 
ATOM     24  C   UNL     1       2.717  -8.249   3.617  0.00  0.00    -0.029 A 
ATOM     25  C   UNL     1       2.350  -7.019   3.039  0.00  0.00    +0.043 A 
ATOM     26  N   UNL     1       1.068  -6.762   2.780  0.00  0.00    -0.284 N 
ATOM     27  C   UNL     1       0.655  -5.629   2.237  0.00  0.00    +0.226 C 
ATOM     28  O   UNL     1      -0.529  -5.451   2.024  0.00  0.00    -0.275 OA
ATOM     29  C   UNL     1       1.657  -9.270   3.939  0.00  0.00    +0.045 C 
ATOM     30  H   UNL     1       0.407  -7.437   2.999  0.00  0.00    +0.155 HD
ENDBRANCH  17  18
ENDBRANCH   1  17
TORSDOF 4
