REMARK  Name = ZINC06596478
REMARK  9 active torsions:
REMARK  status: ('A' for Active; 'I' for Inactive)
REMARK    1  A    between atoms: C_1  and  C_2
REMARK    2  A    between atoms: C_2  and  C_3
REMARK    3  A    between atoms: C_3  and  C_5
REMARK    4  A    between atoms: C_3  and  N_15
REMARK    5  A    between atoms: C_16  and  C_18
REMARK    6  A    between atoms: C_18  and  C_19
REMARK    7  A    between atoms: C_18  and  C_20
REMARK    8  A    between atoms: C_18  and  O_21
REMARK    9  A    between atoms: O_21  and  C_22
REMARK                            x       y       z     vdW  Elec       q    Type
REMARK                         _______ _______ _______ _____ _____    ______ ____
ROOT
ATOM      1  N   UNL     1       4.641  -0.360  -2.260  0.00  0.00    -0.309 N 
ATOM      2  C   UNL     1       5.055  -0.080  -3.512  0.00  0.00    +0.257 C 
ATOM      3  O   UNL     1       4.417  -0.476  -4.464  0.00  0.00    -0.271 OA
ATOM      4  H   UNL     1       5.151  -0.043  -1.498  0.00  0.00    +0.149 HD
ENDROOT
BRANCH   2   5
ATOM      5  C   UNL     1       6.310   0.725  -3.728  0.00  0.00    +0.180 C 
ATOM      6  C   UNL     1       6.154   2.099  -3.075  0.00  0.00    +0.065 C 
ATOM      7  C   UNL     1       7.499  -0.006  -3.101  0.00  0.00    +0.065 C 
BRANCH   5   8
ATOM      8  O   UNL     1       6.536   0.887  -5.130  0.00  0.00    -0.477 OA
BRANCH   8   9
ATOM      9  C   UNL     1       5.574   1.533  -5.840  0.00  0.00    +0.122 A 
ATOM     10  C   UNL     1       4.386   1.901  -5.225  0.00  0.00    +0.047 A 
ATOM     11  C   UNL     1       3.412   2.562  -5.946  0.00  0.00    +0.023 A 
ATOM     12  C   UNL     1       3.615   2.849  -7.285  0.00  0.00    +0.041 A 
ATOM     13  C   UNL     1       4.798   2.479  -7.901  0.00  0.00    +0.023 A 
ATOM     14  C   UNL     1       5.777   1.822  -7.181  0.00  0.00    +0.047 A 
ATOM     15 CL   UNL     1       2.387   3.675  -8.191  0.00  0.00    -0.084 Cl
ENDBRANCH   8   9
ENDBRANCH   5   8
ENDBRANCH   2   5
BRANCH   1  16
ATOM     16  C   UNL     1       3.421  -1.143  -2.050  0.00  0.00    +0.079 C 
BRANCH  16  17
ATOM     17  C   UNL     1       2.833  -0.812  -0.676  0.00  0.00    -0.010 C 
ATOM     18  C   UNL     1       1.558  -1.629  -0.456  0.00  0.00    +0.012 C 
ATOM     19  C   UNL     1       0.971  -1.298   0.917  0.00  0.00    -0.010 C 
ATOM     20  C   UNL     1       0.637   0.194   0.983  0.00  0.00    +0.007 C 
ATOM     21  C   UNL     1       1.912   1.011   0.763  0.00  0.00    -0.010 C 
ATOM     22  C   UNL     1       2.500   0.680  -0.610  0.00  0.00    +0.012 C 
ATOM     23  C   UNL     1       2.932   0.668   1.851  0.00  0.00    +0.007 C 
ATOM     24  C   UNL     1       3.265  -0.824   1.785  0.00  0.00    -0.010 C 
ATOM     25  C   UNL     1       1.991  -1.641   2.004  0.00  0.00    +0.007 C 
ATOM     26  C   UNL     1       3.853  -1.155   0.411  0.00  0.00    +0.012 C 
ENDBRANCH  16  17
BRANCH  16  28
ATOM     27  C   UNL     1       4.224  -2.990  -3.527  0.00  0.00    +0.006 C 
ATOM     28  C   UNL     1       3.754  -2.635  -2.116  0.00  0.00    +0.019 C 
ENDBRANCH  16  28
ENDBRANCH   1  16
TORSDOF 6
