REMARK  Name = ZINC35682660
REMARK  5 active torsions:
REMARK  status: ('A' for Active; 'I' for Inactive)
REMARK    1  A    between atoms: C_4  and  N_7
REMARK    2  A    between atoms: C_16  and  N_20
REMARK    3  A    between atoms: N_20  and  N_21
REMARK    4  A    between atoms: C_22  and  C_24
REMARK    5  A    between atoms: C_24  and  N_25
REMARK                            x       y       z     vdW  Elec       q    Type
REMARK                         _______ _______ _______ _____ _____    ______ ____
ROOT
ATOM      1  N   UNL     1       2.839  -0.440  -2.473  0.00  0.00    -0.258 N 
ATOM      2  C   UNL     1       3.943  -1.205  -2.362  0.00  0.00    +0.260 A 
ATOM      3  O   UNL     1       4.373  -1.506  -1.263  0.00  0.00    -0.267 OA
ATOM      4  C   UNL     1       4.600  -1.658  -3.534  0.00  0.00    +0.038 A 
ATOM      5  C   UNL     1       4.104  -1.313  -4.740  0.00  0.00    +0.047 A 
ATOM      6  N   UNL     1       2.978  -0.532  -4.807  0.00  0.00    -0.309 N 
ATOM      7  H   UNL     1       2.620  -0.283  -5.673  0.00  0.00    +0.170 HD
ATOM      8  C   UNL     1       2.362  -0.114  -3.688  0.00  0.00    +0.330 A 
ATOM      9  O   UNL     1       1.363   0.573  -3.775  0.00  0.00    -0.246 OA
ATOM     10  C   UNL     1       4.955  -1.901  -5.844  0.00  0.00    +0.120 C 
ATOM     11  C   UNL     1       6.283  -2.293  -5.160  0.00  0.00    +0.031 C 
ATOM     12  C   UNL     1       5.836  -2.514  -3.699  0.00  0.00    +0.044 C 
ENDROOT
BRANCH   1  16
ATOM     13  C   UNL     1      -0.019   1.526   0.010  0.00  0.00    +0.000 C 
ATOM     14  C   UNL     1       1.417   2.055  -0.000  0.00  0.00    +0.002 C 
ATOM     15  C   UNL     1       2.133   1.562  -1.259  0.00  0.00    +0.025 C 
ATOM     16  C   UNL     1       2.154   0.032  -1.268  0.00  0.00    +0.095 C 
ATOM     17  C   UNL     1       0.718  -0.497  -1.257  0.00  0.00    +0.025 C 
ATOM     18  C   UNL     1       0.002  -0.004   0.002  0.00  0.00    +0.002 C 
ENDBRANCH   1  16
BRANCH  10  19
ATOM     19  N   UNL     1       4.303  -3.087  -6.415  0.00  0.00    -0.232 NA
ATOM     20  H   UNL     1       3.771  -3.580  -5.713  0.00  0.00    +0.145 HD
BRANCH  19  21
ATOM     21  N   UNL     1       3.514  -2.748  -7.478  0.00  0.00    -0.252 N 
ATOM     22  C   UNL     1       2.829  -3.702  -8.139  0.00  0.00    +0.210 C 
ATOM     23  O   UNL     1       2.912  -4.860  -7.790  0.00  0.00    -0.277 OA
ATOM     24  H   UNL     1       3.448  -1.821  -7.756  0.00  0.00    +0.169 HD
BRANCH  22  25
ATOM     25  C   UNL     1       1.959  -3.328  -9.311  0.00  0.00    +0.020 C 
BRANCH  25  26
ATOM     26  N   UNL     1       1.324  -4.536  -9.855  0.00  0.00    +0.385 N 
ATOM     27  C   UNL     1       0.329  -5.070  -8.890  0.00  0.00    -0.078 C 
ATOM     28  C   UNL     1      -0.605  -5.926  -9.782  0.00  0.00    -0.020 C 
ATOM     29  C   UNL     1      -0.692  -5.099 -11.086  0.00  0.00    -0.020 C 
ATOM     30  C   UNL     1       0.562  -4.205 -11.079  0.00  0.00    -0.078 C 
ATOM     31  H   UNL     1       2.023  -5.235 -10.058  0.00  0.00    -0.081 HD
ENDBRANCH  25  26
ENDBRANCH  22  25
ENDBRANCH  19  21
ENDBRANCH  10  19
TORSDOF 5
