REMARK  Name = ZINC44429058
REMARK  7 active torsions:
REMARK  status: ('A' for Active; 'I' for Inactive)
REMARK    1  A    between atoms: C_1  and  N_2
REMARK    2  A    between atoms: N_2  and  C_3
REMARK    3  A    between atoms: N_2  and  C_4
REMARK    4  A    between atoms: C_8  and  C_10
REMARK    5  A    between atoms: C_12  and  C_15
REMARK    6  A    between atoms: N_20  and  C_22
REMARK    7  A    between atoms: C_22  and  C_23
REMARK                            x       y       z     vdW  Elec       q    Type
REMARK                         _______ _______ _______ _____ _____    ______ ____
ROOT
ATOM      1  C   UNL     1      -8.519   0.085   0.067  0.00  0.00    +0.086 C 
ATOM      2  C   UNL     1      -9.212   0.795  -1.119  0.00  0.00    +0.109 C 
ATOM      3  C   UNL     1     -10.530   1.269  -0.549  0.00  0.00    +0.217 C 
ATOM      4  O   UNL     1     -11.485   1.622  -1.207  0.00  0.00    -0.276 OA
ATOM      5  N   UNL     1     -10.490   1.240   0.795  0.00  0.00    -0.296 N 
ATOM      6  C   UNL     1      -9.186   0.771   1.280  0.00  0.00    +0.120 C 
ENDROOT
BRANCH   1   9
ATOM      7  C   UNL     1      -4.898  -0.047   0.036  0.00  0.00    +0.259 A 
ATOM      8  N   UNL     1      -6.088  -0.605   0.048  0.00  0.00    -0.191 NA
ATOM      9  C   UNL     1      -7.033   0.337   0.054  0.00  0.00    +0.177 A 
ATOM     10  N   UNL     1      -6.466   1.511   0.045  0.00  0.00    -0.061 NA
ATOM     11  O   UNL     1      -5.064   1.287   0.039  0.00  0.00    -0.333 OA
BRANCH   7  16
ATOM     12  C   UNL     1      -1.198  -0.719   0.010  0.00  0.00    +0.030 A 
ATOM     13  C   UNL     1      -1.179  -2.109   0.008  0.00  0.00    +0.023 A 
ATOM     14  C   UNL     1      -2.364  -2.821   0.015  0.00  0.00    +0.003 A 
ATOM     15  C   UNL     1      -3.574  -2.156   0.025  0.00  0.00    +0.013 A 
ATOM     16  C   UNL     1      -3.604  -0.761   0.027  0.00  0.00    +0.041 A 
ATOM     17  C   UNL     1      -2.408  -0.042   0.025  0.00  0.00    +0.036 A 
BRANCH  12  19
ATOM     18  C   UNL     1      -0.018   1.461   0.010  0.00  0.00    +0.129 C 
ATOM     19  N   UNL     1       0.002  -0.004   0.002  0.00  0.00    -0.336 N 
ATOM     20  C   UNL     1       1.281  -0.719  -0.014  0.00  0.00    +0.129 C 
ENDBRANCH  12  19
ENDBRANCH   7  16
ENDBRANCH   1   9
BRANCH   5  21
ATOM     21  C   UNL     1     -11.604   1.628   1.664  0.00  0.00    +0.144 C 
BRANCH  21  22
ATOM     22  C   UNL     1     -12.461   0.422   1.948  0.00  0.00    -0.012 A 
ATOM     23  C   UNL     1     -13.634   0.226   1.242  0.00  0.00    +0.009 A 
ATOM     24  C   UNL     1     -14.421  -0.880   1.502  0.00  0.00    +0.039 A 
ATOM     25  C   UNL     1     -14.036  -1.792   2.471  0.00  0.00    +0.125 A 
ATOM     26  C   UNL     1     -12.862  -1.596   3.177  0.00  0.00    +0.058 A 
ATOM     27  C   UNL     1     -12.072  -0.491   2.912  0.00  0.00    +0.048 A 
ATOM     28 CL   UNL     1     -10.597  -0.248   3.793  0.00  0.00    -0.083 Cl
ATOM     29  F   UNL     1     -14.806  -2.872   2.726  0.00  0.00    -0.205 F 
ENDBRANCH  21  22
ENDBRANCH   5  21
TORSDOF 5
