REMARK  Name = ZINC39700722
REMARK  7 active torsions:
REMARK  status: ('A' for Active; 'I' for Inactive)
REMARK    1  A    between atoms: C_1  and  O_2
REMARK    2  A    between atoms: O_2  and  C_3
REMARK    3  A    between atoms: C_6  and  C_11
REMARK    4  A    between atoms: C_7  and  O_9
REMARK    5  A    between atoms: O_9  and  C_10
REMARK    6  A    between atoms: C_14  and  C_17
REMARK    7  A    between atoms: C_19  and  C_30
REMARK                            x       y       z     vdW  Elec       q    Type
REMARK                         _______ _______ _______ _____ _____    ______ ____
ROOT
ATOM      1  C   UNL     1       1.367  -1.839  -7.907  0.00  0.00    +0.152 C 
ATOM      2  C   UNL     1       2.233  -1.203  -8.976  0.00  0.00    -0.014 C 
ATOM      3  C   UNL     1       1.666  -0.162  -9.716  0.00  0.00    +0.002 A 
ATOM      4  C   UNL     1       2.402   0.486 -10.731  0.00  0.00    +0.030 A 
ATOM      5  C   UNL     1       1.825   1.497 -11.436  0.00  0.00    +0.042 A 
ATOM      6  C   UNL     1       0.519   1.908 -11.177  0.00  0.00    +0.022 A 
ATOM      7  C   UNL     1      -0.240   1.321 -10.211  0.00  0.00    +0.025 A 
ATOM      8  C   UNL     1       0.291   0.270  -9.442  0.00  0.00    +0.041 A 
ATOM      9  N   UNL     1      -0.457  -0.305  -8.494  0.00  0.00    -0.284 N 
ATOM     10  C   UNL     1      -0.033  -1.294  -7.732  0.00  0.00    +0.230 C 
ATOM     11  O   UNL     1      -0.769  -1.769  -6.888  0.00  0.00    -0.274 OA
ATOM     12 CL   UNL     1       2.735   2.290 -12.684  0.00  0.00    -0.084 Cl
ATOM     13  H   UNL     1      -1.359   0.023  -8.359  0.00  0.00    +0.155 HD
ENDROOT
BRANCH   1  16
ATOM     14  C   UNL     1       2.725  -1.898  -4.280  0.00  0.00    +0.128 C 
ATOM     15  C   UNL     1       1.662  -2.364  -5.296  0.00  0.00    +0.082 C 
ATOM     16  C   UNL     1       2.084  -1.702  -6.588  0.00  0.00    +0.055 C 
ATOM     17  N   UNL     1       3.133  -1.014  -6.396  0.00  0.00    -0.194 NA
ATOM     18  N   UNL     1       3.615  -1.045  -5.085  0.00  0.00    -0.261 N 
ATOM     19  H   UNL     1       4.402  -0.582  -4.757  0.00  0.00    +0.169 HD
BRANCH  14  23
ATOM     20  C   UNL     1       0.913   0.357  -1.130  0.00  0.00    +0.124 A 
ATOM     21  C   UNL     1       1.420   1.004  -2.249  0.00  0.00    +0.046 A 
ATOM     22  C   UNL     1       2.005   0.273  -3.265  0.00  0.00    +0.013 A 
ATOM     23  C   UNL     1       2.087  -1.104  -3.170  0.00  0.00    +0.016 A 
ATOM     24  C   UNL     1       1.582  -1.755  -2.053  0.00  0.00    +0.129 A 
ATOM     25  C   UNL     1       1.000  -1.022  -1.030  0.00  0.00    +0.091 A 
BRANCH  20  27
ATOM     26  C   UNL     1       0.283   2.495  -0.302  0.00  0.00    +0.277 C 
ATOM     27  O   UNL     1       0.338   1.077  -0.131  0.00  0.00    -0.495 OA
ENDBRANCH  20  27
BRANCH  24  28
ATOM     28  O   UNL     1       1.663  -3.108  -1.960  0.00  0.00    -0.495 OA
ATOM     29  C   UNL     1       1.123  -3.711  -0.783  0.00  0.00    +0.277 C 
ENDBRANCH  24  28
ENDBRANCH  14  23
ENDBRANCH   1  16
BRANCH   2  30
ATOM     30  C   UNL     1       3.559  -1.644  -9.215  0.00  0.00    -0.020 A 
ATOM     31  C   UNL     1       4.642  -0.773  -9.008  0.00  0.00    +0.008 A 
ATOM     32  C   UNL     1       5.926  -1.212  -9.243  0.00  0.00    +0.001 A 
ATOM     33  C   UNL     1       6.152  -2.506  -9.681  0.00  0.00    +0.000 A 
ATOM     34  C   UNL     1       5.091  -3.373  -9.887  0.00  0.00    +0.001 A 
ATOM     35  C   UNL     1       3.800  -2.957  -9.653  0.00  0.00    +0.008 A 
ENDBRANCH   2  30
TORSDOF 5
