REMARK  Name = ZINC05146123
REMARK  6 active torsions:
REMARK  status: ('A' for Active; 'I' for Inactive)
REMARK    1  A    between atoms: C_1  and  C_2
REMARK    2  A    between atoms: C_2  and  O_3
REMARK    3  A    between atoms: O_3  and  C_4
REMARK    4  A    between atoms: C_7  and  C_9
REMARK    5  A    between atoms: C_13  and  N_14
REMARK    6  A    between atoms: C_15  and  C_17
REMARK                            x       y       z     vdW  Elec       q    Type
REMARK                         _______ _______ _______ _____ _____    ______ ____
ROOT
ATOM      1  C   UNL     1       2.999  -1.642   1.746  0.00  0.00    +0.069 A 
ATOM      2  C   UNL     1       2.179  -0.684   1.016  0.00  0.00    -0.023 A 
ATOM      3  C   UNL     1       2.846   0.061   0.110  0.00  0.00    -0.004 A 
ATOM      4  S   UNL     1       4.530  -0.479   0.224  0.00  0.00    -0.077 S 
ATOM      5  C   UNL     1       4.354  -1.687   1.453  0.00  0.00    +0.085 A 
ATOM      6  C   UNL     1       2.288   1.105  -0.807  0.00  0.00    +0.043 C 
ATOM      7  C   UNL     1       1.406   2.067  -0.000  0.00  0.00    +0.005 C 
ATOM      8  C   UNL     1      -0.019   1.523   0.010  0.00  0.00    +0.001 C 
ATOM      9  C   UNL     1       0.002  -0.004   0.002  0.00  0.00    +0.005 C 
ATOM     10  C   UNL     1       0.683  -0.535   1.259  0.00  0.00    +0.037 C 
ENDROOT
BRANCH   1  14
ATOM     11  C   UNL     1       1.808  -2.944   4.972  0.00  0.00    +0.407 C 
ATOM     12  O   UNL     1       1.380  -4.035   4.650  0.00  0.00    -0.226 OA
ATOM     13  N   UNL     1       2.348  -2.131   4.043  0.00  0.00    -0.217 N 
ATOM     14  C   UNL     1       2.413  -2.526   2.756  0.00  0.00    +0.255 C 
ATOM     15  O   UNL     1       1.984  -3.619   2.433  0.00  0.00    -0.270 OA
ATOM     16  H   UNL     1       2.689  -1.260   4.300  0.00  0.00    +0.161 HD
BRANCH  11  17
ATOM     17  O   UNL     1       1.744  -2.549   6.257  0.00  0.00    -0.450 OA
BRANCH  17  19
ATOM     18  C   UNL     1       1.164  -2.857   8.602  0.00  0.00    +0.048 C 
ATOM     19  C   UNL     1       1.150  -3.477   7.203  0.00  0.00    +0.230 C 
ENDBRANCH  17  19
ENDBRANCH  11  17
ENDBRANCH   1  14
BRANCH   5  20
ATOM     20  N   UNL     1       5.329  -2.500   2.007  0.00  0.00    -0.275 N 
ATOM     21  C   UNL     1       6.606  -2.400   1.591  0.00  0.00    +0.249 C 
ATOM     22  O   UNL     1       6.904  -1.597   0.728  0.00  0.00    -0.270 OA
ATOM     23  H   UNL     1       5.092  -3.141   2.696  0.00  0.00    +0.156 HD
BRANCH  21  24
ATOM     24  C   UNL     1       7.646  -3.267   2.182  0.00  0.00    +0.037 A 
ATOM     25  C   UNL     1       7.309  -4.187   3.177  0.00  0.00    +0.014 A 
ATOM     26  C   UNL     1       8.283  -4.998   3.721  0.00  0.00    +0.021 A 
ATOM     27  C   UNL     1       9.595  -4.893   3.291  0.00  0.00    +0.041 A 
ATOM     28  C   UNL     1       9.937  -3.978   2.308  0.00  0.00    +0.021 A 
ATOM     29  C   UNL     1       8.971  -3.166   1.752  0.00  0.00    +0.014 A 
ATOM     30 CL   UNL     1      10.817  -5.912   3.986  0.00  0.00    -0.084 Cl
ENDBRANCH  21  24
ENDBRANCH   5  20
TORSDOF 5
