REMARK  Name = ZINC20990383
REMARK  9 active torsions:
REMARK  status: ('A' for Active; 'I' for Inactive)
REMARK    1  A    between atoms: C_1  and  C_2
REMARK    2  A    between atoms: C_2  and  C_3
REMARK    3  A    between atoms: C_8  and  S_9
REMARK    4  A    between atoms: S_9  and  N_12
REMARK    5  A    between atoms: N_12  and  C_13
REMARK    6  A    between atoms: C_16  and  N_19
REMARK    7  A    between atoms: C_20  and  C_22
REMARK    8  A    between atoms: C_30  and  C_32
REMARK    9  A    between atoms: C_30  and  C_33
REMARK                            x       y       z     vdW  Elec       q    Type
REMARK                         _______ _______ _______ _____ _____    ______ ____
ROOT
ATOM      1  C   UNL     1       3.288   3.812  -0.147  0.00  0.00    -0.020 A 
ATOM      2  C   UNL     1       1.975   4.226  -0.180  0.00  0.00    +0.016 A 
ATOM      3  C   UNL     1       0.958   3.291  -0.349  0.00  0.00    +0.011 A 
ATOM      4  C   UNL     1       1.275   1.926  -0.485  0.00  0.00    +0.049 A 
ATOM      5  C   UNL     1       2.607   1.530  -0.450  0.00  0.00    +0.055 A 
ATOM      6  C   UNL     1       3.602   2.468  -0.282  0.00  0.00    +0.114 A 
ATOM      7  N   UNL     1       0.090   1.229  -0.637  0.00  0.00    -0.357 N 
ATOM      8  H   UNL     1       0.106   0.136  -0.760  0.00  0.00    +0.166 HD
ATOM      9  C   UNL     1      -0.957   2.064  -0.607  0.00  0.00    +0.028 A 
ATOM     10  C   UNL     1      -0.503   3.362  -0.430  0.00  0.00    +0.046 A 
ATOM     11  C   UNL     1      -1.376   4.475  -0.360  0.00  0.00    +0.166 C 
ATOM     12  O   UNL     1      -0.951   5.597  -0.172  0.00  0.00    -0.292 OA
ATOM     13  C   UNL     1      -2.858   4.215  -0.526  0.00  0.00    +0.086 C 
ATOM     14  C   UNL     1      -3.212   2.834   0.027  0.00  0.00    -0.023 C 
ATOM     15  C   UNL     1      -2.430   1.742  -0.713  0.00  0.00    +0.060 C 
ATOM     16  C   UNL     1      -2.865   2.783   1.516  0.00  0.00    +0.011 C 
ATOM     17  C   UNL     1      -4.712   2.589  -0.151  0.00  0.00    +0.011 C 
ENDROOT
BRANCH   6  18
ATOM     18  S   UNL     1       5.287   1.955  -0.238  0.00  0.00    +0.073 S 
ATOM     19  O   UNL     1       5.283   0.538  -0.343  0.00  0.00    -0.150 OA
ATOM     20  O   UNL     1       5.988   2.785  -1.154  0.00  0.00    -0.150 OA
BRANCH  18  21
ATOM     21  N   UNL     1       5.870   2.316   1.269  0.00  0.00    -0.216 N 
ATOM     22  H   UNL     1       6.647   3.086   1.389  0.00  0.00    +0.174 HD
BRANCH  21  23
ATOM     23  C   UNL     1       5.374   1.643   2.391  0.00  0.00    +0.048 A 
ATOM     24  C   UNL     1       4.004   1.476   2.551  0.00  0.00    +0.026 A 
ATOM     25  C   UNL     1       3.515   0.806   3.655  0.00  0.00    +0.025 A 
ATOM     26  C   UNL     1       4.392   0.309   4.610  0.00  0.00    +0.033 A 
ATOM     27  C   UNL     1       5.761   0.481   4.453  0.00  0.00    +0.025 A 
ATOM     28  C   UNL     1       6.251   1.146   3.346  0.00  0.00    +0.026 A 
BRANCH  26  29
ATOM     29  N   UNL     1       3.895  -0.366   5.734  0.00  0.00    -0.286 N 
ATOM     30  C   UNL     1       4.530  -0.262   6.918  0.00  0.00    +0.214 C 
ATOM     31  O   UNL     1       5.476   0.489   7.035  0.00  0.00    -0.276 OA
ATOM     32  C   UNL     1       4.067  -1.080   8.096  0.00  0.00    +0.109 C 
ATOM     33  H   UNL     1       2.987  -0.980   5.649  0.00  0.00    +0.155 HD
ENDBRANCH  26  29
ENDBRANCH  21  23
ENDBRANCH  18  21
ENDBRANCH   6  18
BRANCH   1  35
ATOM     34  C   UNL     1       4.845   5.336  -1.332  0.00  0.00    +0.009 C 
ATOM     35  C   UNL     1       4.390   4.824   0.036  0.00  0.00    +0.034 C 
ENDBRANCH   1  35
TORSDOF 5
