REMARK  Name = ZINC50092683
REMARK  6 active torsions:
REMARK  status: ('A' for Active; 'I' for Inactive)
REMARK    1  A    between atoms: C_1  and  N_2
REMARK    2  A    between atoms: N_2  and  C_3
REMARK    3  A    between atoms: N_2  and  S_11
REMARK    4  A    between atoms: C_3  and  C_9
REMARK    5  A    between atoms: C_9  and  N_10
REMARK    6  A    between atoms: S_11  and  C_14
REMARK                            x       y       z     vdW  Elec       q    Type
REMARK                         _______ _______ _______ _____ _____    ______ ____
ROOT
ATOM      1  C   UNL     1       0.101  -0.986  -1.153  0.00  0.00    +0.132 C 
ATOM      2  N   UNL     1       0.141  -0.100   0.013  0.00  0.00    -0.175 NA
ENDROOT
BRANCH   2   3
ATOM      3  C   UNL     1       0.172  -0.668   1.363  0.00  0.00    +0.027 C 
ATOM      4  C   UNL     1      -0.063  -2.178   1.287  0.00  0.00    +0.022 C 
ATOM      5  C   UNL     1      -1.428  -2.450   0.651  0.00  0.00    +0.002 C 
ATOM      6  C   UNL     1      -2.525  -1.805   1.500  0.00  0.00    +0.000 C 
ATOM      7  C   UNL     1      -2.290  -0.295   1.576  0.00  0.00    +0.002 C 
ATOM      8  C   UNL     1      -0.925  -0.023   2.213  0.00  0.00    +0.022 C 
BRANCH   3   9
ATOM      9  C   UNL     1       1.536  -0.395   2.000  0.00  0.00    -0.062 C 
BRANCH   9  10
ATOM     10  N   UNL     1       2.598  -0.893   1.114  0.00  0.00    +0.379 N 
ATOM     11  H   UNL     1       3.497  -0.713   1.534  0.00  0.00    -0.090 HD
ATOM     12  H   UNL     1       2.483  -1.886   0.977  0.00  0.00    -0.090 HD
ATOM     13  H   UNL     1       2.542  -0.422   0.224  0.00  0.00    -0.090 HD
ENDBRANCH   9  10
ENDBRANCH   3   9
ENDBRANCH   2   3
BRANCH   2  14
ATOM     14  S   UNL     1       0.150   1.543  -0.195  0.00  0.00    +0.064 S 
ATOM     15  O   UNL     1       0.584   2.106   1.035  0.00  0.00    -0.153 OA
ATOM     16  O   UNL     1       0.817   1.793  -1.425  0.00  0.00    -0.153 OA
BRANCH  14  17
ATOM     17  C   UNL     1      -1.523   2.049  -0.418  0.00  0.00    +0.142 A 
ATOM     18  C   UNL     1      -2.178   2.135  -1.599  0.00  0.00    +0.133 A 
ATOM     19  N   UNL     1      -3.434   2.559  -1.342  0.00  0.00    -0.283 N 
ATOM     20  H   UNL     1      -4.130   2.711  -2.000  0.00  0.00    +0.188 HD
ATOM     21  N   UNL     1      -3.554   2.739   0.042  0.00  0.00    -0.180 NA
ATOM     22  C   UNL     1      -2.410   2.427   0.595  0.00  0.00    +0.162 A 
ENDBRANCH  14  17
ENDBRANCH   2  14
TORSDOF 5
