REMARK  Name = ZINC40983413
REMARK  10 active torsions:
REMARK  status: ('A' for Active; 'I' for Inactive)
REMARK    1  A    between atoms: C_1  and  C_2
REMARK    2  A    between atoms: C_2  and  C_3
REMARK    3  A    between atoms: C_3  and  C_4
REMARK    4  A    between atoms: C_4  and  S_5
REMARK    5  A    between atoms: S_5  and  C_6
REMARK    6  A    between atoms: C_11  and  C_21
REMARK    7  A    between atoms: C_26  and  O_27
REMARK    8  A    between atoms: O_27  and  C_28
REMARK    9  A    between atoms: C_28  and  C_29
REMARK   10  A    between atoms: C_29  and  C_30
REMARK                            x       y       z     vdW  Elec       q    Type
REMARK                         _______ _______ _______ _____ _____    ______ ____
ROOT
ATOM      1  C   UNL     1      -2.923  -4.443   0.006  0.00  0.00    +0.210 A 
ATOM      2  N   UNL     1      -1.753  -5.098  -0.003  0.00  0.00    -0.187 NA
ATOM      3  C   UNL     1      -1.973  -6.384  -0.012  0.00  0.00    +0.219 A 
ATOM      4  N   UNL     1      -3.315  -6.582  -0.003  0.00  0.00    -0.220 N 
ATOM      5  N   UNL     1      -3.904  -5.319   0.011  0.00  0.00    -0.141 NA
ATOM      6  C   UNL     1      -3.930  -7.903   0.003  0.00  0.00    +0.179 C 
ATOM      7  C   UNL     1      -2.901  -8.956  -0.345  0.00  0.00    +0.041 C 
ATOM      8  C   UNL     1      -1.577  -8.692  -0.346  0.00  0.00    +0.020 C 
ATOM      9  N   UNL     1      -1.086  -7.448  -0.031  0.00  0.00    -0.287 N 
ATOM     10  C   UNL     1      -0.573  -9.762  -0.704  0.00  0.00    +0.052 C 
ATOM     11  C   UNL     1      -1.111 -11.133  -0.290  0.00  0.00    +0.014 C 
ATOM     12  C   UNL     1      -2.445 -11.364  -1.008  0.00  0.00    +0.080 C 
ATOM     13  C   UNL     1      -3.382 -10.238  -0.670  0.00  0.00    +0.163 C 
ATOM     14  O   UNL     1      -4.580 -10.438  -0.677  0.00  0.00    -0.292 OA
ATOM     15  H   UNL     1      -0.147  -7.318   0.172  0.00  0.00    +0.155 HD
ENDROOT
BRANCH   6  16
ATOM     16  C   UNL     1      -4.491  -8.188   1.372  0.00  0.00    +0.024 A 
ATOM     17  C   UNL     1      -3.656  -8.198   2.473  0.00  0.00    +0.025 A 
ATOM     18  C   UNL     1      -4.170  -8.460   3.730  0.00  0.00    +0.018 A 
ATOM     19  C   UNL     1      -5.521  -8.711   3.888  0.00  0.00    +0.019 A 
ATOM     20  C   UNL     1      -6.360  -8.701   2.791  0.00  0.00    +0.047 A 
ATOM     21  C   UNL     1      -5.847  -8.434   1.530  0.00  0.00    +0.126 A 
ATOM     22 BR   UNL     1      -3.024  -8.474   5.234  0.00  0.00    -0.050 Br
BRANCH  21  23
ATOM     23  O   UNL     1      -6.671  -8.419   0.449  0.00  0.00    -0.492 OA
BRANCH  23  24
ATOM     24  C   UNL     1      -8.056  -8.682   0.685  0.00  0.00    +0.229 C 
BRANCH  24  25
ATOM     25  C   UNL     1      -8.820  -8.623  -0.639  0.00  0.00    +0.038 C 
ATOM     26  C   UNL     1     -10.302  -8.903  -0.386  0.00  0.00    +0.007 C 
ENDBRANCH  24  25
ENDBRANCH  23  24
ENDBRANCH  21  23
ENDBRANCH   6  16
BRANCH   1  27
ATOM     27  S   UNL     1      -3.114  -2.691   0.017  0.00  0.00    -0.084 S 
BRANCH  27  28
ATOM     28  C   UNL     1      -1.413  -2.063   0.004  0.00  0.00    +0.077 C 
BRANCH  28  29
ATOM     29  C   UNL     1      -1.433  -0.534   0.013  0.00  0.00    +0.011 C 
BRANCH  29  31
ATOM     30  C   UNL     1      -0.019   1.526   0.010  0.00  0.00    +0.004 C 
ATOM     31  C   UNL     1       0.002  -0.004   0.002  0.00  0.00    -0.003 C 
ENDBRANCH  29  31
ENDBRANCH  28  29
ENDBRANCH  27  28
ENDBRANCH   1  27
TORSDOF 8
