REMARK  Name = ZINC27329197
REMARK  6 active torsions:
REMARK  status: ('A' for Active; 'I' for Inactive)
REMARK    1  A    between atoms: C_1  and  C_2
REMARK    2  A    between atoms: C_2  and  C_30
REMARK    3  A    between atoms: C_7  and  C_12
REMARK    4  A    between atoms: C_8  and  N_11
REMARK    5  A    between atoms: C_12  and  S_13
REMARK    6  A    between atoms: S_13  and  N_16
REMARK                            x       y       z     vdW  Elec       q    Type
REMARK                         _______ _______ _______ _____ _____    ______ ____
ROOT
ATOM      1  S   UNL     1      -4.976   1.451   3.928  0.00  0.00    +0.032 S 
ATOM      2  O   UNL     1      -4.950   0.116   4.413  0.00  0.00    -0.158 OA
ATOM      3  O   UNL     1      -4.827   2.549   4.818  0.00  0.00    -0.158 OA
ENDROOT
BRANCH   1   4
ATOM      4  N   UNL     1      -3.675   1.556   2.908  0.00  0.00    -0.181 NA
ATOM      5  C   UNL     1      -3.025   2.849   2.655  0.00  0.00    +0.110 C 
ATOM      6  C   UNL     1      -2.977   3.088   1.142  0.00  0.00    +0.028 C 
ATOM      7  C   UNL     1      -2.314   1.895   0.461  0.00  0.00    -0.001 C 
ATOM      8  C   UNL     1      -0.866   1.736   0.968  0.00  0.00    +0.016 C 
ATOM      9  C   UNL     1      -0.132   1.232  -0.294  0.00  0.00    +0.036 C 
ATOM     10  C   UNL     1      -0.943   1.752  -1.462  0.00  0.00    -0.044 A 
ATOM     11  C   UNL     1      -2.200   2.135  -1.026  0.00  0.00    -0.038 A 
ATOM     12  C   UNL     1      -3.116   2.645  -1.930  0.00  0.00    +0.004 A 
ATOM     13  C   UNL     1      -2.780   2.772  -3.264  0.00  0.00    +0.000 A 
ATOM     14  C   UNL     1      -1.526   2.389  -3.700  0.00  0.00    +0.000 A 
ATOM     15  C   UNL     1      -0.610   1.880  -2.800  0.00  0.00    +0.004 A 
ATOM     16  C   UNL     1      -3.102   0.616   0.731  0.00  0.00    +0.028 C 
ATOM     17  C   UNL     1      -3.150   0.357   2.240  0.00  0.00    +0.110 C 
ENDBRANCH   1   4
BRANCH   1  18
ATOM     18  C   UNL     1      -6.424   1.701   2.864  0.00  0.00    +0.191 C 
BRANCH  18  24
ATOM     19  C   UNL     1      -9.174   3.176   2.288  0.00  0.00    +0.012 C 
ATOM     20  C   UNL     1      -9.053   1.795   2.937  0.00  0.00    -0.026 C 
ATOM     21  C   UNL     1      -9.980   1.632   4.193  0.00  0.00    -0.006 C 
ATOM     22  C   UNL     1      -9.373   2.710   5.142  0.00  0.00    +0.004 C 
ATOM     23  C   UNL     1      -7.840   2.704   4.825  0.00  0.00    +0.008 C 
ATOM     24  C   UNL     1      -7.697   1.625   3.709  0.00  0.00    -0.016 C 
ATOM     25  C   UNL     1      -7.949   0.271   4.439  0.00  0.00    -0.066 C 
ATOM     26  C   UNL     1      -9.462   0.276   4.760  0.00  0.00    -0.012 C 
ATOM     27  C   UNL     1      -9.283   0.671   1.925  0.00  0.00    +0.012 C 
BRANCH  25  28
ATOM     28  N   UNL     1      -7.616  -0.857   3.558  0.00  0.00    +0.380 N 
ATOM     29  H   UNL     1      -7.800  -1.803   4.088  0.00  0.00    -0.090 HD
ATOM     30  H   UNL     1      -6.556  -0.797   3.271  0.00  0.00    -0.090 HD
ATOM     31  H   UNL     1      -8.244  -0.814   2.656  0.00  0.00    -0.090 HD
ENDBRANCH  25  28
ENDBRANCH  18  24
ENDBRANCH   1  18
TORSDOF 4
