REMARK  Name = ZINC38684349
REMARK  15 active torsions:
REMARK  status: ('A' for Active; 'I' for Inactive)
REMARK    1  A    between atoms: C_1  and  C_2
REMARK    2  A    between atoms: C_2  and  O_3
REMARK    3  A    between atoms: O_3  and  C_4
REMARK    4  A    between atoms: C_6  and  C_16
REMARK    5  A    between atoms: C_9  and  O_10
REMARK    6  A    between atoms: O_10  and  C_11
REMARK    7  A    between atoms: C_11  and  C_12
REMARK    8  A    between atoms: C_12  and  C_13
REMARK    9  A    between atoms: C_13  and  C_14
REMARK   10  A    between atoms: C_13  and  C_15
REMARK   11  A    between atoms: C_21  and  O_30
REMARK   12  A    between atoms: C_25  and  N_29
REMARK   13  A    between atoms: C_26  and  C_27
REMARK   14  A    between atoms: O_30  and  C_31
REMARK   15  A    between atoms: C_31  and  C_33
REMARK                            x       y       z     vdW  Elec       q    Type
REMARK                         _______ _______ _______ _____ _____    ______ ____
ROOT
ATOM      1  C   UNL     1       0.700  -4.916   0.009  0.00  0.00    +0.098 C 
ATOM      2  C   UNL     1       0.671  -5.794   1.232  0.00  0.00    +0.008 A 
ATOM      3  C   UNL     1       1.122  -5.292   2.440  0.00  0.00    +0.012 A 
ATOM      4  C   UNL     1       1.104  -6.082   3.572  0.00  0.00    +0.047 A 
ATOM      5  C   UNL     1       0.632  -7.386   3.501  0.00  0.00    +0.136 A 
ATOM      6  C   UNL     1       0.179  -7.891   2.293  0.00  0.00    +0.093 A 
ATOM      7  C   UNL     1       0.198  -7.094   1.155  0.00  0.00    +0.138 A 
ATOM      8  O   UNL     1      -0.248  -7.604  -0.019  0.00  0.00    -0.441 OA
ATOM      9  C   UNL     1       0.107  -7.025  -1.179  0.00  0.00    +0.199 C 
ATOM     10  C   UNL     1       0.563  -5.754  -1.231  0.00  0.00    +0.098 C 
ENDROOT
BRANCH   1  13
ATOM     11  C   UNL     1      -1.223  -1.667   0.144  0.00  0.00    +0.162 A 
ATOM     12  C   UNL     1      -0.177  -2.574   0.084  0.00  0.00    +0.054 A 
ATOM     13  C   UNL     1      -0.439  -3.931   0.074  0.00  0.00    -0.031 A 
ATOM     14  C   UNL     1      -1.743  -4.387   0.124  0.00  0.00    +0.008 A 
ATOM     15  C   UNL     1      -2.791  -3.488   0.184  0.00  0.00    +0.050 A 
ATOM     16  C   UNL     1      -2.535  -2.126   0.200  0.00  0.00    +0.162 A 
BRANCH  11  17
ATOM     17  O   UNL     1      -0.967  -0.331   0.153  0.00  0.00    -0.489 OA
BRANCH  17  19
ATOM     18  C   UNL     1       0.493   1.594   0.114  0.00  0.00    +0.048 C 
ATOM     19  C   UNL     1       0.404   0.067   0.093  0.00  0.00    +0.226 C 
ENDBRANCH  17  19
ENDBRANCH  11  17
BRANCH  16  20
ATOM     20  O   UNL     1      -3.565  -1.240   0.265  0.00  0.00    -0.488 OA
BRANCH  20  21
ATOM     21  C   UNL     1      -4.886  -1.783   0.320  0.00  0.00    +0.229 C 
BRANCH  21  22
ATOM     22  C   UNL     1      -5.903  -0.642   0.388  0.00  0.00    +0.044 C 
BRANCH  22  23
ATOM     23  C   UNL     1      -7.317  -1.224   0.448  0.00  0.00    -0.014 C 
ATOM     24  C   UNL     1      -7.494  -2.003   1.752  0.00  0.00    +0.007 C 
ATOM     25  C   UNL     1      -8.339  -0.086   0.390  0.00  0.00    +0.007 C 
ENDBRANCH  22  23
ENDBRANCH  21  22
ENDBRANCH  20  21
ENDBRANCH  16  20
ENDBRANCH   1  13
BRANCH   9  26
ATOM     26  N   UNL     1       0.002  -7.745  -2.342  0.00  0.00    -0.328 N 
ATOM     27  H   UNL     1      -0.324  -8.659  -2.320  0.00  0.00    +0.145 HD
ATOM     28  H   UNL     1       0.255  -7.341  -3.187  0.00  0.00    +0.145 HD
ENDBRANCH   9  26
BRANCH  10  29
ATOM     29  C   UNL     1       0.923  -5.195  -2.499  0.00  0.00    +0.101 C 
ATOM     30  N   UNL     1       1.209  -4.752  -3.505  0.00  0.00    -0.191 NA
ENDBRANCH  10  29
BRANCH   5  31
ATOM     31  O   UNL     1       0.614  -8.165   4.614  0.00  0.00    -0.420 OA
BRANCH  31  32
ATOM     32  C   UNL     1      -0.260  -7.851   5.593  0.00  0.00    +0.380 C 
ATOM     33  O   UNL     1      -1.072  -6.962   5.421  0.00  0.00    -0.241 OA
BRANCH  32  34
ATOM     34  C   UNL     1      -0.231  -8.582   6.862  0.00  0.00    +0.212 A 
ATOM     35  C   UNL     1      -1.059  -8.371   7.929  0.00  0.00    +0.056 A 
ATOM     36  C   UNL     1      -0.679  -9.288   8.921  0.00  0.00    +0.042 A 
ATOM     37  C   UNL     1       0.350 -10.009   8.423  0.00  0.00    +0.196 A 
ATOM     38  O   UNL     1       0.613  -9.585   7.181  0.00  0.00    -0.456 OA
ENDBRANCH  32  34
ENDBRANCH  31  32
ENDBRANCH   5  31
TORSDOF 12
