REMARK  Name = ZINC47147161
REMARK  6 active torsions:
REMARK  status: ('A' for Active; 'I' for Inactive)
REMARK    1  A    between atoms: C_1  and  N_2
REMARK    2  A    between atoms: N_2  and  C_3
REMARK    3  A    between atoms: N_2  and  C_4
REMARK    4  A    between atoms: C_7  and  C_10
REMARK    5  A    between atoms: N_26  and  C_29
REMARK    6  A    between atoms: C_34  and  C_35
REMARK                            x       y       z     vdW  Elec       q    Type
REMARK                         _______ _______ _______ _____ _____    ______ ____
ROOT
ATOM      1  C   UNL     1      -0.006  -2.813  -4.924  0.00  0.00    +0.072 C 
ATOM      2  C   UNL     1      -1.321  -2.595  -5.582  0.00  0.00    +0.033 A 
ATOM      3  C   UNL     1      -1.578  -2.260  -6.859  0.00  0.00    +0.088 A 
ATOM      4  N   UNL     1      -2.914  -2.163  -7.175  0.00  0.00    -0.311 N 
ATOM      5  H   UNL     1      -3.184  -1.945  -8.081  0.00  0.00    +0.170 HD
ATOM      6  C   UNL     1      -3.848  -2.373  -6.229  0.00  0.00    +0.289 A 
ATOM      7  O   UNL     1      -5.060  -2.321  -6.338  0.00  0.00    -0.260 OA
ATOM      8  S   UNL     1      -2.937  -2.724  -4.859  0.00  0.00    -0.030 S 
ATOM      9  S   UNL     1      -0.266  -1.947  -8.011  0.00  0.00    -0.093 S 
ATOM     10  C   UNL     1       1.199  -2.674  -7.210  0.00  0.00    +0.152 C 
ATOM     11  C   UNL     1       1.176  -2.382  -5.705  0.00  0.00    +0.110 C 
ATOM     12  C   UNL     1       1.633  -0.960  -5.618  0.00  0.00    +0.232 C 
ATOM     13  O   UNL     1       1.365  -0.159  -4.748  0.00  0.00    -0.274 OA
ATOM     14  N   UNL     1       2.408  -0.750  -6.708  0.00  0.00    -0.209 N 
ATOM     15  C   UNL     1       2.374  -1.761  -7.603  0.00  0.00    +0.240 C 
ATOM     16  O   UNL     1       3.122  -1.916  -8.544  0.00  0.00    -0.274 OA
ENDROOT
BRANCH   1  20
ATOM     17  C   UNL     1      -0.000  -0.695  -1.212  0.00  0.00    +0.029 A 
ATOM     18  C   UNL     1       0.701  -1.888  -1.334  0.00  0.00    +0.023 A 
ATOM     19  C   UNL     1       0.696  -2.570  -2.535  0.00  0.00    +0.006 A 
ATOM     20  C   UNL     1      -0.005  -2.066  -3.615  0.00  0.00    -0.038 A 
ATOM     21  C   UNL     1      -0.704  -0.879  -3.497  0.00  0.00    +0.006 A 
ATOM     22  C   UNL     1      -0.708  -0.195  -2.297  0.00  0.00    +0.023 A 
BRANCH  17  24
ATOM     23  C   UNL     1      -0.743   1.252   0.130  0.00  0.00    +0.129 C 
ATOM     24  N   UNL     1       0.002  -0.003   0.002  0.00  0.00    -0.336 N 
ATOM     25  C   UNL     1       0.749  -0.532   1.145  0.00  0.00    +0.129 C 
ENDBRANCH  17  24
ENDBRANCH   1  20
BRANCH  14  26
ATOM     26  C   UNL     1       3.182   0.405  -6.887  0.00  0.00    +0.056 A 
ATOM     27  C   UNL     1       4.491   0.443  -6.427  0.00  0.00    +0.024 A 
ATOM     28  C   UNL     1       5.251   1.582  -6.604  0.00  0.00    +0.002 A 
ATOM     29  C   UNL     1       4.709   2.685  -7.239  0.00  0.00    +0.001 A 
ATOM     30  C   UNL     1       3.406   2.650  -7.698  0.00  0.00    +0.014 A 
ATOM     31  C   UNL     1       2.642   1.511  -7.529  0.00  0.00    +0.077 A 
BRANCH  31  32
ATOM     32  C   UNL     1       1.224   1.472  -8.035  0.00  0.00    +0.419 C 
ATOM     33  F   UNL     1       0.910   2.694  -8.640  0.00  0.00    -0.166 F 
ATOM     34  F   UNL     1       1.091   0.440  -8.971  0.00  0.00    -0.166 F 
ATOM     35  F   UNL     1       0.352   1.245  -6.964  0.00  0.00    -0.166 F 
ENDBRANCH  31  32
ENDBRANCH  14  26
TORSDOF 4
