REMARK  Name = ZINC19874306
REMARK  4 active torsions:
REMARK  status: ('A' for Active; 'I' for Inactive)
REMARK    1  A    between atoms: C_1  and  C_2
REMARK    2  A    between atoms: C_3  and  C_24
REMARK    3  A    between atoms: C_6  and  C_23
REMARK    4  A    between atoms: C_7  and  C_8
REMARK                            x       y       z     vdW  Elec       q    Type
REMARK                         _______ _______ _______ _____ _____    ______ ____
ROOT
ATOM      1  C   UNL     1       0.045  -0.164   2.479  0.00  0.00    +0.211 C 
ATOM      2  N   UNL     1       1.126  -0.782   3.268  0.00  0.00    -0.293 N 
ATOM      3  C   UNL     1       0.929  -2.002   3.857  0.00  0.00    +0.183 C 
ATOM      4  N   UNL     1      -0.272  -2.388   4.255  0.00  0.00    -0.183 NA
ATOM      5  C   UNL     1      -1.324  -1.572   4.013  0.00  0.00    +0.236 A 
ATOM      6  N   UNL     1      -1.214  -0.479   3.166  0.00  0.00    -0.285 N 
ATOM      7  C   UNL     1      -2.424   0.145   3.139  0.00  0.00    +0.072 A 
ATOM      8  C   UNL     1      -2.890   1.282   2.489  0.00  0.00    +0.028 A 
ATOM      9  C   UNL     1      -4.215   1.632   2.696  0.00  0.00    +0.002 A 
ATOM     10  C   UNL     1      -5.051   0.890   3.512  0.00  0.00    +0.002 A 
ATOM     11  C   UNL     1      -4.614  -0.245   4.170  0.00  0.00    +0.030 A 
ATOM     12  C   UNL     1      -3.278  -0.618   3.977  0.00  0.00    +0.091 A 
ATOM     13  N   UNL     1      -2.552  -1.650   4.466  0.00  0.00    -0.210 NA
ATOM     14  N   UNL     1       1.996  -2.840   4.038  0.00  0.00    -0.331 N 
ATOM     15  H   UNL     1       2.881  -2.567   3.749  0.00  0.00    +0.145 HD
ATOM     16  H   UNL     1       1.867  -3.707   4.454  0.00  0.00    +0.145 HD
ATOM     17  H   UNL     1       1.976  -0.325   3.369  0.00  0.00    +0.151 HD
ENDROOT
BRANCH   1  24
ATOM     18  C   UNL     1      -2.463  -1.459   1.009  0.00  0.00    +0.047 C 
ATOM     19  C   UNL     1      -1.075  -1.309   0.442  0.00  0.00    -0.008 A 
ATOM     20  C   UNL     1      -0.655  -1.700  -0.812  0.00  0.00    +0.121 A 
ATOM     21  N   UNL     1       0.678  -1.380  -0.922  0.00  0.00    -0.350 N 
ATOM     22  H   UNL     1       1.237  -1.540  -1.698  0.00  0.00    +0.166 HD
ATOM     23  C   UNL     1       1.083  -0.801   0.238  0.00  0.00    +0.021 A 
ATOM     24  C   UNL     1       0.030  -0.740   1.087  0.00  0.00    +0.018 A 
ATOM     25  C   UNL     1       2.475  -0.303   0.530  0.00  0.00    +0.064 C 
BRANCH  20  26
ATOM     26  C   UNL     1      -1.460  -2.326  -1.816  0.00  0.00    +0.117 C 
ATOM     27  N   UNL     1      -2.099  -2.824  -2.613  0.00  0.00    -0.189 NA
ENDBRANCH  20  26
ENDBRANCH   1  24
TORSDOF 2
