REMARK  Name = ZINC39218170
REMARK  7 active torsions:
REMARK  status: ('A' for Active; 'I' for Inactive)
REMARK    1  A    between atoms: C_1  and  C_2
REMARK    2  A    between atoms: C_2  and  O_3
REMARK    3  A    between atoms: O_3  and  C_4
REMARK    4  A    between atoms: C_7  and  C_10
REMARK    5  A    between atoms: C_13  and  C_23
REMARK    6  A    between atoms: N_15  and  C_16
REMARK    7  A    between atoms: C_25  and  C_32
REMARK                            x       y       z     vdW  Elec       q    Type
REMARK                         _______ _______ _______ _____ _____    ______ ____
ROOT
ATOM      1  C   UNL     1       1.144  -6.059   1.764  0.00  0.00    +0.134 C 
ATOM      2  C   UNL     1       0.123  -6.579   2.797  0.00  0.00    +0.082 C 
ATOM      3  C   UNL     1       0.985  -7.180   3.884  0.00  0.00    +0.055 C 
ATOM      4  N   UNL     1       2.211  -7.053   3.581  0.00  0.00    -0.187 NA
ATOM      5  N   UNL     1       2.443  -6.414   2.360  0.00  0.00    -0.214 N 
ENDROOT
BRANCH   3   6
ATOM      6  C   UNL     1       0.465  -7.832   5.140  0.00  0.00    +0.147 C 
ATOM      7  C   UNL     1       1.624  -8.162   6.032  0.00  0.00    -0.054 C 
ATOM      8  C   UNL     1       2.083  -9.396   6.164  0.00  0.00    +0.023 C 
ATOM      9  C   UNL     1       1.441 -10.500   5.423  0.00  0.00    +0.026 C 
ATOM     10  N   UNL     1       0.164 -10.294   4.886  0.00  0.00    -0.285 N 
ATOM     11  C   UNL     1      -0.322  -9.051   4.766  0.00  0.00    +0.230 C 
ATOM     12  O   UNL     1      -1.447  -8.907   4.336  0.00  0.00    -0.274 OA
ATOM     13  C   UNL     1       2.065 -11.671   5.267  0.00  0.00    +0.033 C 
ATOM     14  C   UNL     1       2.288  -7.052   6.803  0.00  0.00    +0.040 C 
ATOM     15  H   UNL     1      -0.369 -11.052   4.600  0.00  0.00    +0.155 HD
ENDBRANCH   3   6
BRANCH   5  16
ATOM     16  C   UNL     1       3.696  -6.153   1.798  0.00  0.00    +0.087 A 
ATOM     17  C   UNL     1       4.043  -4.856   1.443  0.00  0.00    +0.028 A 
ATOM     18  C   UNL     1       5.282  -4.601   0.888  0.00  0.00    +0.002 A 
ATOM     19  C   UNL     1       6.178  -5.636   0.686  0.00  0.00    +0.003 A 
ATOM     20  C   UNL     1       5.837  -6.929   1.038  0.00  0.00    +0.040 A 
ATOM     21  C   UNL     1       4.601  -7.191   1.599  0.00  0.00    +0.146 A 
ATOM     22  F   UNL     1       4.270  -8.453   1.949  0.00  0.00    -0.203 F 
ENDBRANCH   5  16
BRANCH   1  26
ATOM     23  C   UNL     1       0.802  -1.824   1.306  0.00  0.00    +0.121 A 
ATOM     24  C   UNL     1       0.260  -2.673   0.351  0.00  0.00    +0.046 A 
ATOM     25  C   UNL     1       0.372  -4.041   0.502  0.00  0.00    +0.009 A 
ATOM     26  C   UNL     1       1.024  -4.566   1.603  0.00  0.00    -0.025 A 
ATOM     27  C   UNL     1       1.565  -3.722   2.555  0.00  0.00    +0.009 A 
ATOM     28  C   UNL     1       1.460  -2.353   2.406  0.00  0.00    +0.046 A 
BRANCH  23  29
ATOM     29  O   UNL     1       0.693  -0.477   1.160  0.00  0.00    -0.492 OA
BRANCH  29  31
ATOM     30  C   UNL     1      -0.019   1.526   0.010  0.00  0.00    +0.048 C 
ATOM     31  C   UNL     1       0.002  -0.004   0.002  0.00  0.00    +0.225 C 
ENDBRANCH  29  31
ENDBRANCH  23  29
ENDBRANCH   1  26
TORSDOF 5
