REMARK  Name = ZINC54372558
REMARK  7 active torsions:
REMARK  status: ('A' for Active; 'I' for Inactive)
REMARK    1  A    between atoms: C_1  and  C_2
REMARK    2  A    between atoms: N_8  and  C_9
REMARK    3  A    between atoms: C_9  and  C_10
REMARK    4  A    between atoms: N_15  and  C_16
REMARK    5  A    between atoms: C_16  and  C_17
REMARK    6  A    between atoms: C_17  and  C_18
REMARK    7  A    between atoms: C_17  and  C_19
REMARK                            x       y       z     vdW  Elec       q    Type
REMARK                         _______ _______ _______ _____ _____    ______ ____
ROOT
ATOM      1  C   UNL     1       2.689  -0.272   2.588  0.00  0.00    +0.234 C 
ATOM      2  O   UNL     1       2.049  -0.881   3.417  0.00  0.00    -0.274 OA
ATOM      3  N   UNL     1       3.947   0.124   2.866  0.00  0.00    -0.239 N 
ATOM      4  C   UNL     1       4.493  -0.158   4.066  0.00  0.00    +0.306 C 
ATOM      5  O   UNL     1       3.851  -0.769   4.897  0.00  0.00    -0.252 OA
ATOM      6  N   UNL     1       5.751   0.238   4.343  0.00  0.00    -0.299 N 
ATOM      7  H   UNL     1       4.460   0.612   2.202  0.00  0.00    +0.159 HD
ATOM      8  H   UNL     1       6.264   0.726   3.680  0.00  0.00    +0.150 HD
ENDROOT
BRANCH   1   9
ATOM      9  C   UNL     1       2.079   0.043   1.247  0.00  0.00    +0.181 C 
BRANCH   9  16
ATOM     10  C   UNL     1      -0.019   1.526   0.010  0.00  0.00    +0.022 C 
ATOM     11  C   UNL     1       0.002  -0.004   0.002  0.00  0.00    +0.037 C 
ATOM     12  C   UNL     1      -1.433  -0.534   0.014  0.00  0.00    -0.064 C 
ATOM     13  N   UNL     1      -1.413  -2.003   0.026  0.00  0.00    +0.381 N 
ATOM     14  C   UNL     1      -0.723  -2.475   1.234  0.00  0.00    -0.067 C 
ATOM     15  C   UNL     1       0.718  -1.961   1.232  0.00  0.00    +0.066 C 
ATOM     16  N   UNL     1       0.712  -0.491   1.193  0.00  0.00    -0.295 NA
ATOM     17  H   UNL     1      -2.360  -2.352   0.022  0.00  0.00    -0.086 HD
ATOM     18  H   UNL     1      -0.927  -2.339  -0.791  0.00  0.00    -0.086 HD
ENDBRANCH   9  16
ENDBRANCH   1   9
BRANCH   6  19
ATOM     19  C   UNL     1       6.345  -0.068   5.647  0.00  0.00    +0.108 C 
BRANCH  19  20
ATOM     20  C   UNL     1       7.769   0.489   5.703  0.00  0.00    -0.000 C 
ATOM     21  C   UNL     1       7.722   2.016   5.628  0.00  0.00    +0.009 C 
ATOM     22  C   UNL     1       8.432   0.062   7.014  0.00  0.00    +0.009 C 
ENDBRANCH  19  20
ENDBRANCH   6  19
TORSDOF 4
