REMARK  Name = ZINC36737363
REMARK  4 active torsions:
REMARK  status: ('A' for Active; 'I' for Inactive)
REMARK    1  A    between atoms: C_3  and  C_6
REMARK    2  A    between atoms: C_6  and  C_7
REMARK    3  A    between atoms: N_9  and  C_10
REMARK    4  A    between atoms: C_11  and  N_18
REMARK                            x       y       z     vdW  Elec       q    Type
REMARK                         _______ _______ _______ _____ _____    ______ ____
ROOT
ATOM      1  C   UNL     1       5.914   2.706   2.944  0.00  0.00    +0.068 A 
ATOM      2  C   UNL     1       7.005   3.542   3.183  0.00  0.00    +0.048 A 
ATOM      3  C   UNL     1       7.413   3.787   4.486  0.00  0.00    +0.040 A 
ATOM      4  C   UNL     1       6.739   3.203   5.543  0.00  0.00    +0.021 A 
ATOM      5  C   UNL     1       5.658   2.373   5.306  0.00  0.00    +0.032 A 
ATOM      6  C   UNL     1       5.241   2.129   4.010  0.00  0.00    +0.042 A 
ATOM      7 BR   UNL     1       3.757   1.000   3.691  0.00  0.00    -0.048 Br
ATOM      8 BR   UNL     1       7.298   3.538   7.319  0.00  0.00    -0.050 Br
ENDROOT
BRANCH   1  11
ATOM      9  C   UNL     1       4.626   3.290   1.027  0.00  0.00    +0.222 C 
ATOM     10  O   UNL     1       4.135   4.206   1.651  0.00  0.00    -0.275 OA
ATOM     11  N   UNL     1       5.497   2.455   1.629  0.00  0.00    -0.283 N 
ATOM     12  H   UNL     1       5.834   1.680   1.153  0.00  0.00    +0.155 HD
BRANCH   9  13
ATOM     13  C   UNL     1       4.264   3.085  -0.421  0.00  0.00    +0.138 C 
BRANCH  13  16
ATOM     14  C   UNL     1       2.452   6.183  -1.698  0.00  0.00    +0.008 A 
ATOM     15  C   UNL     1       3.522   5.369  -1.378  0.00  0.00    +0.011 A 
ATOM     16  C   UNL     1       3.281   4.144  -0.848  0.00  0.00    -0.001 A 
ATOM     17  S   UNL     1       1.497   4.112  -0.788  0.00  0.00    -0.101 S 
ATOM     18  C   UNL     1       1.193   5.733  -1.473  0.00  0.00    +0.045 A 
ENDBRANCH  13  16
ENDBRANCH   9  13
ENDBRANCH   1  11
BRANCH   2  19
ATOM     19  N   UNL     1       7.685   4.132   2.113  0.00  0.00    -0.356 N 
ATOM     20  H   UNL     1       7.399   3.959   1.202  0.00  0.00    +0.142 HD
ATOM     21  H   UNL     1       8.443   4.713   2.281  0.00  0.00    +0.142 HD
ENDBRANCH   2  19
TORSDOF 4
