REMARK  Name = ZINC62332113
REMARK  3 active torsions:
REMARK  status: ('A' for Active; 'I' for Inactive)
REMARK    1  A    between atoms: C_5  and  C_7
REMARK    2  A    between atoms: C_7  and  C_9
REMARK    3  A    between atoms: C_7  and  N_18
REMARK                            x       y       z     vdW  Elec       q    Type
REMARK                         _______ _______ _______ _____ _____    ______ ____
ROOT
ATOM      1  C   UNL     1       1.229  -2.186  -0.022  0.00  0.00    -0.012 C 
ENDROOT
BRANCH   1   2
ATOM      2  C   UNL     1       1.373  -2.695   1.389  0.00  0.00    -0.057 A 
ATOM      3  C   UNL     1       0.269  -2.754   2.219  0.00  0.00    +0.002 A 
ATOM      4  C   UNL     1       0.400  -3.221   3.514  0.00  0.00    +0.006 A 
ATOM      5  C   UNL     1       1.634  -3.628   3.977  0.00  0.00    -0.017 A 
ATOM      6  C   UNL     1       2.741  -3.568   3.146  0.00  0.00    -0.016 A 
ATOM      7  C   UNL     1       2.609  -3.107   1.852  0.00  0.00    +0.008 A 
ATOM      8  C   UNL     1       3.924  -4.075   3.937  0.00  0.00    +0.195 C 
ATOM      9  O   UNL     1       3.530  -4.014   5.320  0.00  0.00    -0.371 OA
ATOM     10  C   UNL     1       2.100  -4.173   5.307  0.00  0.00    +0.195 C 
ENDBRANCH   1   2
BRANCH   1  15
ATOM     11  C   UNL     1      -0.017   1.378   0.010  0.00  0.00    +0.000 A 
ATOM     12  C   UNL     1       1.171   2.086   0.002  0.00  0.00    +0.001 A 
ATOM     13  C   UNL     1       2.377   1.411  -0.013  0.00  0.00    +0.014 A 
ATOM     14  C   UNL     1       2.396   0.029  -0.021  0.00  0.00    +0.015 A 
ATOM     15  C   UNL     1       1.208  -0.679  -0.013  0.00  0.00    -0.045 A 
ATOM     16  C   UNL     1       0.002  -0.004   0.002  0.00  0.00    +0.003 A 
ATOM     17  I   UNL     1       4.225  -0.994  -0.044  0.00  0.00    -0.044 I 
ENDBRANCH   1  15
BRANCH   1  18
ATOM     18  N   UNL     1      -0.025  -2.689  -0.598  0.00  0.00    +0.385 N 
ATOM     19  H   UNL     1      -0.012  -3.698  -0.604  0.00  0.00    -0.089 HD
ATOM     20  H   UNL     1      -0.804  -2.367  -0.043  0.00  0.00    -0.089 HD
ATOM     21  H   UNL     1      -0.122  -2.349  -1.543  0.00  0.00    -0.089 HD
ENDBRANCH   1  18
TORSDOF 3
