REMARK  Name = ZINC12521834
REMARK  8 active torsions:
REMARK  status: ('A' for Active; 'I' for Inactive)
REMARK    1  A    between atoms: C_1  and  N_2
REMARK    2  A    between atoms: N_14  and  C_17
REMARK    3  A    between atoms: C_17  and  N_49
REMARK    4  A    between atoms: C_18  and  N_49
REMARK    5  A    between atoms: C_19  and  C_20
REMARK    6  A    between atoms: C_19  and  N_49
REMARK    7  A    between atoms: C_23  and  S_26
REMARK    8  A    between atoms: S_26  and  C_27
REMARK                            x       y       z     vdW  Elec       q    Type
REMARK                         _______ _______ _______ _____ _____    ______ ____
ROOT
ATOM      1  C   UNL     1      -3.748   2.036   0.050  0.00  0.00    +0.155 C 
ATOM      2  N   UNL     1      -2.449   1.358   0.034  0.00  0.00    -0.280 N 
ATOM      3  C   UNL     1      -1.318   2.092   0.032  0.00  0.00    +0.263 A 
ATOM      4  O   UNL     1      -1.370   3.307   0.040  0.00  0.00    -0.267 OA
ATOM      5  C   UNL     1      -0.017   1.399   0.010  0.00  0.00    +0.064 A 
ATOM      6  C   UNL     1       1.181   2.111   0.002  0.00  0.00    +0.015 A 
ATOM      7  C   UNL     1       2.379   1.428  -0.013  0.00  0.00    +0.001 A 
ATOM      8  C   UNL     1       2.396   0.043  -0.021  0.00  0.00    +0.002 A 
ATOM      9  C   UNL     1       1.216  -0.674  -0.013  0.00  0.00    +0.027 A 
ATOM     10  C   UNL     1       0.002  -0.004   0.002  0.00  0.00    +0.064 A 
ATOM     11  N   UNL     1      -1.203  -0.704   0.010  0.00  0.00    -0.257 N 
ATOM     12  C   UNL     1      -2.403  -0.029   0.026  0.00  0.00    +0.238 A 
ATOM     13  N   UNL     1      -3.369  -0.907   0.031  0.00  0.00    -0.133 NA
ATOM     14  N   UNL     1      -2.798  -2.186   0.018  0.00  0.00    -0.255 N 
ATOM     15  C   UNL     1      -1.459  -2.029   0.006  0.00  0.00    +0.182 A 
ATOM     16  S   UNL     1      -0.295  -3.284  -0.013  0.00  0.00    -0.011 S 
ENDROOT
BRANCH  14  17
ATOM     17  C   UNL     1      -3.523  -3.459   0.018  0.00  0.00    +0.072 C 
BRANCH  17  19
ATOM     18  C   UNL     1      -2.482  -4.212   2.070  0.00  0.00    -0.093 C 
ATOM     19  N   UNL     1      -3.763  -3.871   1.417  0.00  0.00    +0.394 N 
ATOM     20  H   UNL     1      -4.198  -3.091   1.924  0.00  0.00    -0.079 HD
BRANCH  19  21
ATOM     21  C   UNL     1      -4.674  -5.034   1.452  0.00  0.00    -0.041 C 
BRANCH  21  22
ATOM     22  C   UNL     1      -5.076  -5.294   2.881  0.00  0.00    -0.064 A 
ATOM     23  C   UNL     1      -4.334  -6.164   3.659  0.00  0.00    +0.003 A 
ATOM     24  C   UNL     1      -4.696  -6.400   4.970  0.00  0.00    +0.015 A 
ATOM     25  C   UNL     1      -5.814  -5.772   5.504  0.00  0.00    +0.008 A 
ATOM     26  C   UNL     1      -6.561  -4.903   4.718  0.00  0.00    +0.015 A 
ATOM     27  C   UNL     1      -6.190  -4.667   3.409  0.00  0.00    +0.003 A 
BRANCH  25  28
ATOM     28  S   UNL     1      -6.284  -6.076   7.175  0.00  0.00    -0.129 S 
ATOM     29  C   UNL     1      -5.036  -7.247   7.776  0.00  0.00    +0.090 C 
ENDBRANCH  25  28
ENDBRANCH  21  22
ENDBRANCH  19  21
ENDBRANCH  17  19
ENDBRANCH  14  17
TORSDOF 5
