REMARK  Name = ZINC62780060
REMARK  6 active torsions:
REMARK  status: ('A' for Active; 'I' for Inactive)
REMARK    1  A    between atoms: C_1  and  C_2
REMARK    2  A    between atoms: C_2  and  N_3
REMARK    3  A    between atoms: N_3  and  C_4
REMARK    4  A    between atoms: C_4  and  C_6
REMARK    5  A    between atoms: C_4  and  C_12
REMARK    6  A    between atoms: C_15  and  C_17
REMARK                            x       y       z     vdW  Elec       q    Type
REMARK                         _______ _______ _______ _____ _____    ______ ____
ROOT
ATOM      1  C   UNL     1       0.710  -1.947  -1.215  0.00  0.00    +0.049 C 
ENDROOT
BRANCH   1   2
ATOM      2  C   UNL     1      -0.700  -2.467  -1.328  0.00  0.00    -0.053 A 
ATOM      3  C   UNL     1      -1.602  -1.844  -2.170  0.00  0.00    +0.002 A 
ATOM      4  C   UNL     1      -2.895  -2.322  -2.274  0.00  0.00    +0.000 A 
ATOM      5  C   UNL     1      -3.286  -3.423  -1.536  0.00  0.00    +0.000 A 
ATOM      6  C   UNL     1      -2.384  -4.047  -0.694  0.00  0.00    +0.000 A 
ATOM      7  C   UNL     1      -1.090  -3.572  -0.594  0.00  0.00    +0.002 A 
ENDBRANCH   1   2
BRANCH   1   8
ATOM      8  C   UNL     1       1.520  -2.432  -2.389  0.00  0.00    +0.208 A 
ATOM      9  N   UNL     1       1.456  -1.977  -3.609  0.00  0.00    -0.113 NA
ATOM     10  N   UNL     1       2.286  -2.620  -4.352  0.00  0.00    -0.106 NA
ATOM     11  C   UNL     1       2.915  -3.514  -3.625  0.00  0.00    +0.268 A 
ATOM     12  O   UNL     1       2.445  -3.407  -2.366  0.00  0.00    -0.420 OA
BRANCH  11  13
ATOM     13  C   UNL     1       3.950  -4.458  -4.098  0.00  0.00    +0.149 A 
ATOM     14  C   UNL     1       4.445  -4.556  -5.415  0.00  0.00    +0.054 A 
ATOM     15  C   UNL     1       5.375  -5.534  -5.436  0.00  0.00    +0.105 A 
ATOM     16  N   UNL     1       5.474  -6.044  -4.189  0.00  0.00    -0.284 N 
ATOM     17  H   UNL     1       6.066  -6.760  -3.912  0.00  0.00    +0.188 HD
ATOM     18  N   UNL     1       4.577  -5.354  -3.363  0.00  0.00    -0.169 NA
ENDBRANCH  11  13
ENDBRANCH   1   8
BRANCH   1  19
ATOM     19  N   UNL     1       0.690  -0.478  -1.207  0.00  0.00    +0.389 N 
ATOM     20  H   UNL     1       0.202  -0.144  -2.024  0.00  0.00    -0.084 HD
ATOM     21  H   UNL     1       1.636  -0.129  -1.214  0.00  0.00    -0.084 HD
BRANCH  19  23
ATOM     22  C   UNL     1      -0.019   1.526   0.010  0.00  0.00    -0.017 C 
ATOM     23  C   UNL     1       0.002  -0.004   0.002  0.00  0.00    -0.085 C 
ENDBRANCH  19  23
ENDBRANCH   1  19
TORSDOF 5
