REMARK  Name = ZINC26239630
REMARK  7 active torsions:
REMARK  status: ('A' for Active; 'I' for Inactive)
REMARK    1  A    between atoms: C_1  and  N_2
REMARK    2  A    between atoms: C_3  and  C_22
REMARK    3  A    between atoms: N_5  and  C_8
REMARK    4  A    between atoms: C_8  and  N_9
REMARK    5  A    between atoms: C_13  and  C_15
REMARK    6  A    between atoms: C_25  and  O_28
REMARK    7  A    between atoms: O_28  and  C_29
REMARK                            x       y       z     vdW  Elec       q    Type
REMARK                         _______ _______ _______ _____ _____    ______ ____
ROOT
ATOM      1  C   UNL     1      -2.407   1.647   0.209  0.00  0.00    +0.153 C 
ATOM      2  N   UNL     1      -1.095   2.299   0.190  0.00  0.00    -0.306 N 
ATOM      3  C   UNL     1      -0.864   3.656   0.296  0.00  0.00    +0.163 A 
ATOM      4  N   UNL     1       0.421   3.864   0.234  0.00  0.00    -0.152 NA
ATOM      5  N   UNL     1       1.055   2.622   0.089  0.00  0.00    -0.257 N 
ATOM      6  C   UNL     1       0.094   1.676   0.069  0.00  0.00    +0.176 A 
ATOM      7  S   UNL     1       0.340  -0.011  -0.089  0.00  0.00    -0.011 S 
ENDROOT
BRANCH   3   8
ATOM      8  C   UNL     1      -1.901   4.699   0.449  0.00  0.00    +0.019 A 
ATOM      9  C   UNL     1      -3.154   4.370   0.968  0.00  0.00    +0.015 A 
ATOM     10  C   UNL     1      -4.117   5.346   1.113  0.00  0.00    +0.046 A 
ATOM     11  C   UNL     1      -3.844   6.654   0.734  0.00  0.00    +0.120 A 
ATOM     12  C   UNL     1      -2.601   6.985   0.212  0.00  0.00    +0.046 A 
ATOM     13  C   UNL     1      -1.631   6.015   0.069  0.00  0.00    +0.015 A 
BRANCH  11  14
ATOM     14  O   UNL     1      -4.797   7.612   0.874  0.00  0.00    -0.495 OA
ATOM     15  C   UNL     1      -6.054   7.203   1.417  0.00  0.00    +0.277 C 
ENDBRANCH  11  14
ENDBRANCH   3   8
BRANCH   5  16
ATOM     16  C   UNL     1       2.498   2.393  -0.020  0.00  0.00    +0.072 C 
BRANCH  16  17
ATOM     17  N   UNL     1       2.894   2.434  -1.434  0.00  0.00    +0.397 N 
ATOM     18  C   UNL     1       2.472   1.204  -2.138  0.00  0.00    -0.075 C 
ATOM     19  C   UNL     1       3.579   0.952  -3.192  0.00  0.00    -0.020 C 
ATOM     20  C   UNL     1       4.852   1.385  -2.419  0.00  0.00    -0.012 C 
ATOM     21  C   UNL     1       4.356   2.574  -1.570  0.00  0.00    -0.035 C 
ATOM     22  H   UNL     1       2.397   3.308  -1.879  0.00  0.00    -0.078 HD
BRANCH  21  23
ATOM     23  C   UNL     1       5.002   2.541  -0.209  0.00  0.00    -0.061 A 
ATOM     24  C   UNL     1       5.672   3.654   0.264  0.00  0.00    +0.005 A 
ATOM     25  C   UNL     1       6.261   3.628   1.514  0.00  0.00    +0.038 A 
ATOM     26  C   UNL     1       6.188   2.482   2.289  0.00  0.00    +0.123 A 
ATOM     27  C   UNL     1       5.521   1.366   1.812  0.00  0.00    +0.038 A 
ATOM     28  C   UNL     1       4.929   1.397   0.563  0.00  0.00    +0.005 A 
ATOM     29  F   UNL     1       6.768   2.453   3.509  0.00  0.00    -0.205 F 
ENDBRANCH  21  23
ENDBRANCH  16  17
ENDBRANCH   5  16
TORSDOF 5
