REMARK  Name = ZINC49779718
REMARK  8 active torsions:
REMARK  status: ('A' for Active; 'I' for Inactive)
REMARK    1  A    between atoms: C_1  and  N_2
REMARK    2  A    between atoms: N_2  and  C_3
REMARK    3  A    between atoms: N_2  and  C_4
REMARK    4  A    between atoms: C_4  and  C_6
REMARK    5  A    between atoms: C_4  and  C_23
REMARK    6  A    between atoms: C_6  and  N_7
REMARK    7  A    between atoms: N_10  and  N_11
REMARK    8  A    between atoms: N_11  and  C_12
REMARK                            x       y       z     vdW  Elec       q    Type
REMARK                         _______ _______ _______ _____ _____    ______ ____
ROOT
ATOM      1  N   UNL     1       2.035   1.359  -0.782  0.00  0.00    -0.299 N 
ATOM      2  C   UNL     1       3.204   2.006  -0.604  0.00  0.00    +0.316 C 
ATOM      3  O   UNL     1       4.255   1.415  -0.760  0.00  0.00    -0.251 OA
ATOM      4  N   UNL     1       3.207   3.307  -0.253  0.00  0.00    -0.220 N 
ATOM      5  H   UNL     1       1.196   1.829  -0.657  0.00  0.00    +0.150 HD
ATOM      6  H   UNL     1       4.048   3.773  -0.125  0.00  0.00    +0.174 HD
ENDROOT
BRANCH   4   7
ATOM      7  N   UNL     1       1.995   3.987  -0.074  0.00  0.00    -0.258 N 
ATOM      8  H   UNL     1       1.156   3.503  -0.117  0.00  0.00    +0.170 HD
BRANCH   7   9
ATOM      9  C   UNL     1       1.996   5.367   0.170  0.00  0.00    +0.121 A 
ATOM     10  C   UNL     1       2.940   6.181  -0.443  0.00  0.00    +0.186 A 
ATOM     11  C   UNL     1       2.939   7.545  -0.202  0.00  0.00    +0.198 A 
ATOM     12  C   UNL     1       1.996   8.098   0.650  0.00  0.00    +0.199 A 
ATOM     13  C   UNL     1       1.053   7.288   1.263  0.00  0.00    +0.198 A 
ATOM     14  C   UNL     1       1.048   5.924   1.020  0.00  0.00    +0.186 A 
ATOM     15  F   UNL     1       0.126   5.135   1.613  0.00  0.00    -0.200 F 
ATOM     16  F   UNL     1       0.136   7.829   2.094  0.00  0.00    -0.199 F 
ATOM     17  F   UNL     1       1.997   9.429   0.885  0.00  0.00    -0.199 F 
ATOM     18  F   UNL     1       3.857   8.337  -0.798  0.00  0.00    -0.199 F 
ATOM     19  F   UNL     1       3.860   5.643  -1.274  0.00  0.00    -0.200 F 
ENDBRANCH   7   9
ENDBRANCH   4   7
BRANCH   1  20
ATOM     20  C   UNL     1       2.031  -0.056  -1.163  0.00  0.00    +0.098 C 
BRANCH  20  21
ATOM     21  C   UNL     1       0.592  -0.573  -1.190  0.00  0.00    +0.016 C 
BRANCH  21  22
ATOM     22  C   UNL     1       0.015  -0.525   0.201  0.00  0.00    +0.093 A 
ATOM     23  C   UNL     1      -0.090  -1.566   1.046  0.00  0.00    +0.043 A 
ATOM     24  C   UNL     1      -0.685  -1.075   2.231  0.00  0.00    +0.041 A 
ATOM     25  C   UNL     1      -0.908   0.238   2.039  0.00  0.00    +0.195 A 
ATOM     26  O   UNL     1      -0.477   0.567   0.810  0.00  0.00    -0.469 OA
ENDBRANCH  21  22
BRANCH  21  28
ATOM     27  C   UNL     1       0.323   0.188  -3.449  0.00  0.00    -0.096 C 
ATOM     28  N   UNL     1      -0.215   0.268  -2.084  0.00  0.00    +0.384 N 
ATOM     29  C   UNL     1      -1.606  -0.203  -2.077  0.00  0.00    -0.096 C 
ATOM     30  H   UNL     1      -0.182   1.225  -1.765  0.00  0.00    -0.082 HD
ENDBRANCH  21  28
ENDBRANCH  20  21
ENDBRANCH   1  20
TORSDOF 6
