REMARK  Name = ZINC43632049
REMARK  6 active torsions:
REMARK  status: ('A' for Active; 'I' for Inactive)
REMARK    1  A    between atoms: C_1  and  O_2
REMARK    2  A    between atoms: O_2  and  C_3
REMARK    3  A    between atoms: C_8  and  C_9
REMARK    4  A    between atoms: C_9  and  C_10
REMARK    5  A    between atoms: C_10  and  N_11
REMARK    6  A    between atoms: N_16  and  C_24
REMARK                            x       y       z     vdW  Elec       q    Type
REMARK                         _______ _______ _______ _____ _____    ______ ____
ROOT
ATOM      1  N   UNL     1       0.428  -3.784  -2.214  0.00  0.00    -0.298 N 
ATOM      2  C   UNL     1       0.694  -5.214  -2.231  0.00  0.00    +0.076 C 
ATOM      3  C   UNL     1       2.144  -5.495  -1.841  0.00  0.00    +0.004 C 
ATOM      4  C   UNL     1       3.080  -4.964  -2.929  0.00  0.00    -0.077 C 
ATOM      5  N   UNL     1       2.772  -5.629  -4.202  0.00  0.00    +0.382 N 
ATOM      6  C   UNL     1       1.412  -5.278  -4.624  0.00  0.00    -0.073 C 
ATOM      7  C   UNL     1       0.420  -5.803  -3.614  0.00  0.00    -0.007 C 
ATOM      8  C   UNL     1      -0.978  -5.359  -4.063  0.00  0.00    +0.013 C 
ATOM      9  C   UNL     1      -0.954  -3.846  -4.295  0.00  0.00    +0.096 C 
ATOM     10  C   UNL     1      -0.345  -3.160  -3.105  0.00  0.00    +0.216 C 
ATOM     11  O   UNL     1      -0.536  -1.970  -2.967  0.00  0.00    -0.276 OA
ATOM     12  H   UNL     1       2.840  -6.628  -4.083  0.00  0.00    -0.081 HD
ENDROOT
BRANCH   5  13
ATOM     13  C   UNL     1       3.731  -5.192  -5.226  0.00  0.00    -0.060 C 
ATOM     14  C   UNL     1       3.548  -6.000  -6.528  0.00  0.00    +0.020 C 
ATOM     15  C   UNL     1       4.944  -6.165  -7.091  0.00  0.00    -0.046 A 
ATOM     16  C   UNL     1       5.362  -6.514  -8.364  0.00  0.00    +0.004 A 
ATOM     17  C   UNL     1       6.710  -6.604  -8.652  0.00  0.00    +0.000 A 
ATOM     18  C   UNL     1       7.645  -6.346  -7.667  0.00  0.00    +0.000 A 
ATOM     19  C   UNL     1       7.229  -5.998  -6.397  0.00  0.00    +0.004 A 
ATOM     20  C   UNL     1       5.878  -5.907  -6.106  0.00  0.00    -0.046 A 
ATOM     21  C   UNL     1       5.175  -5.550  -4.814  0.00  0.00    +0.020 C 
ENDBRANCH   5  13
BRANCH   1  22
ATOM     22  C   UNL     1       1.040  -2.982  -1.153  0.00  0.00    +0.113 C 
BRANCH  22  23
ATOM     23  C   UNL     1       0.170  -3.049   0.104  0.00  0.00    +0.058 C 
BRANCH  23  29
ATOM     24  C   UNL     1       0.558  -0.860   1.263  0.00  0.00    +0.123 A 
ATOM     25  C   UNL     1       1.135  -0.104   2.273  0.00  0.00    +0.046 A 
ATOM     26  C   UNL     1       1.954  -0.710   3.206  0.00  0.00    +0.004 A 
ATOM     27  C   UNL     1       2.198  -2.069   3.134  0.00  0.00    +0.000 A 
ATOM     28  C   UNL     1       1.625  -2.825   2.128  0.00  0.00    +0.007 A 
ATOM     29  C   UNL     1       0.800  -2.224   1.196  0.00  0.00    -0.004 A 
BRANCH  24  31
ATOM     30  C   UNL     1      -0.454   1.142   0.475  0.00  0.00    +0.277 C 
ATOM     31  O   UNL     1      -0.248  -0.266   0.344  0.00  0.00    -0.495 OA
ENDBRANCH  24  31
ENDBRANCH  23  29
ENDBRANCH  22  23
ENDBRANCH   1  22
TORSDOF 5
