REMARK  Name = ZINC42270714
REMARK  3 active torsions:
REMARK  status: ('A' for Active; 'I' for Inactive)
REMARK    1  A    between atoms: C_2  and  C_10
REMARK    2  A    between atoms: C_6  and  N_7
REMARK    3  A    between atoms: C_17  and  C_19
REMARK                            x       y       z     vdW  Elec       q    Type
REMARK                         _______ _______ _______ _____ _____    ______ ____
ROOT
ATOM      1  C   UNL     1       1.024   4.453   1.651  0.00  0.00    +0.250 C 
ATOM      2  O   UNL     1       2.084   4.985   1.383  0.00  0.00    -0.270 OA
ATOM      3  N   UNL     1      -0.060   4.689   0.887  0.00  0.00    -0.286 N 
ATOM      4  C   UNL     1      -1.309   3.948   1.111  0.00  0.00    +0.109 C 
ATOM      5  C   UNL     1      -1.749   3.311  -0.211  0.00  0.00    +0.019 C 
ATOM      6  C   UNL     1      -1.845   4.395  -1.287  0.00  0.00    +0.004 C 
ATOM      7  C   UNL     1      -0.471   5.036  -1.493  0.00  0.00    +0.032 C 
ATOM      8  C   UNL     1      -0.018   5.696  -0.182  0.00  0.00    +0.162 C 
ENDROOT
BRANCH   1  10
ATOM      9  C   UNL     1      -0.319   3.273   3.384  0.00  0.00    +0.041 A 
ATOM     10  C   UNL     1       0.926   3.548   2.813  0.00  0.00    +0.074 A 
ATOM     11  C   UNL     1       2.079   2.963   3.346  0.00  0.00    +0.138 A 
ATOM     12  C   UNL     1       1.982   2.115   4.434  0.00  0.00    +0.079 A 
ATOM     13  C   UNL     1       0.748   1.845   4.998  0.00  0.00    +0.147 A 
ATOM     14  C   UNL     1      -0.405   2.424   4.473  0.00  0.00    +0.061 A 
ATOM     15  F   UNL     1       0.661   1.016   6.061  0.00  0.00    -0.203 F 
ATOM     16  F   UNL     1       3.285   3.224   2.798  0.00  0.00    -0.205 F 
BRANCH  14  17
ATOM     17  N   UNL     1      -1.651   2.147   5.048  0.00  0.00    -0.356 N 
ATOM     18  H   UNL     1      -2.454   2.550   4.682  0.00  0.00    +0.142 HD
ATOM     19  H   UNL     1      -1.711   1.552   5.811  0.00  0.00    +0.142 HD
ENDBRANCH  14  17
ENDBRANCH   1  10
BRANCH   8  20
ATOM     20  C   UNL     1       1.389   6.213  -0.333  0.00  0.00    +0.231 C 
ATOM     21  O   UNL     1       2.251   5.498  -0.798  0.00  0.00    -0.274 OA
ATOM     22  N   UNL     1       1.689   7.471   0.048  0.00  0.00    -0.328 N 
ATOM     23  H   UNL     1       1.000   8.043   0.420  0.00  0.00    +0.145 HD
ATOM     24  H   UNL     1       2.595   7.804  -0.050  0.00  0.00    +0.145 HD
ENDBRANCH   8  20
TORSDOF 3
