REMARK  Name = ZINC38787614
REMARK  7 active torsions:
REMARK  status: ('A' for Active; 'I' for Inactive)
REMARK    1  A    between atoms: C_1  and  C_2
REMARK    2  A    between atoms: C_4  and  C_12
REMARK    3  A    between atoms: C_12  and  C_14
REMARK    4  A    between atoms: C_14  and  C_16
REMARK    5  A    between atoms: C_14  and  N_17
REMARK    6  A    between atoms: N_20  and  S_23
REMARK    7  A    between atoms: S_23  and  C_26
REMARK                            x       y       z     vdW  Elec       q    Type
REMARK                         _______ _______ _______ _____ _____    ______ ____
ROOT
ATOM      1  C   UNL     1      -3.787  -0.953  -0.721  0.00  0.00    +0.125 C 
ATOM      2  C   UNL     1      -3.714  -2.450  -1.030  0.00  0.00    +0.032 C 
ENDROOT
BRANCH   1   3
ATOM      3  N   UNL     1      -4.754  -0.314  -1.624  0.00  0.00    -0.290 NA
ATOM      4  C   UNL     1      -4.431  -0.601  -3.029  0.00  0.00    +0.102 C 
ATOM      5  C   UNL     1      -5.346   0.226  -3.938  0.00  0.00    +0.124 C 
ATOM      6  N   UNL     1      -6.743  -0.033  -3.555  0.00  0.00    -0.178 NA
ATOM      7  C   UNL     1      -7.112   0.101  -2.138  0.00  0.00    +0.124 C 
ATOM      8  C   UNL     1      -6.127  -0.721  -1.299  0.00  0.00    +0.102 C 
BRANCH   6   9
ATOM      9  S   UNL     1      -7.870  -0.462  -4.690  0.00  0.00    +0.045 S 
ATOM     10  O   UNL     1      -9.112  -0.036  -4.147  0.00  0.00    -0.157 OA
ATOM     11  O   UNL     1      -7.385   0.087  -5.908  0.00  0.00    -0.157 OA
BRANCH   9  12
ATOM     12  C   UNL     1      -7.803  -2.274  -4.751  0.00  0.00    +0.213 C 
ATOM     13  C   UNL     1      -8.889  -2.852  -5.697  0.00  0.00    +0.066 C 
ATOM     14  C   UNL     1      -9.475  -4.103  -5.127  0.00  0.00    -0.017 C 
ATOM     15  C   UNL     1      -9.329  -4.372  -3.845  0.00  0.00    +0.038 C 
ATOM     16  S   UNL     1      -8.373  -3.025  -3.168  0.00  0.00    -0.105 S 
ENDBRANCH   9  12
ENDBRANCH   6   9
ENDBRANCH   1   3
BRANCH   1  17
ATOM     17  C   UNL     1      -2.428  -0.333  -0.919  0.00  0.00    +0.179 C 
ATOM     18  O   UNL     1      -2.209   0.349  -1.899  0.00  0.00    -0.291 OA
BRANCH  17  21
ATOM     19  C   UNL     1      -0.019   1.526   0.010  0.00  0.00    +0.035 C 
ATOM     20  C   UNL     1       0.002  -0.004   0.002  0.00  0.00    +0.111 C 
ATOM     21  C   UNL     1      -1.411  -0.544   0.036  0.00  0.00    +0.027 C 
ATOM     22  C   UNL     1      -1.496  -1.289   1.198  0.00  0.00    +0.006 A 
ATOM     23  C   UNL     1      -2.543  -2.035   1.788  0.00  0.00    +0.010 A 
ATOM     24  C   UNL     1      -2.344  -2.680   2.960  0.00  0.00    +0.001 A 
ATOM     25  C   UNL     1      -1.116  -2.646   3.640  0.00  0.00    +0.002 A 
ATOM     26  C   UNL     1      -0.053  -1.963   3.162  0.00  0.00    +0.026 A 
ATOM     27  C   UNL     1      -0.185  -1.232   1.891  0.00  0.00    +0.043 A 
ATOM     28  N   UNL     1       0.660  -0.506   1.212  0.00  0.00    -0.377 N 
ATOM     29  H   UNL     1       1.578  -0.327   1.468  0.00  0.00    +0.160 HD
ENDBRANCH  17  21
ENDBRANCH   1  17
TORSDOF 5
