REMARK  Name = ZINC12007789
REMARK  6 active torsions:
REMARK  status: ('A' for Active; 'I' for Inactive)
REMARK    1  A    between atoms: C_1  and  C_2
REMARK    2  A    between atoms: C_2  and  C_3
REMARK    3  A    between atoms: C_2  and  C_4
REMARK    4  A    between atoms: C_13  and  N_22
REMARK    5  A    between atoms: C_15  and  C_17
REMARK    6  A    between atoms: C_23  and  C_25
REMARK                            x       y       z     vdW  Elec       q    Type
REMARK                         _______ _______ _______ _____ _____    ______ ____
ROOT
ATOM      1  C   UNL     1       6.164   8.180   0.242  0.00  0.00    +0.053 A 
ATOM      2  C   UNL     1       7.187   9.062   0.433  0.00  0.00    +0.093 A 
ATOM      3  C   UNL     1       6.892  10.435   0.524  0.00  0.00    +0.253 A 
ATOM      4  O   UNL     1       7.782  11.252   0.694  0.00  0.00    -0.268 OA
ATOM      5  N   UNL     1       5.606  10.830   0.414  0.00  0.00    -0.291 N 
ATOM      6  H   UNL     1       5.380  11.772   0.470  0.00  0.00    +0.172 HD
ATOM      7  C   UNL     1       4.628   9.904   0.230  0.00  0.00    +0.234 A 
ATOM      8  N   UNL     1       4.911   8.622   0.146  0.00  0.00    -0.217 NA
ATOM      9  N   UNL     1       3.314  10.316   0.124  0.00  0.00    -0.184 N 
ATOM     10  C   UNL     1       2.227   9.504  -0.034  0.00  0.00    +0.133 A 
ATOM     11  C   UNL     1       1.126  10.295  -0.090  0.00  0.00    +0.077 A 
ATOM     12  C   UNL     1       1.550  11.635   0.031  0.00  0.00    +0.130 A 
ATOM     13  N   UNL     1       2.862  11.642   0.155  0.00  0.00    -0.159 NA
ENDROOT
BRANCH  12  14
ATOM     14  C   UNL     1       0.675  12.825   0.020  0.00  0.00    +0.155 A 
ATOM     15  C   UNL     1       1.082  14.117   0.142  0.00  0.00    +0.051 A 
ATOM     16  C   UNL     1      -0.076  14.916   0.075  0.00  0.00    +0.042 A 
ATOM     17  C   UNL     1      -1.124  14.082  -0.073  0.00  0.00    +0.196 A 
ATOM     18  O   UNL     1      -0.666  12.819  -0.106  0.00  0.00    -0.461 OA
ENDBRANCH  12  14
BRANCH  10  19
ATOM     19  N   UNL     1       2.246   8.114  -0.116  0.00  0.00    -0.266 N 
ATOM     20  C   UNL     1       1.087   7.425  -0.140  0.00  0.00    +0.249 C 
ATOM     21  O   UNL     1       0.027   8.017  -0.090  0.00  0.00    -0.270 OA
ATOM     22  H   UNL     1       3.092   7.642  -0.155  0.00  0.00    +0.157 HD
BRANCH  20  23
ATOM     23  C   UNL     1       1.107   5.950  -0.227  0.00  0.00    +0.038 A 
ATOM     24  C   UNL     1       2.337   5.271  -0.284  0.00  0.00    +0.013 A 
ATOM     25  C   UNL     1       2.381   3.917  -0.364  0.00  0.00    +0.009 A 
ATOM     26  C   UNL     1       1.187   3.174  -0.391  0.00  0.00    -0.018 A 
ATOM     27  C   UNL     1       1.207   1.772  -0.473  0.00  0.00    +0.008 A 
ATOM     28  C   UNL     1       0.035   1.080  -0.498  0.00  0.00    +0.001 A 
ATOM     29  C   UNL     1      -1.191   1.742  -0.448  0.00  0.00    +0.001 A 
ATOM     30  C   UNL     1      -1.251   3.099  -0.362  0.00  0.00    +0.008 A 
ATOM     31  C   UNL     1      -0.060   3.847  -0.334  0.00  0.00    -0.017 A 
ATOM     32  C   UNL     1      -0.086   5.247  -0.251  0.00  0.00    +0.021 A 
ENDBRANCH  20  23
ENDBRANCH  10  19
BRANCH   1  34
ATOM     33  C   UNL     1       5.710   5.963   1.255  0.00  0.00    +0.014 C 
ATOM     34  C   UNL     1       6.452   6.704   0.141  0.00  0.00    +0.032 C 
ATOM     35  C   UNL     1       5.980   6.185  -1.219  0.00  0.00    +0.014 C 
ENDBRANCH   1  34
TORSDOF 4
