REMARK  Name = ZINC39494867
REMARK  11 active torsions:
REMARK  status: ('A' for Active; 'I' for Inactive)
REMARK    1  A    between atoms: C_4  and  C_7
REMARK    2  A    between atoms: C_7  and  C_9
REMARK    3  A    between atoms: C_7  and  N_27
REMARK    4  A    between atoms: C_9  and  C_11
REMARK    5  A    between atoms: C_9  and  C_18
REMARK    6  A    between atoms: C_16  and  O_17
REMARK    7  A    between atoms: C_18  and  C_20
REMARK    8  A    between atoms: C_25  and  O_26
REMARK    9  A    between atoms: C_28  and  S_30
REMARK   10  A    between atoms: S_30  and  O_33
REMARK   11  A    between atoms: O_33  and  C_34
REMARK                            x       y       z     vdW  Elec       q    Type
REMARK                         _______ _______ _______ _____ _____    ______ ____
ROOT
ATOM      1  C   UNL     1       3.704  -0.707  -0.039  0.00  0.00    +0.120 C 
ENDROOT
BRANCH   1   5
ATOM      2  C   UNL     1       0.053   1.510  -0.049  0.00  0.00    +0.000 A 
ATOM      3  C   UNL     1       1.265   2.174  -0.014  0.00  0.00    +0.000 A 
ATOM      4  C   UNL     1       2.446   1.456  -0.010  0.00  0.00    +0.005 A 
ATOM      5  C   UNL     1       2.416   0.075  -0.042  0.00  0.00    -0.026 A 
ATOM      6  C   UNL     1       1.204  -0.589  -0.076  0.00  0.00    +0.005 A 
ATOM      7  C   UNL     1       0.023   0.128  -0.082  0.00  0.00    +0.000 A 
ENDBRANCH   1   5
BRANCH   1   8
ATOM      8  N   UNL     1       3.606  -1.807   0.924  0.00  0.00    -0.286 N 
ATOM      9  C   UNL     1       3.885  -1.590   2.225  0.00  0.00    +0.391 C 
ATOM     10  O   UNL     1       4.218  -0.485   2.598  0.00  0.00    -0.246 OA
ATOM     11  H   UNL     1       3.340  -2.690   0.626  0.00  0.00    +0.151 HD
BRANCH   9  12
ATOM     12  S   UNL     1       3.767  -2.912   3.384  0.00  0.00    +0.203 S 
ATOM     13  O   UNL     1       3.913  -2.336   4.674  0.00  0.00    -0.127 OA
ATOM     14  O   UNL     1       2.626  -3.675   3.014  0.00  0.00    -0.127 OA
BRANCH  12  15
ATOM     15  O   UNL     1       4.978  -3.809   3.168  0.00  0.00    -0.339 OA
BRANCH  15  16
ATOM     16  C   UNL     1       6.139  -3.296   3.654  0.00  0.00    +0.157 A 
ATOM     17  C   UNL     1       6.936  -2.496   2.848  0.00  0.00    +0.048 A 
ATOM     18  C   UNL     1       8.115  -1.975   3.345  0.00  0.00    +0.004 A 
ATOM     19  C   UNL     1       8.502  -2.251   4.643  0.00  0.00    +0.000 A 
ATOM     20  C   UNL     1       7.709  -3.048   5.449  0.00  0.00    +0.004 A 
ATOM     21  C   UNL     1       6.526  -3.566   4.959  0.00  0.00    +0.048 A 
ENDBRANCH  15  16
ENDBRANCH  12  15
ENDBRANCH   9  12
ENDBRANCH   1   8
BRANCH   1  22
ATOM     22  C   UNL     1       3.959  -1.275  -1.436  0.00  0.00    +0.118 C 
BRANCH  22  23
ATOM     23  C   UNL     1       4.123  -0.142  -2.417  0.00  0.00    +0.007 A 
ATOM     24  C   UNL     1       5.202   0.715  -2.309  0.00  0.00    +0.008 A 
ATOM     25  C   UNL     1       5.352   1.754  -3.208  0.00  0.00    +0.001 A 
ATOM     26  C   UNL     1       4.425   1.940  -4.216  0.00  0.00    +0.004 A 
ATOM     27  C   UNL     1       3.345   1.085  -4.328  0.00  0.00    +0.046 A 
ATOM     28  C   UNL     1       3.194   0.038  -3.431  0.00  0.00    +0.121 A 
BRANCH  28  29
ATOM     29  O   UNL     1       2.136  -0.807  -3.542  0.00  0.00    -0.506 OA
ATOM     30  H   UNL     1       1.355  -0.526  -3.047  0.00  0.00    +0.292 HD
ENDBRANCH  28  29
ENDBRANCH  22  23
BRANCH  22  31
ATOM     31  C   UNL     1       5.214  -2.109  -1.418  0.00  0.00    +0.176 C 
ATOM     32  O   UNL     1       6.072  -1.897  -0.587  0.00  0.00    -0.291 OA
BRANCH  31  33
ATOM     33  C   UNL     1       5.399  -3.178  -2.407  0.00  0.00    +0.059 A 
ATOM     34  C   UNL     1       4.415  -3.423  -3.373  0.00  0.00    +0.015 A 
ATOM     35  C   UNL     1       4.597  -4.427  -4.298  0.00  0.00    +0.001 A 
ATOM     36  C   UNL     1       5.748  -5.198  -4.277  0.00  0.00    +0.004 A 
ATOM     37  C   UNL     1       6.727  -4.969  -3.331  0.00  0.00    +0.046 A 
ATOM     38  C   UNL     1       6.567  -3.958  -2.395  0.00  0.00    +0.127 A 
BRANCH  38  39
ATOM     39  O   UNL     1       7.530  -3.728  -1.469  0.00  0.00    -0.506 OA
ATOM     40  H   UNL     1       7.421  -4.235  -0.653  0.00  0.00    +0.292 HD
ENDBRANCH  38  39
ENDBRANCH  31  33
ENDBRANCH  22  31
ENDBRANCH   1  22
TORSDOF 11
