REMARK  Name = ZINC66943866
REMARK  4 active torsions:
REMARK  status: ('A' for Active; 'I' for Inactive)
REMARK    1  A    between atoms: C_5  and  C_6
REMARK    2  A    between atoms: C_8  and  C_11
REMARK    3  A    between atoms: C_17  and  C_19
REMARK    4  A    between atoms: C_19  and  N_20
REMARK                            x       y       z     vdW  Elec       q    Type
REMARK                         _______ _______ _______ _____ _____    ______ ____
ROOT
ATOM      1  C   UNL     1      -2.469  -4.571  -0.210  0.00  0.00    +0.266 C 
ATOM      2  O   UNL     1      -3.448  -5.289  -0.291  0.00  0.00    -0.268 OA
ATOM      3  N   UNL     1      -1.246  -5.114  -0.056  0.00  0.00    -0.295 N 
ATOM      4  C   UNL     1       0.029  -4.373  -0.054  0.00  0.00    +0.108 C 
ATOM      5  C   UNL     1       1.096  -5.417  -0.467  0.00  0.00    +0.021 C 
ATOM      6  C   UNL     1       0.572  -6.694   0.242  0.00  0.00    +0.022 C 
ATOM      7  C   UNL     1      -0.961  -6.542   0.145  0.00  0.00    +0.060 C 
ENDROOT
BRANCH   1  10
ATOM      8  C   UNL     1      -1.746  -1.007  -0.264  0.00  0.00    +0.116 A 
ATOM      9  N   UNL     1      -1.561  -2.316  -0.195  0.00  0.00    -0.234 NA
ATOM     10  C   UNL     1      -2.622  -3.107  -0.282  0.00  0.00    +0.133 A 
ATOM     11  C   UNL     1      -3.861  -2.546  -0.439  0.00  0.00    +0.080 A 
ATOM     12  S   UNL     1      -3.517  -0.899  -0.455  0.00  0.00    -0.074 S 
BRANCH   8  17
ATOM     13  C   UNL     1      -0.946   1.433  -0.261  0.00  0.00    +0.019 A 
ATOM     14  C   UNL     1       0.148   2.262  -0.172  0.00  0.00    +0.028 A 
ATOM     15  C   UNL     1       1.384   1.714  -0.021  0.00  0.00    +0.079 A 
ATOM     16  S   UNL     1       1.019  -0.034  -0.002  0.00  0.00    -0.075 S 
ATOM     17  C   UNL     1      -0.752   0.076  -0.195  0.00  0.00    +0.046 A 
ATOM     18 CL   UNL     1       2.921   2.509   0.116  0.00  0.00    -0.076 Cl
ENDBRANCH   8  17
ENDBRANCH   1  10
BRANCH   7  19
ATOM     19  C   UNL     1      -1.618  -7.026   1.439  0.00  0.00    -0.056 C 
BRANCH  19  20
ATOM     20  N   UNL     1      -1.501  -8.488   1.531  0.00  0.00    +0.381 N 
ATOM     21  C   UNL     1      -0.087  -8.874   1.773  0.00  0.00    -0.079 C 
ATOM     22  C   UNL     1      -0.207 -10.290   2.390  0.00  0.00    -0.020 C 
ATOM     23  C   UNL     1      -1.469 -10.175   3.277  0.00  0.00    -0.020 C 
ATOM     24  C   UNL     1      -2.261  -8.988   2.696  0.00  0.00    -0.079 C 
ATOM     25  H   UNL     1      -1.840  -8.918   0.683  0.00  0.00    -0.082 HD
ENDBRANCH  19  20
ENDBRANCH   7  19
TORSDOF 4
