REMARK  Name = ZINC03207102
REMARK  7 active torsions:
REMARK  status: ('A' for Active; 'I' for Inactive)
REMARK    1  A    between atoms: C_1  and  O_2
REMARK    2  A    between atoms: O_2  and  C_3
REMARK    3  A    between atoms: C_6  and  C_11
REMARK    4  A    between atoms: C_8  and  O_9
REMARK    5  A    between atoms: O_9  and  C_10
REMARK    6  A    between atoms: N_12  and  N_13
REMARK    7  A    between atoms: C_17  and  C_20
REMARK                            x       y       z     vdW  Elec       q    Type
REMARK                         _______ _______ _______ _____ _____    ______ ____
ROOT
ATOM      1  N   UNL     1       3.622  -0.858  -0.039  0.00  0.00    -0.124 NA
ATOM      2  C   UNL     1       3.642  -2.181  -0.046  0.00  0.00    +0.192 A 
ATOM      3  N   UNL     1       4.721  -3.033  -0.067  0.00  0.00    -0.332 N 
ATOM      4  H   UNL     1       5.626  -2.684  -0.079  0.00  0.00    +0.168 HD
ATOM      5  C   UNL     1       4.494  -4.380  -0.067  0.00  0.00    +0.055 A 
ATOM      6  C   UNL     1       3.226  -4.843  -0.058  0.00  0.00    +0.075 A 
ATOM      7  S   UNL     1       2.276  -3.332  -0.040  0.00  0.00    -0.056 S 
ENDROOT
BRANCH   5   8
ATOM      8  C   UNL     1       5.630  -5.326  -0.083  0.00  0.00    +0.000 A 
ATOM      9  C   UNL     1       5.397  -6.702  -0.089  0.00  0.00    +0.011 A 
ATOM     10  C   UNL     1       6.461  -7.580  -0.104  0.00  0.00    +0.022 A 
ATOM     11  C   UNL     1       7.759  -7.099  -0.113  0.00  0.00    +0.059 A 
ATOM     12  C   UNL     1       7.998  -5.734  -0.107  0.00  0.00    +0.060 A 
ATOM     13  C   UNL     1       6.941  -4.846  -0.098  0.00  0.00    +0.031 A 
ATOM     14 CL   UNL     1       9.629  -5.140  -0.117  0.00  0.00    -0.082 Cl
ATOM     15 CL   UNL     1       9.093  -8.210  -0.132  0.00  0.00    -0.082 Cl
ENDBRANCH   5   8
BRANCH   1  17
ATOM     16  C   UNL     1       2.474   1.077  -0.016  0.00  0.00    +0.143 C 
ATOM     17  N   UNL     1       2.495  -0.230  -0.024  0.00  0.00    -0.155 NA
BRANCH  16  21
ATOM     18  C   UNL     1      -1.238   3.136   0.030  0.00  0.00    +0.162 A 
ATOM     19  C   UNL     1      -1.216   1.749   0.017  0.00  0.00    +0.050 A 
ATOM     20  C   UNL     1      -0.013   1.076   0.008  0.00  0.00    +0.013 A 
ATOM     21  C   UNL     1       1.189   1.792   0.000  0.00  0.00    -0.002 A 
ATOM     22  C   UNL     1       1.165   3.191   0.008  0.00  0.00    +0.059 A 
ATOM     23  C   UNL     1      -0.046   3.857   0.023  0.00  0.00    +0.162 A 
BRANCH  18  25
ATOM     24  C   UNL     1      -3.612   2.994   0.051  0.00  0.00    +0.277 C 
ATOM     25  O   UNL     1      -2.428   3.795   0.044  0.00  0.00    -0.491 OA
ENDBRANCH  18  25
BRANCH  23  26
ATOM     26  O   UNL     1      -0.074   5.217   0.031  0.00  0.00    -0.491 OA
ATOM     27  C   UNL     1       1.186   5.891   0.022  0.00  0.00    +0.277 C 
ENDBRANCH  23  26
ENDBRANCH  16  21
ENDBRANCH   1  17
TORSDOF 5
