REMARK  Name = ZINC06084607
REMARK  7 active torsions:
REMARK  status: ('A' for Active; 'I' for Inactive)
REMARK    1  A    between atoms: N_9  and  C_12
REMARK    2  A    between atoms: C_12  and  O_13
REMARK    3  A    between atoms: O_13  and  C_14
REMARK    4  A    between atoms: C_14  and  C_16
REMARK    5  A    between atoms: C_16  and  C_17
REMARK    6  A    between atoms: C_17  and  N_18
REMARK    7  A    between atoms: N_21  and  C_22
REMARK                            x       y       z     vdW  Elec       q    Type
REMARK                         _______ _______ _______ _____ _____    ______ ____
ROOT
ATOM      1  C   UNL     1      -7.264   1.227   2.188  0.00  0.00    +0.117 C 
ENDROOT
BRANCH   1   2
ATOM      2  N   UNL     1      -6.368   0.892   1.079  0.00  0.00    -0.299 N 
ATOM      3  C   UNL     1      -5.103   1.358   1.069  0.00  0.00    +0.300 C 
ATOM      4  O   UNL     1      -4.706   2.058   1.981  0.00  0.00    -0.253 OA
ATOM      5  N   UNL     1      -4.279   1.049   0.049  0.00  0.00    -0.294 N 
ATOM      6  H   UNL     1      -6.684   0.334   0.351  0.00  0.00    +0.150 HD
ATOM      7  H   UNL     1      -4.595   0.491  -0.679  0.00  0.00    +0.151 HD
BRANCH   5   8
ATOM      8  C   UNL     1      -2.904   1.556   0.038  0.00  0.00    +0.037 C 
ATOM      9  C   UNL     1      -2.188   1.063  -1.221  0.00  0.00    +0.029 C 
ATOM     10  C   UNL     1      -0.753   1.593  -1.232  0.00  0.00    -0.008 C 
ATOM     11  C   UNL     1      -0.013   1.086   0.008  0.00  0.00    +0.007 C 
ATOM     12  C   UNL     1      -0.729   1.579   1.267  0.00  0.00    -0.008 C 
ATOM     13  C   UNL     1      -2.164   1.050   1.278  0.00  0.00    +0.029 C 
ATOM     14  C   UNL     1      -0.750   3.109   1.275  0.00  0.00    +0.007 C 
ATOM     15  C   UNL     1      -1.490   3.616   0.036  0.00  0.00    -0.008 C 
ATOM     16  C   UNL     1      -0.773   3.123  -1.223  0.00  0.00    +0.007 C 
ATOM     17  C   UNL     1      -2.925   3.086   0.047  0.00  0.00    +0.029 C 
ENDBRANCH   5   8
ENDBRANCH   1   2
BRANCH   1  18
ATOM     18  C   UNL     1      -8.629   0.577   1.955  0.00  0.00    +0.139 C 
BRANCH  18  19
ATOM     19  C   UNL     1      -9.551   0.922   3.096  0.00  0.00    +0.310 C 
ATOM     20  O   UNL     1      -9.156   1.617   4.002  0.00  0.00    -0.251 OA
BRANCH  19  21
ATOM     21  O   UNL     1     -10.810   0.458   3.106  0.00  0.00    -0.441 OA
BRANCH  21  22
ATOM     22  C   UNL     1     -11.642   0.830   4.236  0.00  0.00    +0.382 C 
BRANCH  22  31
ATOM     23  C   UNL     1     -15.376   5.387   2.456  0.00  0.00    +0.001 A 
ATOM     24  C   UNL     1     -14.584   6.410   2.961  0.00  0.00    +0.002 A 
ATOM     25  C   UNL     1     -13.398   6.133   3.601  0.00  0.00    +0.030 A 
ATOM     26  C   UNL     1     -12.982   4.807   3.747  0.00  0.00    +0.100 A 
ATOM     27  C   UNL     1     -13.790   3.770   3.233  0.00  0.00    +0.068 A 
ATOM     28  C   UNL     1     -14.988   4.072   2.588  0.00  0.00    +0.015 A 
ATOM     29  C   UNL     1     -13.330   2.382   3.399  0.00  0.00    +0.281 A 
ATOM     30  O   UNL     1     -13.983   1.445   2.977  0.00  0.00    -0.265 OA
ATOM     31  N   UNL     1     -12.153   2.189   4.039  0.00  0.00    -0.174 N 
ATOM     32  N   UNL     1     -11.428   3.284   4.518  0.00  0.00    -0.059 NA
ATOM     33  N   UNL     1     -11.819   4.497   4.372  0.00  0.00    -0.131 NA
ENDBRANCH  22  31
ENDBRANCH  21  22
ENDBRANCH  19  21
ENDBRANCH  18  19
ENDBRANCH   1  18
TORSDOF 7
