REMARK  Name = ZINC20374739
REMARK  3 active torsions:
REMARK  status: ('A' for Active; 'I' for Inactive)
REMARK    1  A    between atoms: C_12  and  C_14
REMARK    2  A    between atoms: N_20  and  C_21
REMARK    3  A    between atoms: C_21  and  C_22
REMARK                            x       y       z     vdW  Elec       q    Type
REMARK                         _______ _______ _______ _____ _____    ______ ____
ROOT
ATOM      1  C   UNL     1       2.776  -5.579  -3.002  0.00  0.00    +0.033 C 
ATOM      2  C   UNL     1       3.016  -4.335  -2.185  0.00  0.00    +0.031 C 
ATOM      3  C   UNL     1       2.931  -4.389  -0.825  0.00  0.00    +0.090 C 
ATOM      4  C   UNL     1       3.152  -3.215  -0.080  0.00  0.00    +0.249 C 
ATOM      5  O   UNL     1       3.092  -3.228   1.139  0.00  0.00    -0.270 OA
ATOM      6  N   UNL     1       3.430  -2.079  -0.743  0.00  0.00    -0.213 N 
ATOM      7  C   UNL     1       3.522  -2.090  -2.106  0.00  0.00    +0.199 C 
ATOM      8  N   UNL     1       3.311  -3.187  -2.795  0.00  0.00    -0.287 N 
ATOM      9  N   UNL     1       3.847  -0.897  -2.723  0.00  0.00    -0.185 NA
ATOM     10  C   UNL     1       4.745  -0.082  -2.042  0.00  0.00    +0.216 C 
ATOM     11  N   UNL     1       4.673  -0.037  -0.737  0.00  0.00    -0.224 NA
ATOM     12  C   UNL     1       3.638  -0.810  -0.039  0.00  0.00    +0.237 C 
ATOM     13  N   UNL     1       5.684   0.657  -2.723  0.00  0.00    -0.311 N 
ATOM     14  H   UNL     1       5.731   0.608  -3.821  0.00  0.00    +0.149 HD
ATOM     15  H   UNL     1       3.381  -3.148  -3.892  0.00  0.00    +0.155 HD
ENDROOT
BRANCH  12  16
ATOM     16  C   UNL     1       2.350  -0.027  -0.021  0.00  0.00    +0.013 A 
ATOM     17  C   UNL     1       2.371   1.359  -0.014  0.00  0.00    +0.010 A 
ATOM     18  C   UNL     1       1.162   2.038   0.002  0.00  0.00    +0.020 A 
ATOM     19  C   UNL     1      -0.016   1.314   0.009  0.00  0.00    +0.111 A 
ATOM     20  N   UNL     1       0.002  -0.004   0.002  0.00  0.00    -0.263 NA
ATOM     21  C   UNL     1       1.133  -0.682  -0.013  0.00  0.00    +0.118 A 
ENDBRANCH  12  16
BRANCH  13  22
ATOM     22  C   UNL     1       6.620   1.509  -1.986  0.00  0.00    +0.136 C 
BRANCH  22  23
ATOM     23  C   UNL     1       7.551   2.216  -2.973  0.00  0.00    +0.135 C 
ATOM     24  C   UNL     1       8.596   3.068  -2.210  0.00  0.00    +0.035 C 
ATOM     25  C   UNL     1       9.743   3.134  -3.255  0.00  0.00    +0.031 C 
ATOM     26  C   UNL     1       9.642   1.753  -3.939  0.00  0.00    +0.160 C 
ATOM     27  O   UNL     1       8.319   1.253  -3.712  0.00  0.00    -0.375 OA
ENDBRANCH  22  23
ENDBRANCH  13  22
TORSDOF 3
