REMARK  Name = ZINC04500690
REMARK  10 active torsions:
REMARK  status: ('A' for Active; 'I' for Inactive)
REMARK    1  A    between atoms: C_1  and  C_2
REMARK    2  A    between atoms: C_2  and  C_4
REMARK    3  A    between atoms: C_2  and  O_16
REMARK    4  A    between atoms: N_6  and  C_7
REMARK    5  A    between atoms: O_16  and  C_17
REMARK    6  A    between atoms: C_17  and  C_19
REMARK    7  A    between atoms: C_22  and  N_28
REMARK    8  A    between atoms: C_23  and  N_25
REMARK    9  A    between atoms: N_28  and  C_29
REMARK   10  A    between atoms: N_28  and  C_30
REMARK                            x       y       z     vdW  Elec       q    Type
REMARK                         _______ _______ _______ _____ _____    ______ ____
ROOT
ATOM      1  C   UNL     1      -2.961  -3.052   1.470  0.00  0.00    +0.062 C 
ATOM      2  C   UNL     1      -2.523  -2.795   0.027  0.00  0.00    +0.259 C 
ENDROOT
BRANCH   2   3
ATOM      3  C   UNL     1      -2.401  -4.108  -0.703  0.00  0.00    +0.258 C 
ATOM      4  O   UNL     1      -1.318  -4.484  -1.099  0.00  0.00    -0.271 OA
ATOM      5  N   UNL     1      -3.496  -4.865  -0.914  0.00  0.00    -0.280 N 
ATOM      6  H   UNL     1      -4.351  -4.597  -0.542  0.00  0.00    +0.155 HD
BRANCH   5   7
ATOM      7  C   UNL     1      -3.400  -6.040  -1.673  0.00  0.00    +0.072 A 
ATOM      8  C   UNL     1      -2.250  -6.815  -1.611  0.00  0.00    +0.029 A 
ATOM      9  C   UNL     1      -2.156  -7.973  -2.359  0.00  0.00    +0.043 A 
ATOM     10  C   UNL     1      -3.207  -8.363  -3.170  0.00  0.00    +0.161 A 
ATOM     11  C   UNL     1      -4.357  -7.592  -3.236  0.00  0.00    +0.195 A 
ATOM     12  C   UNL     1      -4.458  -6.433  -2.484  0.00  0.00    +0.182 A 
ATOM     13  F   UNL     1      -5.580  -5.684  -2.542  0.00  0.00    -0.200 F 
ATOM     14  F   UNL     1      -5.382  -7.973  -4.029  0.00  0.00    -0.199 F 
ATOM     15  F   UNL     1      -3.112  -9.496  -3.899  0.00  0.00    -0.202 F 
ENDBRANCH   5   7
ENDBRANCH   2   3
BRANCH   2  16
ATOM     16  O   UNL     1      -1.238  -2.119   0.024  0.00  0.00    -0.449 OA
BRANCH  16  17
ATOM     17  C   UNL     1      -1.255  -0.772   0.043  0.00  0.00    +0.340 C 
ATOM     18  O   UNL     1      -2.316  -0.178   0.061  0.00  0.00    -0.245 OA
BRANCH  17  19
ATOM     19  C   UNL     1       0.011  -0.018   0.041  0.00  0.00    +0.061 A 
ATOM     20  C   UNL     1       1.232  -0.700   0.020  0.00  0.00    +0.017 A 
ATOM     21  C   UNL     1       2.406  -0.001   0.018  0.00  0.00    +0.026 A 
ATOM     22  C   UNL     1       2.392   1.391   0.037  0.00  0.00    +0.060 A 
ATOM     23  C   UNL     1       1.181   2.078   0.058  0.00  0.00    +0.148 A 
ATOM     24  C   UNL     1      -0.005   1.380   0.060  0.00  0.00    +0.049 A 
BRANCH  23  25
ATOM     25  N   UNL     1       1.170   3.558   0.078  0.00  0.00    +0.058 N 
ATOM     26  O   UNL     1       0.110   4.159   0.096  0.00  0.00    -0.126 OA
ATOM     27  O   UNL     1       2.220   4.176   0.076  0.00  0.00    -0.126 OA
ENDBRANCH  23  25
BRANCH  22  28
ATOM     28  N   UNL     1       3.590   2.096   0.034  0.00  0.00    -0.334 N 
ATOM     29  C   UNL     1       4.403   1.757   1.209  0.00  0.00    +0.129 C 
ATOM     30  C   UNL     1       4.337   1.862  -1.209  0.00  0.00    +0.129 C 
ENDBRANCH  22  28
ENDBRANCH  17  19
ENDBRANCH  16  17
ENDBRANCH   2  16
TORSDOF 7
