REMARK  Name = ZINC01497746
REMARK  8 active torsions:
REMARK  status: ('A' for Active; 'I' for Inactive)
REMARK    1  A    between atoms: C_1  and  C_2
REMARK    2  A    between atoms: C_2  and  C_3
REMARK    3  A    between atoms: C_3  and  C_5
REMARK    4  A    between atoms: C_3  and  N_17
REMARK    5  A    between atoms: N_7  and  N_8
REMARK    6  A    between atoms: C_9  and  C_10
REMARK    7  A    between atoms: C_15  and  O_16
REMARK    8  A    between atoms: N_17  and  C_18
REMARK                            x       y       z     vdW  Elec       q    Type
REMARK                         _______ _______ _______ _____ _____    ______ ____
ROOT
ATOM      1  C   UNL     1       0.372  -1.950  -1.524  0.00  0.00    +0.252 C 
ATOM      2  O   UNL     1       1.317  -2.694  -1.682  0.00  0.00    -0.272 OA
ATOM      3  N   UNL     1      -0.882  -2.442  -1.539  0.00  0.00    -0.205 N 
ATOM      4  H   UNL     1      -1.638  -1.847  -1.413  0.00  0.00    +0.177 HD
ENDROOT
BRANCH   3   5
ATOM      5  N   UNL     1      -1.095  -3.812  -1.737  0.00  0.00    -0.188 NA
ATOM      6  C   UNL     1      -2.304  -4.286  -1.752  0.00  0.00    +0.142 C 
BRANCH   6   7
ATOM      7  C   UNL     1      -2.528  -5.728  -1.959  0.00  0.00    +0.036 A 
ATOM      8  C   UNL     1      -3.827  -6.241  -1.982  0.00  0.00    +0.013 A 
ATOM      9  C   UNL     1      -4.029  -7.591  -2.177  0.00  0.00    +0.001 A 
ATOM     10  C   UNL     1      -2.950  -8.441  -2.351  0.00  0.00    +0.004 A 
ATOM     11  C   UNL     1      -1.660  -7.946  -2.331  0.00  0.00    +0.046 A 
ATOM     12  C   UNL     1      -1.439  -6.591  -2.142  0.00  0.00    +0.125 A 
BRANCH  12  13
ATOM     13  O   UNL     1      -0.172  -6.103  -2.127  0.00  0.00    -0.506 OA
ATOM     14  H   UNL     1       0.236  -6.094  -1.250  0.00  0.00    +0.292 HD
ENDBRANCH  12  13
ENDBRANCH   6   7
ENDBRANCH   3   5
BRANCH   1  15
ATOM     15  C   UNL     1       0.602  -0.476  -1.312  0.00  0.00    +0.158 C 
BRANCH  15  17
ATOM     16  C   UNL     1       0.140   1.457   0.203  0.00  0.00    +0.006 C 
ATOM     17  C   UNL     1       0.025  -0.060   0.043  0.00  0.00    +0.028 C 
ENDBRANCH  15  17
BRANCH  15  18
ATOM     18  N   UNL     1       2.039  -0.197  -1.337  0.00  0.00    -0.333 N 
ATOM     19  H   UNL     1       2.545  -0.181  -0.510  0.00  0.00    +0.147 HD
BRANCH  18  20
ATOM     20  C   UNL     1       2.682   0.048  -2.554  0.00  0.00    +0.028 A 
ATOM     21  C   UNL     1       1.987  -0.092  -3.748  0.00  0.00    +0.024 A 
ATOM     22  C   UNL     1       2.625   0.150  -4.949  0.00  0.00    +0.017 A 
ATOM     23  C   UNL     1       3.955   0.531  -4.963  0.00  0.00    +0.018 A 
ATOM     24  C   UNL     1       4.650   0.671  -3.775  0.00  0.00    +0.017 A 
ATOM     25  C   UNL     1       4.016   0.436  -2.571  0.00  0.00    +0.024 A 
ATOM     26 BR   UNL     1       4.825   0.860  -6.609  0.00  0.00    -0.050 Br
ENDBRANCH  18  20
ENDBRANCH  15  18
ENDBRANCH   1  15
TORSDOF 7
