REMARK  Name = ZINC27297677
REMARK  8 active torsions:
REMARK  status: ('A' for Active; 'I' for Inactive)
REMARK    1  A    between atoms: C_3  and  C_12
REMARK    2  A    between atoms: C_5  and  O_7
REMARK    3  A    between atoms: O_7  and  C_8
REMARK    4  A    between atoms: C_8  and  C_9
REMARK    5  A    between atoms: C_21  and  C_29
REMARK    6  A    between atoms: C_22  and  N_28
REMARK    7  A    between atoms: C_23  and  C_24
REMARK    8  A    between atoms: C_23  and  C_26
REMARK                            x       y       z     vdW  Elec       q    Type
REMARK                         _______ _______ _______ _____ _____    ______ ____
ROOT
ATOM      1  C   UNL     1      -0.741   1.966  -1.242  0.00  0.00    +0.067 C 
ATOM      2  C   UNL     1      -2.233   1.633  -1.219  0.00  0.00    +0.040 C 
ATOM      3  C   UNL     1      -2.853   1.727  -2.588  0.00  0.00    +0.078 C 
ATOM      4  S   UNL     1      -3.705   3.293  -2.832  0.00  0.00    -0.156 S 
ATOM      5  C   UNL     1      -4.824   3.330  -1.395  0.00  0.00    +0.096 C 
ATOM      6  C   UNL     1      -3.993   3.100  -0.166  0.00  0.00    -0.011 C 
ATOM      7  C   UNL     1      -2.888   2.395  -0.117  0.00  0.00    -0.027 C 
ATOM      8  C   UNL     1      -2.169   2.381   1.197  0.00  0.00    +0.074 C 
ATOM      9  C   UNL     1      -0.884   1.965   1.252  0.00  0.00    +0.054 C 
ATOM     10  C   UNL     1      -0.108   1.484   0.064  0.00  0.00    +0.188 C 
ENDROOT
BRANCH   1  13
ATOM     11  C   UNL     1      -0.272   5.399  -2.746  0.00  0.00    +0.004 A 
ATOM     12  C   UNL     1      -0.439   4.031  -2.623  0.00  0.00    +0.004 A 
ATOM     13  C   UNL     1      -0.558   3.456  -1.372  0.00  0.00    -0.037 A 
ATOM     14  C   UNL     1      -0.516   4.247  -0.240  0.00  0.00    +0.049 A 
ATOM     15  C   UNL     1      -0.342   5.619  -0.360  0.00  0.00    +0.121 A 
ATOM     16  C   UNL     1      -0.223   6.193  -1.617  0.00  0.00    +0.045 A 
BRANCH  15  17
ATOM     17  O   UNL     1      -0.295   6.398   0.752  0.00  0.00    -0.483 OA
BRANCH  17  18
ATOM     18  C   UNL     1      -0.120   7.803   0.553  0.00  0.00    +0.324 C 
BRANCH  18  19
ATOM     19  C   UNL     1      -0.092   8.500   1.889  0.00  0.00    +0.248 C 
ATOM     20  O   UNL     1      -0.210   7.857   2.911  0.00  0.00    -0.272 OA
ATOM     21  N   UNL     1       0.064   9.837   1.948  0.00  0.00    -0.327 N 
ATOM     22  H   UNL     1       0.085  10.346   2.923  0.00  0.00    +0.145 HD
ATOM     23  H   UNL     1       0.171  10.420   1.021  0.00  0.00    +0.145 HD
ENDBRANCH  18  19
ENDBRANCH  17  18
ENDBRANCH  15  17
ENDBRANCH   1  13
BRANCH   9  24
ATOM     24  N   UNL     1      -0.256   1.984   2.466  0.00  0.00    -0.358 N 
ATOM     25  H   UNL     1       0.790   1.652   2.549  0.00  0.00    +0.142 HD
ATOM     26  H   UNL     1      -0.795   2.331   3.359  0.00  0.00    +0.142 HD
ENDBRANCH   9  24
BRANCH  10  27
ATOM     27  C   UNL     1      -0.079   0.012   0.071  0.00  0.00    +0.091 C 
ATOM     28  N   UNL     1      -0.056  -1.124   0.076  0.00  0.00    -0.194 NA
ENDBRANCH  10  27
BRANCH  10  29
ATOM     29  C   UNL     1       1.270   1.994   0.149  0.00  0.00    +0.091 C 
ATOM     30  N   UNL     1       2.334   2.387   0.215  0.00  0.00    -0.194 NA
ENDBRANCH  10  29
BRANCH   8  31
ATOM     31  C   UNL     1      -2.840   2.807   2.388  0.00  0.00    +0.101 C 
ATOM     32  N   UNL     1      -3.372   3.145   3.333  0.00  0.00    -0.191 NA
ENDBRANCH   8  31
TORSDOF 8
