REMARK  Name = ZINC31353989
REMARK  6 active torsions:
REMARK  status: ('A' for Active; 'I' for Inactive)
REMARK    1  A    between atoms: C_1  and  C_2
REMARK    2  A    between atoms: C_9  and  C_16
REMARK    3  A    between atoms: C_11  and  O_12
REMARK    4  A    between atoms: C_16  and  S_17
REMARK    5  A    between atoms: S_17  and  C_18
REMARK    6  A    between atoms: C_22  and  N_24
REMARK                            x       y       z     vdW  Elec       q    Type
REMARK                         _______ _______ _______ _____ _____    ______ ____
ROOT
ATOM      1  C   UNL     1       3.778   5.743  -0.767  0.00  0.00    +0.109 C 
ATOM      2  C   UNL     1       2.448   5.042  -0.664  0.00  0.00    +0.214 C 
ATOM      3  O   UNL     1       1.464   5.529  -1.178  0.00  0.00    -0.276 OA
ATOM      4  N   UNL     1       2.353   3.873   0.000  0.00  0.00    -0.286 N 
ATOM      5  C   UNL     1       1.145   3.175   0.016  0.00  0.00    +0.037 A 
ATOM      6  C   UNL     1       1.150   1.780   0.004  0.00  0.00    +0.024 A 
ATOM      7  C   UNL     1      -0.023   1.085   0.018  0.00  0.00    +0.013 A 
ATOM      8  C   UNL     1      -1.241   1.775   0.040  0.00  0.00    +0.022 A 
ATOM      9  C   UNL     1      -2.515   1.054   0.062  0.00  0.00    -0.020 A 
ATOM     10  C   UNL     1      -3.663   1.780   0.090  0.00  0.00    +0.092 A 
ATOM     11  C   UNL     1      -3.602   3.188   0.101  0.00  0.00    +0.285 A 
ATOM     12  O   UNL     1      -2.431   3.843   0.086  0.00  0.00    -0.425 OA
ATOM     13  C   UNL     1      -1.254   3.182   0.059  0.00  0.00    +0.141 A 
ATOM     14  C   UNL     1      -0.052   3.874   0.044  0.00  0.00    +0.070 A 
ATOM     15  H   UNL     1       3.228   3.468   0.530  0.00  0.00    +0.155 HD
ENDROOT
BRANCH  11  16
ATOM     16  O   UNL     1      -4.639   3.827   0.126  0.00  0.00    -0.480 OA
ATOM     17  H   UNL     1      -4.607   4.926   0.136  0.00  0.00    +0.295 HD
ENDBRANCH  11  16
BRANCH   9  18
ATOM     18  C   UNL     1      -2.552  -0.453   0.049  0.00  0.00    +0.113 C 
BRANCH  18  19
ATOM     19  S   UNL     1      -2.598  -1.040  -1.662  0.00  0.00    -0.081 S 
BRANCH  19  20
ATOM     20  C   UNL     1      -2.635  -2.780  -1.387  0.00  0.00    +0.192 A 
ATOM     21  N   UNL     1      -2.619  -3.238  -0.144  0.00  0.00    -0.207 NA
ATOM     22  C   UNL     1      -2.651  -4.546   0.102  0.00  0.00    +0.122 A 
ATOM     23  C   UNL     1      -2.693  -5.435  -0.968  0.00  0.00    +0.086 A 
ATOM     24  C   UNL     1      -2.704  -4.917  -2.260  0.00  0.00    +0.122 A 
ATOM     25  N   UNL     1      -2.674  -3.598  -2.430  0.00  0.00    -0.207 NA
ATOM     26  N   UNL     1      -2.640  -5.016   1.406  0.00  0.00    -0.343 N 
ATOM     27  H   UNL     1      -2.667  -6.098   1.601  0.00  0.00    +0.144 HD
ATOM     28  H   UNL     1      -2.603  -4.306   2.246  0.00  0.00    +0.144 HD
BRANCH  24  29
ATOM     29  N   UNL     1      -2.745  -5.765  -3.356  0.00  0.00    -0.343 N 
ATOM     30  H   UNL     1      -2.753  -5.349  -4.374  0.00  0.00    +0.144 HD
ATOM     31  H   UNL     1      -2.769  -6.855  -3.208  0.00  0.00    +0.144 HD
ENDBRANCH  24  29
ENDBRANCH  19  20
ENDBRANCH  18  19
ENDBRANCH   9  18
TORSDOF 5
