REMARK  Name = ZINC20611139
REMARK  3 active torsions:
REMARK  status: ('A' for Active; 'I' for Inactive)
REMARK    1  A    between atoms: C_12  and  C_15
REMARK    2  A    between atoms: C_15  and  C_16
REMARK    3  A    between atoms: N_21  and  C_24
REMARK                            x       y       z     vdW  Elec       q    Type
REMARK                         _______ _______ _______ _____ _____    ______ ____
ROOT
ATOM      1  C   UNL     1      -0.481   1.063  -2.557  0.00  0.00    +0.000 A 
ATOM      2  C   UNL     1       0.598   1.686  -3.158  0.00  0.00    +0.002 A 
ATOM      3  C   UNL     1       1.849   1.106  -3.116  0.00  0.00    +0.023 A 
ATOM      4  C   UNL     1       2.034  -0.114  -2.469  0.00  0.00    +0.039 A 
ATOM      5  C   UNL     1       0.941  -0.732  -1.869  0.00  0.00    +0.003 A 
ATOM      6  C   UNL     1      -0.305  -0.148  -1.912  0.00  0.00    +0.008 A 
ATOM      7  C   UNL     1       1.467  -2.007  -1.273  0.00  0.00    +0.136 C 
ATOM      8  C   UNL     1       1.232  -2.063   0.241  0.00  0.00    +0.122 C 
ATOM      9  C   UNL     1       0.940  -3.561   0.536  0.00  0.00    +0.107 C 
ATOM     10  C   UNL     1       1.054  -4.264  -0.833  0.00  0.00    +0.076 C 
ATOM     11  N   UNL     1       0.783  -3.188  -1.832  0.00  0.00    -0.295 NA
ATOM     12  C   UNL     1      -0.502  -3.552   0.991  0.00  0.00    +0.227 C 
ATOM     13  O   UNL     1      -1.140  -4.530   1.316  0.00  0.00    -0.275 OA
ATOM     14  N   UNL     1      -0.964  -2.297   0.980  0.00  0.00    -0.238 N 
ATOM     15  C   UNL     1      -0.067  -1.367   0.581  0.00  0.00    +0.228 C 
ATOM     16  O   UNL     1      -0.263  -0.173   0.502  0.00  0.00    -0.275 OA
ATOM     17  C   UNL     1       2.935  -2.017  -1.601  0.00  0.00    +0.243 C 
ATOM     18  O   UNL     1       3.739  -2.874  -1.302  0.00  0.00    -0.273 OA
ATOM     19  N   UNL     1       3.184  -0.888  -2.294  0.00  0.00    -0.283 N 
ATOM     20  H   UNL     1      -0.206  -3.018  -1.935  0.00  0.00    +0.124 HD
ATOM     21  H   UNL     1       4.059  -0.642  -2.632  0.00  0.00    +0.155 HD
ENDROOT
BRANCH  14  22
ATOM     22  C   UNL     1      -2.332  -1.953   1.375  0.00  0.00    +0.084 C 
ATOM     23  C   UNL     1      -2.605  -2.440   2.813  0.00  0.00    +0.023 C 
ATOM     24  C   UNL     1      -4.078  -2.916   2.779  0.00  0.00    +0.002 C 
ATOM     25  C   UNL     1      -4.191  -3.579   1.384  0.00  0.00    +0.002 C 
ATOM     26  C   UNL     1      -3.340  -2.677   0.466  0.00  0.00    +0.023 C 
ENDBRANCH  14  22
BRANCH  10  27
ATOM     27  C   UNL     1       2.455  -4.852  -1.013  0.00  0.00    +0.115 C 
BRANCH  27  28
ATOM     28  C   UNL     1       2.469  -6.277  -0.521  0.00  0.00    +0.212 C 
ATOM     29  O   UNL     1       1.458  -6.773  -0.071  0.00  0.00    -0.276 OA
ATOM     30  N   UNL     1       3.605  -7.000  -0.583  0.00  0.00    -0.329 N 
ATOM     31  H   UNL     1       4.413  -6.603  -0.943  0.00  0.00    +0.145 HD
ATOM     32  H   UNL     1       3.614  -7.917  -0.266  0.00  0.00    +0.145 HD
ENDBRANCH  27  28
ENDBRANCH  10  27
TORSDOF 3
