REMARK  Name = ZINC08727105
REMARK  8 active torsions:
REMARK  status: ('A' for Active; 'I' for Inactive)
REMARK    1  A    between atoms: C_1  and  C_2
REMARK    2  A    between atoms: C_2  and  C_3
REMARK    3  A    between atoms: C_3  and  C_32
REMARK    4  A    between atoms: N_6  and  N_10
REMARK    5  A    between atoms: C_11  and  C_13
REMARK    6  A    between atoms: N_16  and  S_19
REMARK    7  A    between atoms: S_19  and  C_22
REMARK    8  A    between atoms: C_27  and  C_28
REMARK                            x       y       z     vdW  Elec       q    Type
REMARK                         _______ _______ _______ _____ _____    ______ ____
ROOT
ATOM      1  C   UNL     1       2.947   5.904  -0.747  0.00  0.00    +0.079 C 
ATOM      2  C   UNL     1       2.335   7.282  -0.487  0.00  0.00    +0.030 C 
ATOM      3  C   UNL     1       3.434   8.347  -0.561  0.00  0.00    +0.110 C 
ATOM      4  N   UNL     1       4.122   8.227  -1.853  0.00  0.00    -0.177 NA
ATOM      5  C   UNL     1       4.670   6.920  -2.243  0.00  0.00    +0.110 C 
ATOM      6  C   UNL     1       3.557   5.872  -2.151  0.00  0.00    +0.030 C 
ENDROOT
BRANCH   1   8
ATOM      7  N   UNL     1       1.196   4.693   0.512  0.00  0.00    -0.223 N 
ATOM      8  C   UNL     1       1.875   4.850  -0.642  0.00  0.00    +0.233 C 
ATOM      9  O   UNL     1       1.624   4.143  -1.595  0.00  0.00    -0.274 OA
ATOM     10  H   UNL     1       1.397   5.258   1.274  0.00  0.00    +0.174 HD
BRANCH   7  14
ATOM     11  C   UNL     1      -1.808   2.628   0.724  0.00  0.00    +0.111 C 
ATOM     12  C   UNL     1      -1.123   3.975   0.602  0.00  0.00    +0.263 C 
ATOM     13  O   UNL     1      -1.654   5.061   0.511  0.00  0.00    -0.271 OA
ATOM     14  N   UNL     1       0.199   3.713   0.610  0.00  0.00    -0.137 N 
ATOM     15  C   UNL     1       0.442   2.402   0.725  0.00  0.00    +0.326 C 
ATOM     16  O   UNL     1       1.558   1.923   0.755  0.00  0.00    -0.251 OA
ATOM     17  N   UNL     1      -0.687   1.675   0.802  0.00  0.00    -0.284 N 
ATOM     18  C   UNL     1      -2.670   2.345  -0.508  0.00  0.00    +0.041 C 
ATOM     19  H   UNL     1      -0.751   0.711   0.889  0.00  0.00    +0.151 HD
BRANCH  11  21
ATOM     20  C   UNL     1      -3.141   1.138   2.222  0.00  0.00    +0.006 C 
ATOM     21  C   UNL     1      -2.653   2.571   1.998  0.00  0.00    +0.032 C 
ENDBRANCH  11  21
ENDBRANCH   7  14
ENDBRANCH   1   8
BRANCH   4  22
ATOM     22  S   UNL     1       4.277   9.539  -2.851  0.00  0.00    +0.061 S 
ATOM     23  O   UNL     1       4.047  10.689  -2.049  0.00  0.00    -0.153 OA
ATOM     24  O   UNL     1       5.479   9.351  -3.586  0.00  0.00    -0.153 OA
BRANCH  22  25
ATOM     25  C   UNL     1       2.958   9.466  -4.017  0.00  0.00    +0.117 A 
ATOM     26  C   UNL     1       1.894   8.609  -3.804  0.00  0.00    +0.029 A 
ATOM     27  C   UNL     1       0.857   8.555  -4.716  0.00  0.00    +0.002 A 
ATOM     28  C   UNL     1       0.888   9.350  -5.846  0.00  0.00    +0.001 A 
ATOM     29  C   UNL     1       1.954  10.204  -6.061  0.00  0.00    +0.014 A 
ATOM     30  C   UNL     1       2.989  10.261  -5.147  0.00  0.00    +0.081 A 
BRANCH  30  31
ATOM     31  C   UNL     1       4.151  11.191  -5.382  0.00  0.00    +0.419 C 
ATOM     32  F   UNL     1       3.896  11.982  -6.507  0.00  0.00    -0.166 F 
ATOM     33  F   UNL     1       4.324  12.014  -4.263  0.00  0.00    -0.166 F 
ATOM     34  F   UNL     1       5.313  10.441  -5.593  0.00  0.00    -0.166 F 
ENDBRANCH  30  31
ENDBRANCH  22  25
ENDBRANCH   4  22
TORSDOF 6
