REMARK  Name = ZINC06747794
REMARK  7 active torsions:
REMARK  status: ('A' for Active; 'I' for Inactive)
REMARK    1  A    between atoms: C_1  and  C_2
REMARK    2  A    between atoms: C_2  and  O_3
REMARK    3  A    between atoms: O_3  and  C_4
REMARK    4  A    between atoms: C_6  and  C_11
REMARK    5  A    between atoms: C_9  and  O_10
REMARK    6  A    between atoms: C_14  and  C_23
REMARK    7  A    between atoms: N_21  and  C_22
REMARK                            x       y       z     vdW  Elec       q    Type
REMARK                         _______ _______ _______ _____ _____    ______ ____
ROOT
ATOM      1  C   UNL     1      -0.229  -4.969   0.477  0.00  0.00    +0.141 C 
ATOM      2  C   UNL     1       0.860  -5.488   1.377  0.00  0.00    +0.030 A 
ATOM      3  C   UNL     1       1.860  -5.195   2.294  0.00  0.00    +0.066 A 
ATOM      4  N   UNL     1       2.417  -6.327   2.652  0.00  0.00    -0.178 NA
ATOM      5  N   UNL     1       1.865  -7.319   2.049  0.00  0.00    -0.272 N 
ATOM      6  H   UNL     1       2.115  -8.250   2.160  0.00  0.00    +0.189 HD
ATOM      7  C   UNL     1       0.874  -6.864   1.228  0.00  0.00    +0.126 A 
ATOM      8  C   UNL     1      -0.166  -7.240   0.265  0.00  0.00    +0.265 C 
ATOM      9  O   UNL     1      -0.410  -8.379  -0.084  0.00  0.00    -0.268 OA
ATOM     10  N   UNL     1      -0.815  -6.146  -0.176  0.00  0.00    -0.288 N 
ATOM     11  C   UNL     1      -1.916  -6.131  -1.143  0.00  0.00    +0.133 C 
ATOM     12  C   UNL     1       2.239  -3.823   2.788  0.00  0.00    +0.068 C 
ENDROOT
BRANCH   1  15
ATOM     13  C   UNL     1       0.777  -1.811  -1.336  0.00  0.00    +0.162 A 
ATOM     14  C   UNL     1       0.243  -2.669  -0.388  0.00  0.00    +0.055 A 
ATOM     15  C   UNL     1       0.352  -4.037  -0.555  0.00  0.00    -0.019 A 
ATOM     16  C   UNL     1       0.992  -4.552  -1.667  0.00  0.00    +0.009 A 
ATOM     17  C   UNL     1       1.526  -3.702  -2.616  0.00  0.00    +0.049 A 
ATOM     18  C   UNL     1       1.416  -2.330  -2.458  0.00  0.00    +0.158 A 
BRANCH  18  19
ATOM     19  O   UNL     1       1.936  -1.492  -3.394  0.00  0.00    -0.503 OA
ATOM     20  H   UNL     1       2.856  -1.241  -3.231  0.00  0.00    +0.292 HD
ENDBRANCH  18  19
BRANCH  13  21
ATOM     21  O   UNL     1       0.671  -0.465  -1.174  0.00  0.00    -0.489 OA
BRANCH  21  23
ATOM     22  C   UNL     1      -0.019   1.526   0.010  0.00  0.00    +0.048 C 
ATOM     23  C   UNL     1       0.002  -0.004   0.002  0.00  0.00    +0.226 C 
ENDBRANCH  21  23
ENDBRANCH  13  21
ENDBRANCH   1  15
TORSDOF 4
