REMARK  Name = ZINC26438781
REMARK  2 active torsions:
REMARK  status: ('A' for Active; 'I' for Inactive)
REMARK    1  A    between atoms: N_3  and  C_4
REMARK    2  A    between atoms: C_5  and  C_12
REMARK                            x       y       z     vdW  Elec       q    Type
REMARK                         _______ _______ _______ _____ _____    ______ ____
ROOT
ATOM      1  C   UNL     1      -0.278   2.563  -1.273  0.00  0.00    +0.095 A 
ATOM      2  C   UNL     1       0.434   3.735  -1.075  0.00  0.00    +0.170 A 
ATOM      3  N   UNL     1       0.609   4.186   0.159  0.00  0.00    -0.217 NA
ATOM      4  C   UNL     1       0.114   3.534   1.200  0.00  0.00    +0.179 A 
ATOM      5  N   UNL     1      -0.578   2.413   1.056  0.00  0.00    -0.327 N 
ATOM      6  C   UNL     1      -0.789   1.896  -0.150  0.00  0.00    +0.110 A 
ATOM      7  S   UNL     1      -1.703   0.401  -0.336  0.00  0.00    -0.031 S 
ATOM      8  S   UNL     1       0.376   4.178   2.819  0.00  0.00    -0.011 SA
ATOM      9  H   UNL     1      -0.983   1.900   1.941  0.00  0.00    +0.168 HD
ENDROOT
BRANCH   1  12
ATOM     10  C   UNL     1      -1.675   2.222  -3.174  0.00  0.00    +0.330 C 
ATOM     11  O   UNL     1      -2.532   2.903  -2.652  0.00  0.00    -0.279 OA
ATOM     12  N   UNL     1      -0.484   2.055  -2.566  0.00  0.00    -0.284 N 
ATOM     13  H   UNL     1       0.328   1.520  -3.082  0.00  0.00    +0.155 HD
ENDBRANCH   1  12
BRANCH   2  14
ATOM     14  C   UNL     1       1.003   4.489  -2.250  0.00  0.00    +0.436 C 
ATOM     15  F   UNL     1       0.798   3.751  -3.421  0.00  0.00    -0.164 F 
ATOM     16  F   UNL     1       0.364   5.728  -2.363  0.00  0.00    -0.164 F 
ATOM     17  F   UNL     1       2.374   4.686  -2.058  0.00  0.00    -0.164 F 
ENDBRANCH   2  14
TORSDOF 2
