REMARK  Name = ZINC13500571
REMARK  15 active torsions:
REMARK  status: ('A' for Active; 'I' for Inactive)
REMARK    1  A    between atoms: C_1  and  C_2
REMARK    2  A    between atoms: C_4  and  C_37
REMARK    3  A    between atoms: C_9  and  C_14
REMARK    4  A    between atoms: C_14  and  N_69
REMARK    5  A    between atoms: C_15  and  C_16
REMARK    6  A    between atoms: C_15  and  N_69
REMARK    7  A    between atoms: C_16  and  C_17
REMARK    8  A    between atoms: C_17  and  O_18
REMARK    9  A    between atoms: C_19  and  C_21
REMARK   10  A    between atoms: C_19  and  C_34
REMARK   11  A    between atoms: C_19  and  N_69
REMARK   12  A    between atoms: N_25  and  C_26
REMARK   13  A    between atoms: C_26  and  C_27
REMARK   14  A    between atoms: C_34  and  C_35
REMARK   15  A    between atoms: C_34  and  C_36
REMARK                            x       y       z     vdW  Elec       q    Type
REMARK                         _______ _______ _______ _____ _____    ______ ____
ROOT
ATOM      1  N   UNL     1      -2.930   8.954  -1.392  0.00  0.00    +0.389 N 
ATOM      2  H   UNL     1      -3.871   9.277  -1.643  0.00  0.00    -0.080 HD
ENDROOT
BRANCH   1   3
ATOM      3  C   UNL     1      -2.688   9.247   0.036  0.00  0.00    -0.037 C 
BRANCH   3  12
ATOM      4  C   UNL     1      -6.336   4.723   4.710  0.00  0.00    +0.044 C 
ATOM      5  C   UNL     1      -6.288   5.953   3.840  0.00  0.00    -0.050 A 
ATOM      6  C   UNL     1      -7.404   6.774   3.748  0.00  0.00    +0.008 A 
ATOM      7  C   UNL     1      -7.385   7.900   2.955  0.00  0.00    -0.026 A 
ATOM      8  C   UNL     1      -6.233   8.226   2.247  0.00  0.00    +0.052 A 
ATOM      9  C   UNL     1      -5.103   7.392   2.343  0.00  0.00    -0.001 A 
ATOM     10  C   UNL     1      -5.148   6.250   3.150  0.00  0.00    +0.013 A 
ATOM     11  C   UNL     1      -3.897   7.740   1.590  0.00  0.00    +0.017 A 
ATOM     12  C   UNL     1      -3.912   8.859   0.824  0.00  0.00    +0.001 A 
ATOM     13  C   UNL     1      -5.071   9.663   0.763  0.00  0.00    +0.251 A 
ATOM     14  O   UNL     1      -5.064  10.665   0.068  0.00  0.00    -0.268 OA
ATOM     15  N   UNL     1      -6.183   9.351   1.451  0.00  0.00    -0.322 N 
ATOM     16  H   UNL     1      -6.963   9.925   1.386  0.00  0.00    +0.169 HD
ATOM     17  C   UNL     1      -8.605   8.779   2.859  0.00  0.00    +0.046 C 
ENDBRANCH   3  12
ENDBRANCH   1   3
BRANCH   1  18
ATOM     18  C   UNL     1      -2.842   7.498  -1.631  0.00  0.00    -0.075 C 
BRANCH  18  19
ATOM     19  C   UNL     1      -4.231   6.888  -1.431  0.00  0.00    +0.009 C 
BRANCH  19  20
ATOM     20  C   UNL     1      -4.146   5.367  -1.582  0.00  0.00    +0.154 C 
BRANCH  20  21
ATOM     21  O   UNL     1      -5.443   4.797  -1.395  0.00  0.00    -0.395 OA
ATOM     22  H   UNL     1      -5.465   3.834  -1.477  0.00  0.00    +0.209 HD
ENDBRANCH  20  21
ENDBRANCH  19  20
ENDBRANCH  18  19
ENDBRANCH   1  18
BRANCH   1  23
ATOM     23  C   UNL     1      -1.939   9.664  -2.228  0.00  0.00    +0.006 C 
BRANCH  23  24
ATOM     24  C   UNL     1      -2.483   9.777  -3.629  0.00  0.00    +0.139 A 
ATOM     25  N   UNL     1      -2.419   8.866  -4.569  0.00  0.00    -0.115 NA
ATOM     26  N   UNL     1      -2.998   9.337  -5.620  0.00  0.00    -0.023 NA
ATOM     27  N   UNL     1      -3.423  10.527  -5.376  0.00  0.00    -0.044 NA
ATOM     28  N   UNL     1      -3.125  10.835  -4.159  0.00  0.00    -0.226 N 
BRANCH  28  29
ATOM     29  C   UNL     1      -3.427  12.098  -3.482  0.00  0.00    +0.182 C 
BRANCH  29  30
ATOM     30  C   UNL     1      -2.421  13.142  -3.892  0.00  0.00    -0.026 A 
ATOM     31  C   UNL     1      -1.298  13.362  -3.115  0.00  0.00    +0.008 A 
ATOM     32  C   UNL     1      -0.372  14.315  -3.493  0.00  0.00    +0.038 A 
ATOM     33  C   UNL     1      -0.574  15.057  -4.645  0.00  0.00    +0.123 A 
ATOM     34  C   UNL     1      -1.700  14.839  -5.419  0.00  0.00    +0.038 A 
ATOM     35  C   UNL     1      -2.623  13.882  -5.042  0.00  0.00    +0.008 A 
ATOM     36  F   UNL     1       0.329  15.993  -5.012  0.00  0.00    -0.205 F 
ENDBRANCH  29  30
ENDBRANCH  28  29
ENDBRANCH  23  24
BRANCH  23  37
ATOM     37  C   UNL     1      -0.615   8.898  -2.256  0.00  0.00    -0.024 C 
ATOM     38  C   UNL     1       0.386   9.641  -3.142  0.00  0.00    +0.006 C 
ATOM     39  C   UNL     1      -0.058   8.791  -0.835  0.00  0.00    +0.006 C 
ENDBRANCH  23  37
ENDBRANCH   1  23
TORSDOF 11
