REMARK  Name = ZINC03884757
REMARK  4 active torsions:
REMARK  status: ('A' for Active; 'I' for Inactive)
REMARK    1  A    between atoms: C_4  and  S_10
REMARK    2  A    between atoms: C_6  and  N_7
REMARK    3  A    between atoms: S_10  and  N_13
REMARK    4  A    between atoms: C_16  and  C_19
REMARK                            x       y       z     vdW  Elec       q    Type
REMARK                         _______ _______ _______ _____ _____    ______ ____
ROOT
ATOM      1  S   UNL     1      -5.214   1.000   0.032  0.00  0.00    +0.062 S 
ATOM      2  O   UNL     1      -6.026   1.568  -0.987  0.00  0.00    -0.153 OA
ATOM      3  O   UNL     1      -4.865  -0.377   0.049  0.00  0.00    -0.153 OA
ENDROOT
BRANCH   1   7
ATOM      4  C   UNL     1      -1.325   3.318   0.032  0.00  0.00    +0.034 A 
ATOM      5  C   UNL     1      -2.531   3.994   0.036  0.00  0.00    +0.024 A 
ATOM      6  C   UNL     1      -3.719   3.286   0.038  0.00  0.00    +0.067 A 
ATOM      7  C   UNL     1      -3.700   1.903   0.030  0.00  0.00    +0.126 A 
ATOM      8  C   UNL     1      -2.494   1.228   0.021  0.00  0.00    +0.062 A 
ATOM      9  C   UNL     1      -1.306   1.936   0.019  0.00  0.00    +0.128 A 
ATOM     10 CL   UNL     1      -5.234   4.134   0.049  0.00  0.00    -0.082 Cl
BRANCH   9  11
ATOM     11  N   UNL     1      -0.014   1.214   0.009  0.00  0.00    +0.056 N 
ATOM     12  O   UNL     1       0.002  -0.004   0.002  0.00  0.00    -0.126 OA
ATOM     13  O   UNL     1       1.032   1.837   0.002  0.00  0.00    -0.126 OA
ENDBRANCH   9  11
ENDBRANCH   1   7
BRANCH   1  14
ATOM     14  N   UNL     1      -5.970   1.316   1.471  0.00  0.00    -0.176 NA
ATOM     15  C   UNL     1      -5.728   0.467   2.646  0.00  0.00    +0.110 C 
ATOM     16  C   UNL     1      -7.068  -0.024   3.189  0.00  0.00    +0.032 C 
ATOM     17  C   UNL     1      -7.978   1.177   3.458  0.00  0.00    +0.105 C 
ATOM     18  C   UNL     1      -8.232   1.929   2.150  0.00  0.00    +0.032 C 
ATOM     19  C   UNL     1      -6.901   2.446   1.595  0.00  0.00    +0.110 C 
BRANCH  17  20
ATOM     20  C   UNL     1      -9.289   0.696   4.024  0.00  0.00    +0.359 C 
ATOM     21  O   UNL     1     -10.321   0.930   3.441  0.00  0.00    -0.246 OA
ATOM     22  O   UNL     1      -9.311   0.007   5.176  0.00  0.00    -0.246 OA
ENDBRANCH  17  20
ENDBRANCH   1  14
TORSDOF 4
