REMARK  Name = ZINC39934871
REMARK  8 active torsions:
REMARK  status: ('A' for Active; 'I' for Inactive)
REMARK    1  A    between atoms: C_1  and  C_2
REMARK    2  A    between atoms: C_7  and  C_12
REMARK    3  A    between atoms: C_12  and  C_33
REMARK    4  A    between atoms: C_13  and  C_14
REMARK    5  A    between atoms: C_17  and  O_21
REMARK    6  A    between atoms: O_21  and  C_22
REMARK    7  A    between atoms: C_22  and  C_23
REMARK    8  A    between atoms: C_26  and  C_29
REMARK                            x       y       z     vdW  Elec       q    Type
REMARK                         _______ _______ _______ _____ _____    ______ ____
ROOT
ATOM      1  C   UNL     1       2.395  -7.076   2.917  0.00  0.00    -0.021 A 
ATOM      2  C   UNL     1       3.680  -6.582   2.666  0.00  0.00    +0.031 A 
ATOM      3  C   UNL     1       4.783  -7.346   2.980  0.00  0.00    +0.085 A 
ATOM      4  C   UNL     1       4.621  -8.606   3.544  0.00  0.00    +0.157 A 
ATOM      5  C   UNL     1       3.346  -9.102   3.794  0.00  0.00    +0.085 A 
ATOM      6  C   UNL     1       2.237  -8.343   3.489  0.00  0.00    +0.031 A 
ATOM      7 CL   UNL     1       3.152 -10.677   4.498  0.00  0.00    -0.080 Cl
ATOM      8 CL   UNL     1       6.378  -6.734   2.669  0.00  0.00    -0.080 Cl
ENDROOT
BRANCH   1  10
ATOM      9  C   UNL     1       1.214  -5.497   1.475  0.00  0.00    +0.072 C 
ATOM     10  C   UNL     1       1.214  -6.265   2.584  0.00  0.00    +0.026 C 
BRANCH   9  17
ATOM     11  C   UNL     1       0.326   0.008  -2.739  0.00  0.00    +0.044 C 
ATOM     12  C   UNL     1       0.073  -1.305  -2.045  0.00  0.00    -0.048 A 
ATOM     13  C   UNL     1      -0.618  -2.314  -2.741  0.00  0.00    +0.005 A 
ATOM     14  C   UNL     1      -0.887  -3.517  -2.197  0.00  0.00    +0.027 A 
ATOM     15  C   UNL     1      -0.451  -3.807  -0.825  0.00  0.00    +0.060 A 
ATOM     16  N   UNL     1      -0.568  -4.855  -0.061  0.00  0.00    -0.359 N 
ATOM     17  C   UNL     1       0.077  -4.541   1.220  0.00  0.00    +0.216 C 
ATOM     18  N   UNL     1       0.587  -3.169   1.102  0.00  0.00    -0.359 N 
ATOM     19  C   UNL     1       0.281  -2.740  -0.089  0.00  0.00    +0.061 A 
ATOM     20  C   UNL     1       0.522  -1.469  -0.785  0.00  0.00    +0.030 A 
ATOM     21  H   UNL     1      -1.003  -5.690  -0.295  0.00  0.00    +0.162 HD
ATOM     22  H   UNL     1       1.065  -2.674   1.785  0.00  0.00    +0.162 HD
ENDBRANCH   9  17
BRANCH   9  23
ATOM     23  C   UNL     1       2.294  -5.590   0.539  0.00  0.00    +0.099 C 
ATOM     24  N   UNL     1       3.150  -5.665  -0.204  0.00  0.00    -0.191 NA
ENDBRANCH   9  23
ENDBRANCH   1  10
BRANCH   4  25
ATOM     25  O   UNL     1       5.711  -9.356   3.850  0.00  0.00    -0.484 OA
BRANCH  25  26
ATOM     26  C   UNL     1       6.260  -9.197   5.160  0.00  0.00    +0.264 C 
BRANCH  26  27
ATOM     27  C   UNL     1       7.455 -10.101   5.317  0.00  0.00    -0.010 A 
ATOM     28  C   UNL     1       7.285 -11.391   5.790  0.00  0.00    +0.008 A 
ATOM     29  C   UNL     1       8.374 -12.224   5.936  0.00  0.00    +0.015 A 
ATOM     30  C   UNL     1       9.651 -11.764   5.606  0.00  0.00    +0.063 A 
ATOM     31  C   UNL     1       9.815 -10.461   5.130  0.00  0.00    +0.015 A 
ATOM     32  C   UNL     1       8.716  -9.640   4.983  0.00  0.00    +0.008 A 
BRANCH  30  33
ATOM     33  C   UNL     1      10.821 -12.649   5.761  0.00  0.00    +0.387 C 
ATOM     34  O   UNL     1      10.675 -13.789   6.179  0.00  0.00    -0.241 OA
ATOM     35  O   UNL     1      11.938 -12.243   5.471  0.00  0.00    -0.241 OA
ENDBRANCH  30  33
ENDBRANCH  26  27
ENDBRANCH  25  26
ENDBRANCH   4  25
TORSDOF 7
