REMARK  Name = ZINC39994251
REMARK  7 active torsions:
REMARK  status: ('A' for Active; 'I' for Inactive)
REMARK    1  A    between atoms: C_1  and  C_2
REMARK    2  A    between atoms: C_9  and  N_27
REMARK    3  A    between atoms: C_10  and  C_13
REMARK    4  A    between atoms: C_14  and  C_15
REMARK    5  A    between atoms: C_14  and  C_17
REMARK    6  A    between atoms: N_19  and  C_20
REMARK    7  A    between atoms: C_31  and  C_34
REMARK                            x       y       z     vdW  Elec       q    Type
REMARK                         _______ _______ _______ _____ _____    ______ ____
ROOT
ATOM      1  C   UNL     1       0.957   1.297   0.020  0.00  0.00    +0.047 C 
ATOM      2  C   UNL     1       0.659  -0.180   0.026  0.00  0.00    -0.007 A 
ATOM      3  C   UNL     1       0.693  -0.891  -1.137  0.00  0.00    +0.008 A 
ATOM      4  C   UNL     1       0.414  -2.264  -1.116  0.00  0.00    +0.019 A 
ATOM      5  C   UNL     1       0.113  -2.876   0.052  0.00  0.00    +0.096 A 
ATOM      6  N   UNL     1       0.077  -2.174   1.219  0.00  0.00    -0.267 N 
ATOM      7  C   UNL     1       0.350  -0.835   1.231  0.00  0.00    +0.145 A 
ATOM      8  N   UNL     1       0.325  -0.130   2.363  0.00  0.00    -0.213 NA
ATOM      9  C   UNL     1       0.041  -0.692   3.527  0.00  0.00    +0.136 A 
ATOM     10  C   UNL     1      -0.246  -2.081   3.580  0.00  0.00    +0.081 A 
ATOM     11  C   UNL     1      -0.228  -2.817   2.367  0.00  0.00    +0.267 A 
ATOM     12  O   UNL     1      -0.467  -4.011   2.364  0.00  0.00    -0.267 OA
ENDROOT
BRANCH   9  13
ATOM     13  N   UNL     1       0.024   0.064   4.677  0.00  0.00    -0.314 N 
ATOM     14  C   UNL     1      -0.552   1.415   4.676  0.00  0.00    +0.106 C 
ATOM     15  C   UNL     1       0.486   2.394   5.235  0.00  0.00    +0.019 C 
ATOM     16  C   UNL     1       0.949   1.909   6.611  0.00  0.00    +0.006 C 
ATOM     17  C   UNL     1       1.606   0.534   6.474  0.00  0.00    +0.003 C 
ATOM     18  C   UNL     1       0.576  -0.468   5.930  0.00  0.00    +0.109 C 
ATOM     19  C   UNL     1       2.099   0.065   7.845  0.00  0.00    +0.009 C 
ENDBRANCH   9  13
BRANCH  10  20
ATOM     20  C   UNL     1      -0.551  -2.708   4.800  0.00  0.00    +0.040 C 
ATOM     21  C   UNL     1       0.293  -3.687   5.308  0.00  0.00    +0.114 C 
BRANCH  21  22
ATOM     22  C   UNL     1      -0.084  -4.426   6.517  0.00  0.00    +0.259 C 
ATOM     23  O   UNL     1      -1.137  -4.181   7.075  0.00  0.00    -0.269 OA
ATOM     24  N   UNL     1       0.735  -5.376   7.009  0.00  0.00    -0.281 N 
ATOM     25  H   UNL     1       1.541  -5.619   6.527  0.00  0.00    +0.155 HD
BRANCH  24  26
ATOM     26  C   UNL     1       0.423  -6.013   8.215  0.00  0.00    +0.034 A 
ATOM     27  C   UNL     1       1.436  -6.380   9.091  0.00  0.00    +0.025 A 
ATOM     28  C   UNL     1       1.125  -7.007  10.281  0.00  0.00    +0.022 A 
ATOM     29  C   UNL     1      -0.195  -7.271  10.601  0.00  0.00    +0.041 A 
ATOM     30  C   UNL     1      -1.207  -6.907   9.730  0.00  0.00    +0.022 A 
ATOM     31  C   UNL     1      -0.902  -6.274   8.541  0.00  0.00    +0.025 A 
ATOM     32 CL   UNL     1      -0.583  -8.062  12.097  0.00  0.00    -0.084 Cl
ENDBRANCH  24  26
ENDBRANCH  21  22
BRANCH  21  33
ATOM     33  C   UNL     1       1.533  -3.975   4.651  0.00  0.00    +0.104 C 
ATOM     34  N   UNL     1       2.516  -4.203   4.129  0.00  0.00    -0.191 NA
ENDBRANCH  21  33
ENDBRANCH  10  20
TORSDOF 5
