REMARK  Name = ZINC57073732
REMARK  6 active torsions:
REMARK  status: ('A' for Active; 'I' for Inactive)
REMARK    1  A    between atoms: C_4  and  N_22
REMARK    2  A    between atoms: C_5  and  N_7
REMARK    3  A    between atoms: C_8  and  C_10
REMARK    4  A    between atoms: C_10  and  C_11
REMARK    5  A    between atoms: C_11  and  C_13
REMARK    6  A    between atoms: C_11  and  N_18
REMARK                            x       y       z     vdW  Elec       q    Type
REMARK                         _______ _______ _______ _____ _____    ______ ____
ROOT
ATOM      1  N   UNL     1       0.887  -1.945  -0.014  0.00  0.00    -0.284 N 
ATOM      2  C   UNL     1      -0.359  -2.452  -0.094  0.00  0.00    +0.219 C 
ATOM      3  O   UNL     1      -1.306  -1.710  -0.250  0.00  0.00    -0.275 OA
ATOM      4  H   UNL     1       1.651  -2.541   0.027  0.00  0.00    +0.155 HD
ENDROOT
BRANCH   1   9
ATOM      5  C   UNL     1       0.505   1.632  -0.779  0.00  0.00    +0.002 A 
ATOM      6  C   UNL     1       1.459   2.186   0.056  0.00  0.00    +0.002 A 
ATOM      7  C   UNL     1       2.226   1.374   0.870  0.00  0.00    +0.029 A 
ATOM      8  C   UNL     1       2.040  -0.000   0.851  0.00  0.00    +0.086 A 
ATOM      9  C   UNL     1       1.079  -0.559   0.010  0.00  0.00    +0.059 A 
ATOM     10  C   UNL     1       0.314   0.264  -0.804  0.00  0.00    +0.025 A 
BRANCH   8  11
ATOM     11  N   UNL     1       2.818  -0.826   1.676  0.00  0.00    -0.238 N 
ATOM     12  C   UNL     1       3.800  -0.418   2.512  0.00  0.00    +0.114 A 
ATOM     13  C   UNL     1       4.301  -1.516   3.125  0.00  0.00    +0.041 A 
ATOM     14  C   UNL     1       3.604  -2.631   2.649  0.00  0.00    +0.135 A 
ATOM     15  N   UNL     1       2.711  -2.219   1.785  0.00  0.00    -0.175 NA
ENDBRANCH   8  11
ENDBRANCH   1   9
BRANCH   2  16
ATOM     16  C   UNL     1      -0.576  -3.939   0.011  0.00  0.00    +0.123 C 
BRANCH  16  17
ATOM     17  C   UNL     1      -2.070  -4.247  -0.110  0.00  0.00    +0.120 C 
BRANCH  17  18
ATOM     18  N   UNL     1      -2.537  -3.880  -1.450  0.00  0.00    -0.292 N 
ATOM     19  C   UNL     1      -1.995  -4.465  -2.536  0.00  0.00    +0.298 C 
ATOM     20  O   UNL     1      -1.119  -5.298  -2.405  0.00  0.00    -0.253 OA
ATOM     21  N   UNL     1      -2.425  -4.128  -3.768  0.00  0.00    -0.313 N 
ATOM     22  H   UNL     1      -3.236  -3.216  -1.554  0.00  0.00    +0.151 HD
ATOM     23  H   UNL     1      -3.124  -3.464  -3.873  0.00  0.00    +0.146 HD
ATOM     24  H   UNL     1      -2.035  -4.549  -4.550  0.00  0.00    +0.146 HD
ENDBRANCH  17  18
BRANCH  17  25
ATOM     25  C   UNL     1      -2.300  -5.719   0.116  0.00  0.00    +0.010 A 
ATOM     26  C   UNL     1      -2.733  -6.353   1.233  0.00  0.00    +0.013 A 
ATOM     27  C   UNL     1      -2.873  -7.728   1.212  0.00  0.00    +0.008 A 
ATOM     28  C   UNL     1      -2.572  -8.402   0.075  0.00  0.00    +0.045 A 
ATOM     29  S   UNL     1      -2.080  -7.079  -1.019  0.00  0.00    -0.100 S 
ENDBRANCH  17  25
ENDBRANCH  16  17
ENDBRANCH   2  16
TORSDOF 6
