REMARK  Name = ZINC39290029
REMARK  4 active torsions:
REMARK  status: ('A' for Active; 'I' for Inactive)
REMARK    1  A    between atoms: C_4  and  N_7
REMARK    2  A    between atoms: C_8  and  N_27
REMARK    3  A    between atoms: C_10  and  C_13
REMARK    4  A    between atoms: N_19  and  C_20
REMARK                            x       y       z     vdW  Elec       q    Type
REMARK                         _______ _______ _______ _____ _____    ______ ____
ROOT
ATOM      1  N   UNL     1       3.668  -0.583   0.051  0.00  0.00    -0.264 N 
ATOM      2  C   UNL     1       3.846  -2.044   0.012  0.00  0.00    +0.066 C 
ATOM      3  C   UNL     1       5.346  -2.242  -0.024  0.00  0.00    -0.007 C 
ATOM      4  C   UNL     1       5.903  -1.050  -0.006  0.00  0.00    +0.090 C 
ATOM      5  N   UNL     1       4.960  -0.041   0.033  0.00  0.00    -0.272 N 
ATOM      6  H   UNL     1       5.164   0.907   0.047  0.00  0.00    +0.169 HD
ENDROOT
BRANCH   1  10
ATOM      7  C   UNL     1       0.068   1.506   0.174  0.00  0.00    +0.000 A 
ATOM      8  C   UNL     1       1.266   2.196   0.162  0.00  0.00    +0.002 A 
ATOM      9  C   UNL     1       2.462   1.507   0.121  0.00  0.00    +0.024 A 
ATOM     10  C   UNL     1       2.460   0.118   0.093  0.00  0.00    +0.046 A 
ATOM     11  C   UNL     1       1.255  -0.572   0.106  0.00  0.00    +0.024 A 
ATOM     12  C   UNL     1       0.062   0.124   0.146  0.00  0.00    +0.002 A 
ENDBRANCH   1  10
BRANCH   3  13
ATOM     13  C   UNL     1       6.069  -3.563  -0.072  0.00  0.00    +0.246 C 
ATOM     14  N   UNL     1       5.806  -4.342   1.149  0.00  0.00    -0.168 NA
ATOM     15  N   UNL     1       6.883  -4.523   1.722  0.00  0.00    -0.098 NA
ATOM     16  C   UNL     1       7.931  -3.980   1.091  0.00  0.00    +0.183 C 
ATOM     17  S   UNL     1       9.551  -4.062   1.637  0.00  0.00    -0.015 S 
ATOM     18  N   UNL     1       7.530  -3.357  -0.044  0.00  0.00    -0.252 N 
BRANCH  18  19
ATOM     19  C   UNL     1       8.317  -2.676  -0.977  0.00  0.00    +0.038 A 
ATOM     20  C   UNL     1       9.668  -2.467  -0.727  0.00  0.00    +0.025 A 
ATOM     21  C   UNL     1      10.444  -1.794  -1.650  0.00  0.00    +0.022 A 
ATOM     22  C   UNL     1       9.876  -1.327  -2.823  0.00  0.00    +0.041 A 
ATOM     23  C   UNL     1       8.531  -1.532  -3.074  0.00  0.00    +0.022 A 
ATOM     24  C   UNL     1       7.752  -2.210  -2.157  0.00  0.00    +0.025 A 
ATOM     25 CL   UNL     1      10.854  -0.480  -3.981  0.00  0.00    -0.084 Cl
ENDBRANCH  18  19
ENDBRANCH   3  13
BRANCH   2  26
ATOM     26  N   UNL     1       3.224  -2.604  -1.195  0.00  0.00    +0.394 N 
ATOM     27  H   UNL     1       3.636  -2.181  -2.013  0.00  0.00    -0.087 HD
ATOM     28  H   UNL     1       3.376  -3.602  -1.220  0.00  0.00    -0.087 HD
ATOM     29  H   UNL     1       2.233  -2.415  -1.181  0.00  0.00    -0.087 HD
ENDBRANCH   2  26
TORSDOF 4
