REMARK  Name = ZINC36503570
REMARK  14 active torsions:
REMARK  status: ('A' for Active; 'I' for Inactive)
REMARK    1  A    between atoms: C_1  and  C_2
REMARK    2  A    between atoms: C_2  and  C_4
REMARK    3  A    between atoms: C_2  and  C_10
REMARK    4  A    between atoms: C_10  and  C_12
REMARK    5  A    between atoms: C_10  and  N_19
REMARK    6  A    between atoms: N_14  and  C_15
REMARK    7  A    between atoms: C_15  and  C_16
REMARK    8  A    between atoms: C_15  and  C_17
REMARK    9  A    between atoms: C_15  and  C_18
REMARK   10  A    between atoms: N_19  and  C_20
REMARK   11  A    between atoms: C_20  and  C_21
REMARK   12  A    between atoms: C_26  and  C_28
REMARK   13  A    between atoms: C_28  and  C_29
REMARK   14  A    between atoms: C_28  and  C_35
REMARK                            x       y       z     vdW  Elec       q    Type
REMARK                         _______ _______ _______ _____ _____    ______ ____
ROOT
ATOM      1  N   UNL     1      -2.587   1.227  -1.875  0.00  0.00    -0.281 N 
ATOM      2  C   UNL     1      -3.596   1.461  -1.012  0.00  0.00    +0.228 C 
ATOM      3  O   UNL     1      -3.493   1.124   0.148  0.00  0.00    -0.275 OA
ENDROOT
BRANCH   1   4
ATOM      4  C   UNL     1      -1.409   0.473  -1.437  0.00  0.00    +0.169 C 
BRANCH   4   5
ATOM      5  C   UNL     1      -1.298  -0.797  -2.241  0.00  0.00    +0.235 C 
ATOM      6  O   UNL     1      -1.811  -0.866  -3.338  0.00  0.00    -0.274 OA
ATOM      7  N   UNL     1      -0.629  -1.855  -1.742  0.00  0.00    -0.309 N 
ATOM      8  H   UNL     1      -0.219  -1.799  -0.864  0.00  0.00    +0.149 HD
BRANCH   7   9
ATOM      9  C   UNL     1      -0.521  -3.089  -2.523  0.00  0.00    +0.026 C 
ATOM     10  C   UNL     1       0.189  -2.794  -3.846  0.00  0.00    +0.031 C 
ATOM     11  C   UNL     1       0.282  -4.124  -1.734  0.00  0.00    +0.031 C 
ATOM     12  C   UNL     1      -1.921  -3.637  -2.807  0.00  0.00    +0.031 C 
ENDBRANCH   7   9
ENDBRANCH   4   5
BRANCH   4  14
ATOM     13  C   UNL     1      -0.244   2.586  -0.791  0.00  0.00    +0.015 C 
ATOM     14  C   UNL     1      -0.154   1.321  -1.647  0.00  0.00    +0.045 C 
BRANCH  14  15
ATOM     15  C   UNL     1       1.062   0.527  -1.243  0.00  0.00    -0.042 A 
ATOM     16  C   UNL     1       1.183   0.059   0.052  0.00  0.00    +0.004 A 
ATOM     17  C   UNL     1       2.298  -0.669   0.422  0.00  0.00    +0.000 A 
ATOM     18  C   UNL     1       3.292  -0.929  -0.503  0.00  0.00    +0.000 A 
ATOM     19  C   UNL     1       3.171  -0.461  -1.798  0.00  0.00    +0.000 A 
ATOM     20  C   UNL     1       2.054   0.264  -2.169  0.00  0.00    +0.004 A 
ENDBRANCH  14  15
ENDBRANCH   4  14
ENDBRANCH   1   4
BRANCH   1  21
ATOM     21  C   UNL     1      -2.668   1.726  -3.250  0.00  0.00    +0.182 C 
BRANCH  21  22
ATOM     22  C   UNL     1      -2.171   3.148  -3.298  0.00  0.00    +0.122 A 
ATOM     23  C   UNL     1      -0.929   3.536  -3.637  0.00  0.00    +0.046 A 
ATOM     24  C   UNL     1      -0.901   4.947  -3.548  0.00  0.00    +0.041 A 
ATOM     25  C   UNL     1      -2.129   5.336  -3.159  0.00  0.00    +0.195 A 
ATOM     26  O   UNL     1      -2.895   4.243  -3.015  0.00  0.00    -0.466 OA
ENDBRANCH  21  22
ENDBRANCH   1  21
BRANCH   2  27
ATOM     27  C   UNL     1      -4.853   2.142  -1.490  0.00  0.00    +0.135 C 
BRANCH  27  28
ATOM     28  C   UNL     1      -5.794   1.114  -2.064  0.00  0.00    -0.031 A 
ATOM     29  C   UNL     1      -6.078  -0.036  -1.352  0.00  0.00    +0.005 A 
ATOM     30  C   UNL     1      -6.941  -0.979  -1.878  0.00  0.00    +0.000 A 
ATOM     31  C   UNL     1      -7.521  -0.771  -3.116  0.00  0.00    +0.000 A 
ATOM     32  C   UNL     1      -7.237   0.380  -3.827  0.00  0.00    +0.000 A 
ATOM     33  C   UNL     1      -6.377   1.325  -3.299  0.00  0.00    +0.005 A 
ENDBRANCH  27  28
BRANCH  27  34
ATOM     34  C   UNL     1      -5.517   2.841  -0.332  0.00  0.00    -0.031 A 
ATOM     35  C   UNL     1      -5.974   2.108   0.748  0.00  0.00    +0.005 A 
ATOM     36  C   UNL     1      -6.583   2.748   1.810  0.00  0.00    +0.000 A 
ATOM     37  C   UNL     1      -6.735   4.122   1.793  0.00  0.00    +0.000 A 
ATOM     38  C   UNL     1      -6.278   4.855   0.714  0.00  0.00    +0.000 A 
ATOM     39  C   UNL     1      -5.665   4.215  -0.346  0.00  0.00    +0.005 A 
ENDBRANCH  27  34
ENDBRANCH   2  27
TORSDOF 10
