REMARK  Name = ZINC64713479
REMARK  8 active torsions:
REMARK  status: ('A' for Active; 'I' for Inactive)
REMARK    1  A    between atoms: C_1  and  C_2
REMARK    2  A    between atoms: C_4  and  S_9
REMARK    3  A    between atoms: C_5  and  C_8
REMARK    4  A    between atoms: S_9  and  N_12
REMARK    5  A    between atoms: N_12  and  C_13
REMARK    6  A    between atoms: C_13  and  C_14
REMARK    7  A    between atoms: C_14  and  C_16
REMARK    8  A    between atoms: C_14  and  C_23
REMARK                            x       y       z     vdW  Elec       q    Type
REMARK                         _______ _______ _______ _____ _____    ______ ____
ROOT
ATOM      1  C   UNL     1      -2.318  -3.294  -3.753  0.00  0.00    +0.064 C 
ENDROOT
BRANCH   1   2
ATOM      2  C   UNL     1      -2.210  -4.793  -3.636  0.00  0.00    -0.033 C 
ATOM      3  C   UNL     1      -1.230  -5.579  -4.137  0.00  0.00    -0.000 A 
ATOM      4  C   UNL     1      -0.018  -5.285  -4.912  0.00  0.00    +0.010 A 
ATOM      5  C   UNL     1       0.788  -6.306  -5.280  0.00  0.00    +0.001 A 
ATOM      6  C   UNL     1       0.497  -7.635  -4.940  0.00  0.00    +0.002 A 
ATOM      7  C   UNL     1      -0.597  -7.983  -4.230  0.00  0.00    +0.026 A 
ATOM      8  C   UNL     1      -1.514  -6.990  -3.791  0.00  0.00    +0.043 A 
ATOM      9  N   UNL     1      -2.627  -7.072  -3.102  0.00  0.00    -0.380 N 
ATOM     10  C   UNL     1      -3.171  -5.721  -2.928  0.00  0.00    +0.145 C 
ATOM     11  H   UNL     1      -3.022  -7.890  -2.761  0.00  0.00    +0.160 HD
ENDBRANCH   1   2
BRANCH   1  12
ATOM     12  C   UNL     1      -3.600  -2.937  -4.459  0.00  0.00    -0.021 A 
ATOM     13  C   UNL     1      -4.815  -3.313  -3.919  0.00  0.00    +0.006 A 
ATOM     14  C   UNL     1      -5.991  -2.985  -4.567  0.00  0.00    +0.000 A 
ATOM     15  C   UNL     1      -5.953  -2.281  -5.756  0.00  0.00    +0.001 A 
ATOM     16  C   UNL     1      -4.738  -1.904  -6.297  0.00  0.00    +0.020 A 
ATOM     17  C   UNL     1      -3.561  -2.227  -5.646  0.00  0.00    +0.045 A 
ATOM     18 CL   UNL     1      -2.035  -1.748  -6.322  0.00  0.00    -0.083 Cl
ENDBRANCH   1  12
BRANCH   1  19
ATOM     19  C   UNL     1      -2.316  -2.672  -2.355  0.00  0.00    +0.118 C 
BRANCH  19  20
ATOM     20  N   UNL     1      -2.300  -1.212  -2.470  0.00  0.00    -0.189 NA
ATOM     21  H   UNL     1      -2.076  -0.794  -3.317  0.00  0.00    +0.148 HD
BRANCH  20  22
ATOM     22  S   UNL     1      -2.666  -0.273  -1.156  0.00  0.00    +0.059 S 
ATOM     23  O   UNL     1      -3.870  -0.792  -0.609  0.00  0.00    -0.153 OA
ATOM     24  O   UNL     1      -2.539   1.079  -1.574  0.00  0.00    -0.153 OA
BRANCH  22  27
ATOM     25  C   UNL     1      -0.019   1.526   0.010  0.00  0.00    +0.047 C 
ATOM     26  C   UNL     1       0.002  -0.004   0.002  0.00  0.00    +0.196 C 
ATOM     27  C   UNL     1      -1.407  -0.548   0.046  0.00  0.00    +0.134 C 
ATOM     28  C   UNL     1      -1.526  -1.263   1.145  0.00  0.00    +0.061 C 
ATOM     29  N   UNL     1      -0.345  -1.271   1.865  0.00  0.00    -0.268 N 
ATOM     30  O   UNL     1       0.636  -0.500   1.190  0.00  0.00    -0.265 OA
ATOM     31  C   UNL     1      -2.784  -1.980   1.564  0.00  0.00    +0.067 C 
ATOM     32  H   UNL     1      -0.208  -1.735   2.706  0.00  0.00    +0.194 HD
ENDBRANCH  22  27
ENDBRANCH  20  22
ENDBRANCH  19  20
ENDBRANCH   1  19
TORSDOF 6
