REMARK  Name = ZINC08815712
REMARK  6 active torsions:
REMARK  status: ('A' for Active; 'I' for Inactive)
REMARK    1  A    between atoms: C_4  and  C_7
REMARK    2  A    between atoms: C_7  and  C_8
REMARK    3  A    between atoms: N_10  and  C_20
REMARK    4  A    between atoms: N_13  and  C_14
REMARK    5  A    between atoms: C_20  and  N_57
REMARK    6  A    between atoms: C_23  and  C_26
REMARK                            x       y       z     vdW  Elec       q    Type
REMARK                         _______ _______ _______ _____ _____    ______ ____
ROOT
ATOM      1  C   UNL     1       1.395   2.024  -0.000  0.00  0.00    +0.141 A 
ATOM      2  N   UNL     1       2.092   2.291  -1.058  0.00  0.00    -0.157 NA
ATOM      3  N   UNL     1       3.350   2.752  -0.647  0.00  0.00    -0.257 N 
ATOM      4  C   UNL     1       3.361   2.744   0.702  0.00  0.00    +0.181 A 
ATOM      5  S   UNL     1       4.662   3.217   1.709  0.00  0.00    -0.011 S 
ATOM      6  N   UNL     1       2.155   2.301   1.112  0.00  0.00    -0.275 N 
ENDROOT
BRANCH   6   7
ATOM      7  C   UNL     1       1.747   2.145   2.443  0.00  0.00    +0.050 A 
ATOM      8  C   UNL     1       0.719   2.926   2.952  0.00  0.00    +0.026 A 
ATOM      9  C   UNL     1       0.315   2.766   4.263  0.00  0.00    +0.002 A 
ATOM     10  C   UNL     1       0.942   1.837   5.072  0.00  0.00    +0.000 A 
ATOM     11  C   UNL     1       1.971   1.061   4.571  0.00  0.00    +0.002 A 
ATOM     12  C   UNL     1       2.375   1.212   3.259  0.00  0.00    +0.026 A 
ENDBRANCH   6   7
BRANCH   1  13
ATOM     13  C   UNL     1      -0.018   1.503   0.010  0.00  0.00    +0.111 C 
BRANCH  13  17
ATOM     14  C   UNL     1       0.039  -2.768  -0.013  0.00  0.00    +0.000 A 
ATOM     15  C   UNL     1       0.042  -2.084   1.188  0.00  0.00    +0.000 A 
ATOM     16  C   UNL     1       0.023  -0.702   1.195  0.00  0.00    +0.004 A 
ATOM     17  C   UNL     1       0.002  -0.004   0.002  0.00  0.00    -0.040 A 
ATOM     18  C   UNL     1      -0.006  -0.689  -1.199  0.00  0.00    +0.004 A 
ATOM     19  C   UNL     1       0.018  -2.071  -1.206  0.00  0.00    +0.000 A 
ENDBRANCH  13  17
ENDBRANCH   1  13
BRANCH   3  20
ATOM     20  C   UNL     1       4.451   3.166  -1.521  0.00  0.00    +0.072 C 
BRANCH  20  25
ATOM     21  C   UNL     1       3.170   4.887  -2.660  0.00  0.00    -0.076 C 
ATOM     22  C   UNL     1       3.606   6.083  -3.542  0.00  0.00    -0.012 C 
ATOM     23  C   UNL     1       5.099   5.751  -3.804  0.00  0.00    +0.001 C 
ATOM     24  C   UNL     1       5.550   5.106  -2.477  0.00  0.00    -0.068 C 
ATOM     25  N   UNL     1       4.335   4.622  -1.797  0.00  0.00    +0.393 N 
ATOM     26  H   UNL     1       4.220   5.124  -0.908  0.00  0.00    -0.079 HD
BRANCH  23  27
ATOM     27  C   UNL     1       5.884   7.007  -4.081  0.00  0.00    -0.046 A 
ATOM     28  C   UNL     1       5.835   8.063  -3.190  0.00  0.00    +0.004 A 
ATOM     29  C   UNL     1       6.558   9.214  -3.441  0.00  0.00    +0.000 A 
ATOM     30  C   UNL     1       7.324   9.312  -4.588  0.00  0.00    +0.000 A 
ATOM     31  C   UNL     1       7.370   8.258  -5.481  0.00  0.00    +0.000 A 
ATOM     32  C   UNL     1       6.649   7.106  -5.228  0.00  0.00    +0.004 A 
ENDBRANCH  23  27
ENDBRANCH  20  25
ENDBRANCH   3  20
TORSDOF 6
