REMARK  Name = ZINC37944130
REMARK  4 active torsions:
REMARK  status: ('A' for Active; 'I' for Inactive)
REMARK    1  A    between atoms: C_5  and  C_7
REMARK    2  A    between atoms: C_7  and  C_9
REMARK    3  A    between atoms: C_7  and  N_12
REMARK    4  A    between atoms: N_12  and  C_13
REMARK                            x       y       z     vdW  Elec       q    Type
REMARK                         _______ _______ _______ _____ _____    ______ ____
ROOT
ATOM      1  C   UNL     1       1.228  -2.186  -0.022  0.00  0.00    +0.188 C 
ENDROOT
BRANCH   1   6
ATOM      2  C   UNL     1      -0.653   0.805   1.310  0.00  0.00    +0.000 A 
ATOM      3  C   UNL     1      -0.702   1.620   0.194  0.00  0.00    +0.001 A 
ATOM      4  C   UNL     1      -0.126   1.204  -0.992  0.00  0.00    +0.015 A 
ATOM      5  C   UNL     1       0.499  -0.028  -1.062  0.00  0.00    +0.023 A 
ATOM      6  C   UNL     1       0.548  -0.843   0.054  0.00  0.00    -0.005 A 
ATOM      7  C   UNL     1      -0.028  -0.426   1.240  0.00  0.00    +0.007 A 
ATOM      8 BR   UNL     1       1.287  -0.598  -2.684  0.00  0.00    -0.050 Br
ENDBRANCH   1   6
BRANCH   1   9
ATOM      9  C   UNL     1       1.496  -2.693   1.372  0.00  0.00    +0.235 C 
ATOM     10  O   UNL     1       0.729  -3.477   1.889  0.00  0.00    -0.274 OA
ATOM     11  N   UNL     1       2.587  -2.276   2.043  0.00  0.00    -0.328 N 
ATOM     12  H   UNL     1       3.162  -1.595   1.659  0.00  0.00    +0.145 HD
ATOM     13  H   UNL     1       2.799  -2.656   2.910  0.00  0.00    +0.145 HD
ENDBRANCH   1   9
BRANCH   1  14
ATOM     14  N   UNL     1       0.362  -3.132  -0.729  0.00  0.00    -0.329 N 
ATOM     15  H   UNL     1      -0.598  -2.994  -0.743  0.00  0.00    +0.147 HD
BRANCH  14  16
ATOM     16  C   UNL     1       0.919  -4.235  -1.381  0.00  0.00    +0.042 A 
ATOM     17  C   UNL     1       2.293  -4.439  -1.356  0.00  0.00    +0.024 A 
ATOM     18  C   UNL     1       2.840  -5.530  -2.002  0.00  0.00    +0.002 A 
ATOM     19  C   UNL     1       2.022  -6.420  -2.673  0.00  0.00    +0.001 A 
ATOM     20  C   UNL     1       0.654  -6.222  -2.700  0.00  0.00    +0.017 A 
ATOM     21  C   UNL     1       0.099  -5.135  -2.052  0.00  0.00    +0.039 A 
ATOM     22 BR   UNL     1      -1.772  -4.868  -2.084  0.00  0.00    -0.048 Br
ENDBRANCH  14  16
ENDBRANCH   1  14
TORSDOF 4
