REMARK  Name = ZINC20690884
REMARK  9 active torsions:
REMARK  status: ('A' for Active; 'I' for Inactive)
REMARK    1  A    between atoms: C_1  and  C_2
REMARK    2  A    between atoms: C_2  and  C_3
REMARK    3  A    between atoms: C_3  and  C_4
REMARK    4  A    between atoms: C_4  and  N_5
REMARK    5  A    between atoms: C_6  and  C_8
REMARK    6  A    between atoms: C_21  and  C_24
REMARK    7  A    between atoms: C_27  and  O_31
REMARK    8  A    between atoms: C_28  and  O_30
REMARK    9  A    between atoms: O_31  and  C_32
REMARK                            x       y       z     vdW  Elec       q    Type
REMARK                         _______ _______ _______ _____ _____    ______ ____
ROOT
ATOM      1  C   UNL     1      -1.271   0.104   0.188  0.00  0.00    +0.037 A 
ATOM      2  C   UNL     1       0.081  -0.251   0.191  0.00  0.00    +0.015 A 
ATOM      3  C   UNL     1       0.433  -1.580   0.147  0.00  0.00    +0.024 A 
ATOM      4  C   UNL     1      -0.550  -2.564   0.088  0.00  0.00    +0.031 A 
ATOM      5  C   UNL     1      -1.897  -2.222   0.081  0.00  0.00    -0.019 A 
ATOM      6  C   UNL     1      -2.252  -0.886   0.130  0.00  0.00    +0.019 A 
ATOM      7  C   UNL     1      -2.983  -3.249   0.023  0.00  0.00    +0.049 C 
ATOM      8  C   UNL     1      -3.614  -3.308  -1.347  0.00  0.00    -0.023 C 
ATOM      9  C   UNL     1      -3.927  -4.545  -1.649  0.00  0.00    -0.030 C 
ATOM     10  C   UNL     1      -3.552  -5.480  -0.516  0.00  0.00    +0.033 C 
ATOM     11  C   UNL     1      -2.468  -4.681   0.267  0.00  0.00    +0.029 C 
ATOM     12  C   UNL     1      -1.137  -4.886  -0.461  0.00  0.00    +0.105 C 
ATOM     13  N   UNL     1      -0.168  -3.903   0.035  0.00  0.00    -0.336 N 
ATOM     14  H   UNL     1       0.833  -4.230   0.354  0.00  0.00    +0.147 HD
ENDROOT
BRANCH  12  15
ATOM     15  C   UNL     1      -1.336  -4.695  -1.942  0.00  0.00    -0.023 A 
ATOM     16  C   UNL     1      -1.189  -3.440  -2.502  0.00  0.00    +0.009 A 
ATOM     17  C   UNL     1      -1.371  -3.259  -3.861  0.00  0.00    +0.050 A 
ATOM     18  C   UNL     1      -1.701  -4.338  -4.665  0.00  0.00    +0.161 A 
ATOM     19  C   UNL     1      -1.849  -5.602  -4.101  0.00  0.00    +0.159 A 
ATOM     20  C   UNL     1      -1.661  -5.777  -2.740  0.00  0.00    +0.054 A 
BRANCH  19  21
ATOM     21  O   UNL     1      -2.173  -6.664  -4.886  0.00  0.00    -0.503 OA
ATOM     22  H   UNL     1      -2.290  -7.663  -4.440  0.00  0.00    +0.292 HD
ENDBRANCH  19  21
BRANCH  18  23
ATOM     23  O   UNL     1      -1.881  -4.162  -6.001  0.00  0.00    -0.491 OA
ATOM     24  C   UNL     1      -1.714  -2.837  -6.509  0.00  0.00    +0.277 C 
ENDBRANCH  18  23
ENDBRANCH  12  15
BRANCH   1  26
ATOM     25  N   UNL     1      -0.712   2.483   0.294  0.00  0.00    -0.311 N 
ATOM     26  C   UNL     1      -1.660   1.527   0.239  0.00  0.00    +0.244 C 
ATOM     27  O   UNL     1      -2.836   1.836   0.226  0.00  0.00    -0.270 OA
ATOM     28  H   UNL     1       0.352   2.203   0.301  0.00  0.00    +0.149 HD
BRANCH  25  29
ATOM     29  C   UNL     1      -1.099   3.895   0.345  0.00  0.00    +0.104 C 
BRANCH  29  30
ATOM     30  C   UNL     1       0.158   4.766   0.402  0.00  0.00    +0.018 C 
BRANCH  30  32
ATOM     31  C   UNL     1       1.011   7.112   0.512  0.00  0.00    +0.004 C 
ATOM     32  C   UNL     1      -0.246   6.241   0.455  0.00  0.00    -0.002 C 
ENDBRANCH  30  32
ENDBRANCH  29  30
ENDBRANCH  25  29
ENDBRANCH   1  26
TORSDOF 7
