REMARK  Name = ZINC28327631
REMARK  8 active torsions:
REMARK  status: ('A' for Active; 'I' for Inactive)
REMARK    1  A    between atoms: C_1  and  C_2
REMARK    2  A    between atoms: C_2  and  C_4
REMARK    3  A    between atoms: C_2  and  N_10
REMARK    4  A    between atoms: N_10  and  S_11
REMARK    5  A    between atoms: S_11  and  C_14
REMARK    6  A    between atoms: C_17  and  O_23
REMARK    7  A    between atoms: C_19  and  N_20
REMARK    8  A    between atoms: O_23  and  C_24
REMARK                            x       y       z     vdW  Elec       q    Type
REMARK                         _______ _______ _______ _____ _____    ______ ____
ROOT
ATOM      1  S   UNL     1      -2.245  -0.806  -1.472  0.00  0.00    +0.061 S 
ATOM      2  O   UNL     1      -3.602  -1.182  -1.280  0.00  0.00    -0.153 OA
ATOM      3  O   UNL     1      -1.870   0.328  -2.242  0.00  0.00    -0.153 OA
ENDROOT
BRANCH   1   4
ATOM      4  C   UNL     1      -1.435  -2.195  -2.194  0.00  0.00    +0.136 A 
ATOM      5  C   UNL     1      -0.674  -2.032  -3.338  0.00  0.00    +0.034 A 
ATOM      6  C   UNL     1      -0.039  -3.119  -3.906  0.00  0.00    +0.047 A 
ATOM      7  C   UNL     1      -0.164  -4.375  -3.328  0.00  0.00    +0.122 A 
ATOM      8  C   UNL     1      -0.927  -4.535  -2.181  0.00  0.00    +0.080 A 
ATOM      9  C   UNL     1      -1.557  -3.443  -1.614  0.00  0.00    +0.156 A 
BRANCH   9  10
ATOM     10  N   UNL     1      -2.367  -3.613  -0.387  0.00  0.00    +0.058 N 
ATOM     11  O   UNL     1      -2.580  -4.720   0.049  0.00  0.00    -0.126 OA
ATOM     12  O   UNL     1      -2.815  -2.644   0.180  0.00  0.00    -0.126 OA
ENDBRANCH   9  10
BRANCH   7  13
ATOM     13  O   UNL     1       0.460  -5.445  -3.886  0.00  0.00    -0.495 OA
ATOM     14  C   UNL     1       1.229  -5.206  -5.066  0.00  0.00    +0.277 C 
ENDBRANCH   7  13
ENDBRANCH   1   4
BRANCH   1  15
ATOM     15  N   UNL     1      -1.595  -0.591   0.036  0.00  0.00    -0.185 NA
ATOM     16  H   UNL     1      -2.145  -0.722   0.824  0.00  0.00    +0.148 HD
BRANCH  15  18
ATOM     17  C   UNL     1      -0.092   1.321   0.296  0.00  0.00    +0.028 C 
ATOM     18  C   UNL     1      -0.190  -0.202   0.179  0.00  0.00    +0.102 C 
BRANCH  18  19
ATOM     19  C   UNL     1       0.392  -0.848   1.438  0.00  0.00    +0.137 C 
ATOM     20  C   UNL     1       0.293  -2.385   1.331  0.00  0.00    +0.035 C 
ATOM     21  C   UNL     1      -0.088  -2.792   2.780  0.00  0.00    +0.031 C 
ATOM     22  C   UNL     1      -0.972  -1.591   3.200  0.00  0.00    +0.160 C 
ATOM     23  O   UNL     1      -0.362  -0.443   2.586  0.00  0.00    -0.375 OA
ENDBRANCH  18  19
ENDBRANCH  15  18
ENDBRANCH   1  15
TORSDOF 6
