REMARK  Name = ZINC11066109
REMARK  7 active torsions:
REMARK  status: ('A' for Active; 'I' for Inactive)
REMARK    1  A    between atoms: C_1  and  C_2
REMARK    2  A    between atoms: N_11  and  C_12
REMARK    3  A    between atoms: C_12  and  C_13
REMARK    4  A    between atoms: C_19  and  C_21
REMARK    5  A    between atoms: C_24  and  S_27
REMARK    6  A    between atoms: S_27  and  N_30
REMARK    7  A    between atoms: C_35  and  C_37
REMARK                            x       y       z     vdW  Elec       q    Type
REMARK                         _______ _______ _______ _____ _____    ______ ____
ROOT
ATOM      1  C   UNL     1      -5.778   7.871 -12.649  0.00  0.00    +0.044 C 
ATOM      2  C   UNL     1      -4.978   6.911 -11.806  0.00  0.00    -0.049 A 
ATOM      3  C   UNL     1      -4.505   5.726 -12.351  0.00  0.00    +0.005 A 
ATOM      4  C   UNL     1      -3.776   4.837 -11.606  0.00  0.00    +0.029 A 
ATOM      5  C   UNL     1      -3.479   5.103 -10.249  0.00  0.00    +0.080 A 
ATOM      6  C   UNL     1      -3.976   6.319  -9.728  0.00  0.00    +0.041 A 
ATOM      7  C   UNL     1      -4.707   7.204 -10.482  0.00  0.00    +0.020 A 
ATOM      8  S   UNL     1      -3.403   6.274  -8.047  0.00  0.00    -0.052 S 
ATOM      9  C   UNL     1      -2.567   4.696  -8.138  0.00  0.00    +0.168 A 
ATOM     10  N   UNL     1      -2.774   4.341  -9.385  0.00  0.00    -0.224 NA
ATOM     11  N   UNL     1      -1.874   4.023  -7.147  0.00  0.00    -0.244 N 
ATOM     12  C   UNL     1      -1.766   4.561  -5.916  0.00  0.00    +0.252 C 
ATOM     13  O   UNL     1      -2.355   5.590  -5.648  0.00  0.00    -0.270 OA
ENDROOT
BRANCH  12  14
ATOM     14  C   UNL     1      -0.932   3.898  -4.891  0.00  0.00    +0.037 A 
ATOM     15  C   UNL     1       0.331   3.408  -5.225  0.00  0.00    +0.015 A 
ATOM     16  C   UNL     1       1.105   2.791  -4.263  0.00  0.00    +0.029 A 
ATOM     17  C   UNL     1       0.631   2.659  -2.970  0.00  0.00    +0.106 A 
ATOM     18  C   UNL     1      -0.623   3.138  -2.633  0.00  0.00    +0.029 A 
ATOM     19  C   UNL     1      -1.404   3.762  -3.584  0.00  0.00    +0.015 A 
BRANCH  17  20
ATOM     20  S   UNL     1       1.625   1.869  -1.748  0.00  0.00    +0.061 S 
ATOM     21  O   UNL     1       2.411   0.900  -2.428  0.00  0.00    -0.153 OA
ATOM     22  O   UNL     1       0.756   1.528  -0.676  0.00  0.00    -0.153 OA
BRANCH  20  23
ATOM     23  N   UNL     1       2.676   3.006  -1.163  0.00  0.00    -0.174 NA
ATOM     24  C   UNL     1       4.052   3.086  -1.671  0.00  0.00    +0.110 C 
ATOM     25  C   UNL     1       5.021   3.025  -0.486  0.00  0.00    +0.017 C 
ATOM     26  C   UNL     1       4.659   4.119   0.520  0.00  0.00    +0.003 C 
ATOM     27  C   UNL     1       3.240   3.884   1.043  0.00  0.00    +0.020 C 
ATOM     28  C   UNL     1       2.251   3.955  -0.125  0.00  0.00    +0.077 C 
ATOM     29  C   UNL     1       0.850   3.585   0.366  0.00  0.00    +0.026 C 
ENDBRANCH  20  23
ENDBRANCH  17  20
ENDBRANCH  12  14
BRANCH  11  30
ATOM     30  C   UNL     1      -1.257   2.726  -7.436  0.00  0.00    +0.147 C 
BRANCH  30  31
ATOM     31  C   UNL     1      -2.188   1.604  -6.972  0.00  0.00    +0.136 C 
ATOM     32  C   UNL     1      -1.548   0.234  -7.273  0.00  0.00    +0.035 C 
ATOM     33  C   UNL     1      -1.453  -0.452  -5.888  0.00  0.00    +0.031 C 
ATOM     34  C   UNL     1      -2.509   0.330  -5.065  0.00  0.00    +0.160 C 
ATOM     35  O   UNL     1      -2.379   1.684  -5.550  0.00  0.00    -0.375 OA
ENDBRANCH  30  31
ENDBRANCH  11  30
TORSDOF 5
