REMARK  Name = ZINC22681454
REMARK  10 active torsions:
REMARK  status: ('A' for Active; 'I' for Inactive)
REMARK    1  A    between atoms: C_1  and  C_2
REMARK    2  A    between atoms: N_5  and  C_8
REMARK    3  A    between atoms: C_8  and  C_10
REMARK    4  A    between atoms: C_8  and  C_27
REMARK    5  A    between atoms: C_10  and  N_11
REMARK    6  A    between atoms: C_12  and  C_14
REMARK    7  A    between atoms: C_14  and  C_15
REMARK    8  A    between atoms: C_15  and  C_17
REMARK    9  A    between atoms: C_15  and  N_18
REMARK   10  A    between atoms: C_19  and  C_21
REMARK                            x       y       z     vdW  Elec       q    Type
REMARK                         _______ _______ _______ _____ _____    ______ ____
ROOT
ATOM      1  N   UNL     1       7.147   1.701   2.847  0.00  0.00    -0.316 N 
ATOM      2  C   UNL     1       6.020   1.321   2.214  0.00  0.00    +0.215 C 
ATOM      3  O   UNL     1       5.000   1.143   2.846  0.00  0.00    -0.276 OA
ATOM      4  H   UNL     1       8.072   1.862   2.274  0.00  0.00    +0.149 HD
ENDROOT
BRANCH   1   5
ATOM      5  C   UNL     1       7.141   1.899   4.299  0.00  0.00    +0.094 C 
BRANCH   5   6
ATOM      6  C   UNL     1       8.536   2.325   4.761  0.00  0.00    -0.013 C 
BRANCH   6  11
ATOM      7  C   UNL     1      10.069   7.415   2.662  0.00  0.00    +0.007 C 
ATOM      8  C   UNL     1       9.613   6.297   3.601  0.00  0.00    -0.018 C 
ATOM      9  C   UNL     1      10.691   5.212   3.665  0.00  0.00    -0.015 C 
ATOM     10  C   UNL     1      10.204   4.068   4.557  0.00  0.00    -0.078 C 
ATOM     11  N   UNL     1       8.959   3.514   4.009  0.00  0.00    +0.386 N 
ATOM     12  C   UNL     1       7.895   4.526   3.982  0.00  0.00    -0.078 C 
ATOM     13  C   UNL     1       8.313   5.684   3.073  0.00  0.00    -0.015 C 
ATOM     14  H   UNL     1       9.156   3.207   2.972  0.00  0.00    -0.081 HD
ENDBRANCH   6  11
BRANCH   6  15
ATOM     15  C   UNL     1       8.500   2.648   6.233  0.00  0.00    -0.022 A 
ATOM     16  C   UNL     1       9.017   1.949   7.273  0.00  0.00    +0.009 A 
ATOM     17  C   UNL     1       8.863   2.443   8.555  0.00  0.00    +0.008 A 
ATOM     18  C   UNL     1       8.199   3.611   8.734  0.00  0.00    +0.045 A 
ATOM     19  S   UNL     1       7.772   4.054   7.058  0.00  0.00    -0.103 S 
ENDBRANCH   6  15
ENDBRANCH   5   6
ENDBRANCH   1   5
BRANCH   2  20
ATOM     20  C   UNL     1       6.026   1.117   0.721  0.00  0.00    +0.117 C 
BRANCH  20  21
ATOM     21  C   UNL     1       4.631   0.690   0.258  0.00  0.00    +0.079 C 
ATOM     22  C   UNL     1       4.668   0.363  -1.236  0.00  0.00    +0.028 C 
BRANCH  21  23
ATOM     23  N   UNL     1       3.683   1.782   0.496  0.00  0.00    -0.308 N 
ATOM     24  C   UNL     1       2.372   1.513   0.655  0.00  0.00    +0.244 C 
ATOM     25  O   UNL     1       1.976   0.365   0.601  0.00  0.00    -0.270 OA
ATOM     26  H   UNL     1       4.042   2.821   0.545  0.00  0.00    +0.149 HD
BRANCH  24  27
ATOM     27  C   UNL     1       1.416   2.614   0.895  0.00  0.00    +0.037 A 
ATOM     28  C   UNL     1       0.057   2.339   1.060  0.00  0.00    +0.013 A 
ATOM     29  C   UNL     1      -0.830   3.372   1.284  0.00  0.00    +0.001 A 
ATOM     30  C   UNL     1      -0.376   4.677   1.346  0.00  0.00    +0.000 A 
ATOM     31  C   UNL     1       0.969   4.957   1.183  0.00  0.00    +0.001 A 
ATOM     32  C   UNL     1       1.867   3.934   0.958  0.00  0.00    +0.013 A 
ENDBRANCH  24  27
ENDBRANCH  21  23
ENDBRANCH  20  21
ENDBRANCH   2  20
TORSDOF 8
