REMARK  Name = ZINC63427019
REMARK  11 active torsions:
REMARK  status: ('A' for Active; 'I' for Inactive)
REMARK    1  A    between atoms: C_1  and  C_2
REMARK    2  A    between atoms: C_2  and  C_3
REMARK    3  A    between atoms: C_3  and  C_4
REMARK    4  A    between atoms: C_4  and  C_5
REMARK    5  A    between atoms: C_5  and  O_6
REMARK    6  A    between atoms: O_6  and  C_7
REMARK    7  A    between atoms: C_10  and  C_13
REMARK    8  A    between atoms: N_14  and  N_15
REMARK    9  A    between atoms: C_16  and  C_18
REMARK   10  A    between atoms: C_20  and  C_29
REMARK   11  A    between atoms: C_23  and  C_28
REMARK                            x       y       z     vdW  Elec       q    Type
REMARK                         _______ _______ _______ _____ _____    ______ ____
ROOT
ATOM      1  N   UNL     1       4.885  -8.429   7.840  0.00  0.00    -0.205 N 
ATOM      2  C   UNL     1       4.875  -9.774   7.927  0.00  0.00    +0.259 C 
ATOM      3  O   UNL     1       4.243 -10.429   7.126  0.00  0.00    -0.271 OA
ATOM      4  H   UNL     1       5.339  -7.902   8.516  0.00  0.00    +0.177 HD
ENDROOT
BRANCH   2   5
ATOM      5  C   UNL     1       5.649 -10.463   9.021  0.00  0.00    +0.199 C 
ATOM      6  C   UNL     1       4.782 -10.628  10.249  0.00  0.00    -0.000 C 
ATOM      7  C   UNL     1       4.697 -11.993  10.466  0.00  0.00    +0.004 A 
ATOM      8  C   UNL     1       4.034 -12.766  11.451  0.00  0.00    +0.013 A 
ATOM      9  C   UNL     1       4.126 -14.117  11.419  0.00  0.00    -0.050 A 
ATOM     10  C   UNL     1       4.865 -14.779  10.432  0.00  0.00    +0.005 A 
ATOM     11  C   UNL     1       5.525 -14.108   9.460  0.00  0.00    +0.026 A 
ATOM     12  C   UNL     1       5.476 -12.688   9.424  0.00  0.00    +0.044 A 
ATOM     13  N   UNL     1       6.021 -11.818   8.601  0.00  0.00    -0.370 N 
ATOM     14  C   UNL     1       3.416 -14.927  12.472  0.00  0.00    +0.044 C 
ATOM     15  H   UNL     1       6.577 -12.037   7.837  0.00  0.00    +0.161 HD
BRANCH   6  16
ATOM     16  C   UNL     1       4.161  -9.566  11.043  0.00  0.00    -0.019 A 
ATOM     17  C   UNL     1       3.018  -9.835  11.811  0.00  0.00    +0.008 A 
ATOM     18  C   UNL     1       2.441  -8.829  12.554  0.00  0.00    +0.001 A 
ATOM     19  C   UNL     1       2.985  -7.556  12.545  0.00  0.00    +0.000 A 
ATOM     20  C   UNL     1       4.113  -7.280  11.790  0.00  0.00    +0.001 A 
ATOM     21  C   UNL     1       4.708  -8.275  11.044  0.00  0.00    +0.008 A 
ENDBRANCH   6  16
ENDBRANCH   2   5
BRANCH   1  23
ATOM     22  C   UNL     1       4.247  -6.497   6.688  0.00  0.00    +0.138 C 
ATOM     23  N   UNL     1       4.238  -7.792   6.772  0.00  0.00    -0.188 NA
BRANCH  22  27
ATOM     24  C   UNL     1       2.290  -4.567   3.452  0.00  0.00    +0.121 A 
ATOM     25  C   UNL     1       2.939  -3.810   4.419  0.00  0.00    +0.046 A 
ATOM     26  C   UNL     1       3.576  -4.432   5.471  0.00  0.00    +0.013 A 
ATOM     27  C   UNL     1       3.567  -5.827   5.564  0.00  0.00    -0.005 A 
ATOM     28  C   UNL     1       2.913  -6.584   4.589  0.00  0.00    +0.013 A 
ATOM     29  C   UNL     1       2.275  -5.953   3.543  0.00  0.00    +0.046 A 
BRANCH  24  30
ATOM     30  O   UNL     1       1.664  -3.949   2.417  0.00  0.00    -0.492 OA
BRANCH  30  31
ATOM     31  C   UNL     1       1.718  -2.522   2.384  0.00  0.00    +0.229 C 
BRANCH  31  32
ATOM     32  C   UNL     1       0.963  -2.010   1.156  0.00  0.00    +0.041 C 
BRANCH  32  33
ATOM     33  C   UNL     1       1.022  -0.482   1.120  0.00  0.00    +0.003 C 
BRANCH  33  35
ATOM     34  C   UNL     1       0.325   1.558  -0.143  0.00  0.00    +0.004 C 
ATOM     35  C   UNL     1       0.267   0.029  -0.108  0.00  0.00    -0.003 C 
ENDBRANCH  33  35
ENDBRANCH  32  33
ENDBRANCH  31  32
ENDBRANCH  30  31
ENDBRANCH  24  30
ENDBRANCH  22  27
ENDBRANCH   1  23
TORSDOF 9
