REMARK  Name = ZINC03376706
REMARK  11 active torsions:
REMARK  status: ('A' for Active; 'I' for Inactive)
REMARK    1  A    between atoms: C_3  and  C_6
REMARK    2  A    between atoms: N_8  and  C_19
REMARK    3  A    between atoms: N_11  and  C_12
REMARK    4  A    between atoms: C_12  and  C_13
REMARK    5  A    between atoms: C_19  and  N_49
REMARK    6  A    between atoms: C_20  and  C_21
REMARK    7  A    between atoms: C_20  and  N_49
REMARK    8  A    between atoms: C_21  and  C_22
REMARK    9  A    between atoms: C_24  and  C_25
REMARK   10  A    between atoms: C_24  and  N_49
REMARK   11  A    between atoms: C_25  and  C_26
REMARK                            x       y       z     vdW  Elec       q    Type
REMARK                         _______ _______ _______ _____ _____    ______ ____
ROOT
ATOM      1  C   UNL     1       0.837   1.578  -3.183  0.00  0.00    +0.169 A 
ATOM      2  N   UNL     1       1.088   0.787  -4.192  0.00  0.00    -0.152 NA
ATOM      3  N   UNL     1       0.218  -0.308  -4.110  0.00  0.00    -0.257 N 
ATOM      4  C   UNL     1      -0.551  -0.137  -3.015  0.00  0.00    +0.177 A 
ATOM      5  S   UNL     1      -1.778  -1.198  -2.467  0.00  0.00    -0.011 S 
ATOM      6  N   UNL     1      -0.180   1.019  -2.431  0.00  0.00    -0.300 N 
ENDROOT
BRANCH   1   9
ATOM      7  C   UNL     1       3.150   4.561  -2.982  0.00  0.00    +0.008 A 
ATOM      8  C   UNL     1       2.701   3.330  -3.403  0.00  0.00    +0.019 A 
ATOM      9  C   UNL     1       1.523   2.849  -2.893  0.00  0.00    +0.056 A 
ATOM     10  S   UNL     1       1.040   4.160  -1.782  0.00  0.00    -0.094 S 
ATOM     11  C   UNL     1       2.420   5.255  -2.070  0.00  0.00    +0.046 A 
ENDBRANCH   1   9
BRANCH   6  12
ATOM     12  C   UNL     1      -0.759   1.589  -1.212  0.00  0.00    +0.157 C 
BRANCH  12  13
ATOM     13  C   UNL     1       0.011   1.075   0.006  0.00  0.00    +0.138 C 
ATOM     14  C   UNL     1      -0.664   1.573   1.303  0.00  0.00    +0.035 C 
ATOM     15  C   UNL     1       0.557   1.905   2.203  0.00  0.00    +0.031 C 
ATOM     16  C   UNL     1       1.574   2.409   1.147  0.00  0.00    +0.160 C 
ATOM     17  O   UNL     1       1.348   1.589  -0.011  0.00  0.00    -0.375 OA
ENDBRANCH  12  13
ENDBRANCH   6  12
BRANCH   3  18
ATOM     18  C   UNL     1       0.154  -1.435  -5.045  0.00  0.00    +0.072 C 
BRANCH  18  19
ATOM     19  N   UNL     1      -0.910  -1.168  -6.036  0.00  0.00    +0.394 N 
ATOM     20  H   UNL     1      -1.729  -0.784  -5.551  0.00  0.00    -0.079 HD
BRANCH  19  21
ATOM     21  C   UNL     1      -0.436  -0.184  -7.033  0.00  0.00    -0.061 C 
BRANCH  21  22
ATOM     22  C   UNL     1      -1.619   0.240  -7.907  0.00  0.00    +0.100 C 
BRANCH  22  23
ATOM     23  C   UNL     1      -1.167   1.236  -8.892  0.00  0.00    +0.061 C 
ATOM     24  N   UNL     1      -0.819   2.005  -9.652  0.00  0.00    -0.197 NA
ENDBRANCH  22  23
ENDBRANCH  21  22
ENDBRANCH  19  21
BRANCH  19  25
ATOM     25  C   UNL     1      -1.298  -2.425  -6.711  0.00  0.00    -0.061 C 
BRANCH  25  26
ATOM     26  C   UNL     1      -2.193  -3.231  -5.769  0.00  0.00    +0.100 C 
BRANCH  26  27
ATOM     27  C   UNL     1      -2.705  -4.418  -6.474  0.00  0.00    +0.061 C 
ATOM     28  N   UNL     1      -3.099  -5.333  -7.018  0.00  0.00    -0.197 NA
ENDBRANCH  26  27
ENDBRANCH  25  26
ENDBRANCH  19  25
ENDBRANCH  18  19
ENDBRANCH   3  18
TORSDOF 11
