REMARK  Name = ZINC58992223
REMARK  8 active torsions:
REMARK  status: ('A' for Active; 'I' for Inactive)
REMARK    1  A    between atoms: C_6  and  C_7
REMARK    2  A    between atoms: C_10  and  S_13
REMARK    3  A    between atoms: N_11  and  N_12
REMARK    4  A    between atoms: S_13  and  C_14
REMARK    5  A    between atoms: C_14  and  C_15
REMARK    6  A    between atoms: C_15  and  C_16
REMARK    7  A    between atoms: C_16  and  C_17
REMARK    8  A    between atoms: N_19  and  N_20
REMARK                            x       y       z     vdW  Elec       q    Type
REMARK                         _______ _______ _______ _____ _____    ______ ____
ROOT
ATOM      1  C   UNL     1      -1.406  -0.580  -0.602  0.00  0.00    +0.182 A 
ATOM      2  N   UNL     1      -2.545  -0.175  -0.089  0.00  0.00    -0.127 NA
ATOM      3  N   UNL     1      -3.418  -1.116  -0.162  0.00  0.00    -0.121 NA
ATOM      4  C   UNL     1      -2.889  -2.179  -0.726  0.00  0.00    +0.209 A 
ATOM      5  N   UNL     1      -1.594  -1.874  -1.031  0.00  0.00    -0.224 N 
ENDROOT
BRANCH   1  11
ATOM      6  C   UNL     1      -0.188   1.591  -0.522  0.00  0.00    +0.013 A 
ATOM      7  C   UNL     1       0.978   2.321  -0.620  0.00  0.00    +0.016 A 
ATOM      8  C   UNL     1       2.175   1.684  -0.899  0.00  0.00    +0.018 A 
ATOM      9  C   UNL     1       2.210   0.312  -1.082  0.00  0.00    +0.016 A 
ATOM     10  C   UNL     1       1.050  -0.428  -0.987  0.00  0.00    +0.013 A 
ATOM     11  C   UNL     1      -0.160   0.208  -0.706  0.00  0.00    +0.021 A 
ATOM     12 BR   UNL     1       3.770   2.692  -1.033  0.00  0.00    -0.050 Br
ENDBRANCH   1  11
BRANCH   5  13
ATOM     13  N   UNL     1      -0.674  -2.685  -1.633  0.00  0.00    -0.295 N 
ATOM     14  H   UNL     1      -0.160  -3.219  -0.949  0.00  0.00    +0.163 HD
ATOM     15  H   UNL     1      -1.115  -3.292  -2.308  0.00  0.00    +0.163 HD
ENDBRANCH   5  13
BRANCH   4  16
ATOM     16  S   UNL     1      -3.703  -3.711  -1.036  0.00  0.00    -0.084 S 
BRANCH  16  17
ATOM     17  C   UNL     1      -5.384  -3.451  -0.405  0.00  0.00    +0.078 C 
BRANCH  17  18
ATOM     18  C   UNL     1      -6.210  -4.721  -0.614  0.00  0.00    +0.020 C 
BRANCH  18  19
ATOM     19  C   UNL     1      -7.628  -4.502  -0.082  0.00  0.00    +0.098 C 
BRANCH  19  20
ATOM     20  C   UNL     1      -8.441  -5.753  -0.288  0.00  0.00    +0.232 C 
ATOM     21  O   UNL     1      -7.937  -6.725  -0.810  0.00  0.00    -0.274 OA
ATOM     22  N   UNL     1      -9.729  -5.793   0.106  0.00  0.00    -0.207 N 
ATOM     23  H   UNL     1     -10.132  -5.015   0.524  0.00  0.00    +0.177 HD
BRANCH  22  24
ATOM     24  N   UNL     1     -10.486  -6.956  -0.086  0.00  0.00    -0.189 NA
ATOM     25  C   UNL     1     -11.735  -6.961   0.194  0.00  0.00    +0.037 C 
ATOM     26  C   UNL     1     -12.447  -5.685   0.587  0.00  0.00    +0.052 C 
ATOM     27  C   UNL     1     -13.697  -5.536  -0.287  0.00  0.00    +0.006 C 
ATOM     28  C   UNL     1     -14.553  -6.798  -0.168  0.00  0.00    +0.001 C 
ATOM     29  C   UNL     1     -13.784  -8.000  -0.718  0.00  0.00    +0.006 C 
ATOM     30  C   UNL     1     -12.538  -8.241   0.134  0.00  0.00    +0.052 C 
ENDBRANCH  22  24
ENDBRANCH  19  20
ENDBRANCH  18  19
ENDBRANCH  17  18
ENDBRANCH  16  17
ENDBRANCH   4  16
TORSDOF 8
