REMARK  Name = ZINC08385635
REMARK  7 active torsions:
REMARK  status: ('A' for Active; 'I' for Inactive)
REMARK    1  A    between atoms: C_1  and  C_2
REMARK    2  A    between atoms: C_4  and  C_28
REMARK    3  A    between atoms: C_5  and  O_9
REMARK    4  A    between atoms: O_9  and  C_10
REMARK    5  A    between atoms: C_10  and  C_11
REMARK    6  A    between atoms: N_13  and  N_14
REMARK    7  A    between atoms: C_18  and  N_25
REMARK                            x       y       z     vdW  Elec       q    Type
REMARK                         _______ _______ _______ _____ _____    ______ ____
ROOT
ATOM      1  C   UNL     1       1.176  -6.257   0.093  0.00  0.00    +0.270 C 
ATOM      2  O   UNL     1       0.092  -6.732   0.354  0.00  0.00    -0.270 OA
ATOM      3  N   UNL     1       2.231  -7.066  -0.129  0.00  0.00    -0.203 N 
ATOM      4  H   UNL     1       3.098  -6.686  -0.338  0.00  0.00    +0.177 HD
ENDROOT
BRANCH   3   5
ATOM      5  N   UNL     1       2.074  -8.457  -0.058  0.00  0.00    -0.174 NA
ATOM      6  C   UNL     1       3.119  -9.241  -0.167  0.00  0.00    +0.153 C 
ATOM      7  C   UNL     1       4.546  -8.844  -0.183  0.00  0.00    +0.030 A 
ATOM      8  C   UNL     1       5.195  -7.618  -0.096  0.00  0.00    +0.044 A 
ATOM      9  C   UNL     1       6.574  -7.567  -0.142  0.00  0.00    +0.127 A 
ATOM     10  C   UNL     1       7.306  -8.735  -0.275  0.00  0.00    +0.034 A 
ATOM     11  C   UNL     1       6.672  -9.957  -0.362  0.00  0.00    +0.026 A 
ATOM     12  C   UNL     1       5.283 -10.028  -0.317  0.00  0.00    +0.043 A 
ATOM     13  N   UNL     1       4.411 -11.108  -0.383  0.00  0.00    -0.280 N 
ATOM     14  C   UNL     1       3.130 -10.712  -0.294  0.00  0.00    +0.269 C 
ATOM     15  O   UNL     1       2.153 -11.437  -0.318  0.00  0.00    -0.268 OA
ATOM     16  H   UNL     1       4.692 -12.032  -0.477  0.00  0.00    +0.155 HD
BRANCH   9  17
ATOM     17  N   UNL     1       7.269  -6.264  -0.049  0.00  0.00    +0.056 N 
ATOM     18  O   UNL     1       6.630  -5.244   0.066  0.00  0.00    -0.126 OA
ATOM     19  O   UNL     1       8.477  -6.219  -0.089  0.00  0.00    -0.126 OA
ENDBRANCH   9  17
ENDBRANCH   3   5
BRANCH   1  20
ATOM     20  C   UNL     1       1.345  -4.761   0.017  0.00  0.00    +0.326 C 
BRANCH  20  21
ATOM     21  O   UNL     1       0.094  -4.126   0.289  0.00  0.00    -0.481 OA
BRANCH  21  26
ATOM     22  C   UNL     1       0.002   1.505   0.169  0.00  0.00    +0.044 C 
ATOM     23  C   UNL     1       0.027  -0.002   0.202  0.00  0.00    -0.049 A 
ATOM     24  C   UNL     1      -0.229  -0.721  -0.951  0.00  0.00    +0.010 A 
ATOM     25  C   UNL     1      -0.207  -2.102  -0.924  0.00  0.00    -0.007 A 
ATOM     26  C   UNL     1       0.072  -2.768   0.260  0.00  0.00    +0.138 A 
ATOM     27  C   UNL     1       0.330  -2.044   1.416  0.00  0.00    +0.060 A 
ATOM     28  C   UNL     1       0.312  -0.662   1.383  0.00  0.00    +0.022 A 
ATOM     29 BR   UNL     1       0.712  -2.946   3.033  0.00  0.00    -0.047 Br
ATOM     30  C   UNL     1      -0.488  -2.885  -2.181  0.00  0.00    +0.047 C 
ENDBRANCH  21  26
ENDBRANCH  20  21
ENDBRANCH   1  20
TORSDOF 5
