REMARK  Name = ZINC36549749
REMARK  12 active torsions:
REMARK  status: ('A' for Active; 'I' for Inactive)
REMARK    1  A    between atoms: C_1  and  C_2
REMARK    2  A    between atoms: C_2  and  C_3
REMARK    3  A    between atoms: C_2  and  C_4
REMARK    4  A    between atoms: C_2  and  N_5
REMARK    5  A    between atoms: C_6  and  C_8
REMARK    6  A    between atoms: C_8  and  C_10
REMARK    7  A    between atoms: C_8  and  N_19
REMARK    8  A    between atoms: C_11  and  O_18
REMARK    9  A    between atoms: C_13  and  O_17
REMARK   10  A    between atoms: C_15  and  O_16
REMARK   11  A    between atoms: N_19  and  C_20
REMARK   12  A    between atoms: C_27  and  C_29
REMARK                            x       y       z     vdW  Elec       q    Type
REMARK                         _______ _______ _______ _____ _____    ______ ____
ROOT
ATOM      1  C   UNL     1       2.828  -0.805  -2.102  0.00  0.00    +0.204 C 
ENDROOT
BRANCH   1   2
ATOM      2  C   UNL     1       1.449  -0.412  -2.564  0.00  0.00    +0.065 A 
ATOM      3  C   UNL     1       1.067  -0.636  -3.879  0.00  0.00    +0.129 A 
ATOM      4  C   UNL     1      -0.202  -0.274  -4.304  0.00  0.00    +0.091 A 
ATOM      5  C   UNL     1      -1.090   0.312  -3.414  0.00  0.00    +0.124 A 
ATOM      6  C   UNL     1      -0.709   0.535  -2.100  0.00  0.00    +0.091 A 
ATOM      7  C   UNL     1       0.559   0.169  -1.673  0.00  0.00    +0.129 A 
BRANCH   7   8
ATOM      8  O   UNL     1       0.930   0.384  -0.384  0.00  0.00    -0.506 OA
ATOM      9  H   UNL     1       1.340   1.246  -0.231  0.00  0.00    +0.292 HD
ENDBRANCH   7   8
BRANCH   5  10
ATOM     10  O   UNL     1      -2.334   0.668  -3.831  0.00  0.00    -0.507 OA
ATOM     11  H   UNL     1      -2.997  -0.028  -3.728  0.00  0.00    +0.292 HD
ENDBRANCH   5  10
BRANCH   3  12
ATOM     12  O   UNL     1       1.938  -1.210  -4.750  0.00  0.00    -0.506 OA
ATOM     13  H   UNL     1       1.938  -2.177  -4.727  0.00  0.00    +0.292 HD
ENDBRANCH   3  12
ENDBRANCH   1   2
BRANCH   1  15
ATOM     14  N   UNL     1       2.496  -1.078   0.333  0.00  0.00    -0.309 N 
ATOM     15  C   UNL     1       3.026  -0.360  -0.676  0.00  0.00    +0.239 C 
ATOM     16  O   UNL     1       3.663   0.644  -0.437  0.00  0.00    -0.273 OA
ATOM     17  H   UNL     1       1.986  -1.881   0.142  0.00  0.00    +0.149 HD
BRANCH  14  19
ATOM     18  C   UNL     1       2.092   0.750   1.906  0.00  0.00    +0.031 C 
ATOM     19  C   UNL     1       2.688  -0.646   1.720  0.00  0.00    +0.026 C 
ATOM     20  C   UNL     1       4.184  -0.608   2.039  0.00  0.00    +0.031 C 
ATOM     21  C   UNL     1       1.990  -1.629   2.662  0.00  0.00    +0.031 C 
ENDBRANCH  14  19
ENDBRANCH   1  15
BRANCH   1  22
ATOM     22  N   UNL     1       3.831  -0.165  -2.958  0.00  0.00    -0.250 N 
ATOM     23  C   UNL     1       4.700  -0.919  -3.658  0.00  0.00    +0.252 C 
ATOM     24  O   UNL     1       4.598  -2.131  -3.650  0.00  0.00    -0.270 OA
BRANCH  22  25
ATOM     25  C   UNL     1       3.885   1.230  -3.047  0.00  0.00    +0.056 A 
ATOM     26  C   UNL     1       2.980   1.912  -3.850  0.00  0.00    +0.025 A 
ATOM     27  C   UNL     1       3.035   3.289  -3.937  0.00  0.00    +0.002 A 
ATOM     28  C   UNL     1       3.992   3.990  -3.225  0.00  0.00    +0.002 A 
ATOM     29  C   UNL     1       4.895   3.316  -2.425  0.00  0.00    +0.022 A 
ATOM     30  C   UNL     1       4.841   1.938  -2.329  0.00  0.00    +0.062 A 
ATOM     31 CL   UNL     1       5.971   1.092  -1.318  0.00  0.00    -0.082 Cl
ENDBRANCH  22  25
BRANCH  23  32
ATOM     32  C   UNL     1       5.779  -0.275  -4.435  0.00  0.00    +0.037 A 
ATOM     33  C   UNL     1       6.963  -0.966  -4.696  0.00  0.00    +0.016 A 
ATOM     34  C   UNL     1       7.966  -0.360  -5.422  0.00  0.00    +0.039 A 
ATOM     35  C   UNL     1       7.800   0.934  -5.892  0.00  0.00    +0.123 A 
ATOM     36  C   UNL     1       6.626   1.625  -5.635  0.00  0.00    +0.039 A 
ATOM     37  C   UNL     1       5.614   1.026  -4.915  0.00  0.00    +0.016 A 
ATOM     38  F   UNL     1       8.787   1.523  -6.603  0.00  0.00    -0.205 F 
ENDBRANCH  23  32
ENDBRANCH   1  22
TORSDOF 9
