REMARK  Name = ZINC10153989
REMARK  11 active torsions:
REMARK  status: ('A' for Active; 'I' for Inactive)
REMARK    1  A    between atoms: C_1  and  C_2
REMARK    2  A    between atoms: C_5  and  O_9
REMARK    3  A    between atoms: C_7  and  C_8
REMARK    4  A    between atoms: O_9  and  C_10
REMARK    5  A    between atoms: C_10  and  C_12
REMARK    6  A    between atoms: C_10  and  C_13
REMARK    7  A    between atoms: N_15  and  N_16
REMARK    8  A    between atoms: N_16  and  C_17
REMARK    9  A    between atoms: C_17  and  N_19
REMARK   10  A    between atoms: C_20  and  C_22
REMARK   11  A    between atoms: C_23  and  C_24
REMARK                            x       y       z     vdW  Elec       q    Type
REMARK                         _______ _______ _______ _____ _____    ______ ____
ROOT
ATOM      1  N   UNL     1       5.050   1.373  -0.333  0.00  0.00    -0.245 N 
ATOM      2  H   UNL     1       5.905   1.806  -0.185  0.00  0.00    +0.172 HD
ENDROOT
BRANCH   1   5
ATOM      3  C   UNL     1       6.085  -0.768  -0.224  0.00  0.00    +0.270 C 
ATOM      4  O   UNL     1       7.154  -0.226  -0.039  0.00  0.00    -0.270 OA
ATOM      5  N   UNL     1       4.972  -0.025  -0.383  0.00  0.00    -0.232 N 
ATOM      6  H   UNL     1       4.117  -0.459  -0.531  0.00  0.00    +0.173 HD
BRANCH   3   7
ATOM      7  C   UNL     1       6.002  -2.272  -0.277  0.00  0.00    +0.257 C 
ATOM      8  C   UNL     1       5.166  -2.778   0.900  0.00  0.00    +0.062 C 
BRANCH   7   9
ATOM      9  O   UNL     1       7.317  -2.825  -0.200  0.00  0.00    -0.480 OA
BRANCH   9  14
ATOM     10  C   UNL     1       8.072  -7.943  -2.427  0.00  0.00    +0.044 C 
ATOM     11  C   UNL     1       7.870  -6.574  -1.831  0.00  0.00    -0.047 A 
ATOM     12  C   UNL     1       6.601  -6.028  -1.769  0.00  0.00    +0.007 A 
ATOM     13  C   UNL     1       6.413  -4.773  -1.224  0.00  0.00    +0.046 A 
ATOM     14  C   UNL     1       7.499  -4.060  -0.737  0.00  0.00    +0.122 A 
ATOM     15  C   UNL     1       8.772  -4.607  -0.805  0.00  0.00    +0.049 A 
ATOM     16  C   UNL     1       8.954  -5.865  -1.347  0.00  0.00    -0.044 A 
ATOM     17  C   UNL     1      10.336  -6.462  -1.417  0.00  0.00    +0.044 C 
ENDBRANCH   9  14
ENDBRANCH   7   9
ENDBRANCH   3   7
ENDBRANCH   1   5
BRANCH   1  18
ATOM     18  C   UNL     1       3.936   2.116  -0.492  0.00  0.00    +0.153 C 
ATOM     19  S   UNL     1       4.031   3.824  -0.432  0.00  0.00    -0.017 S 
BRANCH  18  20
ATOM     20  N   UNL     1       2.748   1.514  -0.697  0.00  0.00    -0.263 N 
ATOM     21  C   UNL     1       1.635   2.256  -0.856  0.00  0.00    +0.242 C 
ATOM     22  O   UNL     1       1.702   3.470  -0.813  0.00  0.00    -0.270 OA
ATOM     23  H   UNL     1       2.694   0.546  -0.732  0.00  0.00    +0.157 HD
BRANCH  21  24
ATOM     24  C   UNL     1       0.345   1.603  -1.079  0.00  0.00    +0.068 C 
ATOM     25  C   UNL     1      -0.768   2.347  -1.243  0.00  0.00    +0.014 C 
BRANCH  25  26
ATOM     26  C   UNL     1      -2.064   1.690  -1.474  0.00  0.00    -0.007 A 
ATOM     27  C   UNL     1      -2.146   0.294  -1.523  0.00  0.00    +0.009 A 
ATOM     28  C   UNL     1      -3.364  -0.314  -1.740  0.00  0.00    +0.001 A 
ATOM     29  C   UNL     1      -4.505   0.452  -1.908  0.00  0.00    +0.001 A 
ATOM     30  C   UNL     1      -4.434   1.832  -1.861  0.00  0.00    +0.020 A 
ATOM     31  C   UNL     1      -3.223   2.457  -1.639  0.00  0.00    +0.048 A 
ATOM     32 CL   UNL     1      -3.137   4.190  -1.571  0.00  0.00    -0.083 Cl
ENDBRANCH  25  26
ENDBRANCH  21  24
ENDBRANCH  18  20
ENDBRANCH   1  18
TORSDOF 8
