REMARK  Name = ZINC64435307
REMARK  6 active torsions:
REMARK  status: ('A' for Active; 'I' for Inactive)
REMARK    1  A    between atoms: C_1  and  C_2
REMARK    2  A    between atoms: C_2  and  C_4
REMARK    3  A    between atoms: C_2  and  N_18
REMARK    4  A    between atoms: N_6  and  C_7
REMARK    5  A    between atoms: C_7  and  C_8
REMARK    6  A    between atoms: C_8  and  C_9
REMARK                            x       y       z     vdW  Elec       q    Type
REMARK                         _______ _______ _______ _____ _____    ______ ____
ROOT
ATOM      1  C   UNL     1       0.731  -0.503   1.223  0.00  0.00    +0.235 C 
ATOM      2  O   UNL     1       0.159  -1.213   2.023  0.00  0.00    -0.274 OA
ATOM      3  N   UNL     1       2.019  -0.161   1.426  0.00  0.00    -0.313 N 
ATOM      4  H   UNL     1       2.476   0.406   0.786  0.00  0.00    +0.149 HD
ENDROOT
BRANCH   1   6
ATOM      5  C   UNL     1      -0.019   1.526   0.010  0.00  0.00    +0.039 C 
ATOM      6  C   UNL     1       0.002  -0.004   0.002  0.00  0.00    +0.178 C 
BRANCH   6   7
ATOM      7  N   UNL     1      -1.372  -0.511   0.012  0.00  0.00    -0.205 N 
ATOM      8  C   UNL     1      -1.794  -1.292  -1.008  0.00  0.00    +0.264 C 
ATOM      9  O   UNL     1      -1.029  -1.657  -1.881  0.00  0.00    -0.269 OA
ATOM     10  C   UNL     1      -3.216  -1.686  -1.025  0.00  0.00    +0.060 A 
ATOM     11  C   UNL     1      -3.719  -2.670  -1.866  0.00  0.00    +0.015 A 
ATOM     12  C   UNL     1      -5.065  -2.976  -1.819  0.00  0.00    +0.001 A 
ATOM     13  C   UNL     1      -5.909  -2.309  -0.944  0.00  0.00    +0.002 A 
ATOM     14  C   UNL     1      -5.419  -1.329  -0.100  0.00  0.00    +0.025 A 
ATOM     15  C   UNL     1      -4.075  -1.012  -0.133  0.00  0.00    +0.055 A 
ATOM     16  N   UNL     1      -3.503  -0.046   0.686  0.00  0.00    -0.264 N 
ATOM     17  N   UNL     1      -2.190  -0.189   1.051  0.00  0.00    -0.157 NA
ATOM     18  H   UNL     1      -4.024   0.711   0.995  0.00  0.00    +0.168 HD
ATOM     19  H   UNL     1      -2.091  -0.848   1.808  0.00  0.00    +0.168 HD
ENDBRANCH   6   7
ENDBRANCH   1   6
BRANCH   3  20
ATOM     20  C   UNL     1       2.727  -0.647   2.613  0.00  0.00    +0.108 C 
BRANCH  20  21
ATOM     21  C   UNL     1       4.163  -0.117   2.602  0.00  0.00    +0.052 C 
BRANCH  21  22
ATOM     22  C   UNL     1       4.891  -0.616   3.823  0.00  0.00    -0.040 C 
ATOM     23  C   UNL     1       5.684  -1.709   3.906  0.00  0.00    -0.001 A 
ATOM     24  C   UNL     1       6.089  -2.721   2.924  0.00  0.00    +0.010 A 
ATOM     25  C   UNL     1       6.911  -3.722   3.313  0.00  0.00    +0.001 A 
ATOM     26  C   UNL     1       7.385  -3.816   4.629  0.00  0.00    +0.002 A 
ATOM     27  C   UNL     1       7.058  -2.924   5.588  0.00  0.00    +0.026 A 
ATOM     28  C   UNL     1       6.199  -1.831   5.289  0.00  0.00    +0.043 A 
ATOM     29  N   UNL     1       5.742  -0.851   6.031  0.00  0.00    -0.380 N 
ATOM     30  C   UNL     1       4.890   0.007   5.201  0.00  0.00    +0.144 C 
ATOM     31  H   UNL     1       5.938  -0.715   6.971  0.00  0.00    +0.160 HD
ENDBRANCH  21  22
ENDBRANCH  20  21
ENDBRANCH   3  20
TORSDOF 5
