REMARK  Name = ZINC11997990
REMARK  7 active torsions:
REMARK  status: ('A' for Active; 'I' for Inactive)
REMARK    1  A    between atoms: C_4  and  C_7
REMARK    2  A    between atoms: C_7  and  N_10
REMARK    3  A    between atoms: C_11  and  C_13
REMARK    4  A    between atoms: C_13  and  C_14
REMARK    5  A    between atoms: C_14  and  C_15
REMARK    6  A    between atoms: C_18  and  C_20
REMARK    7  A    between atoms: C_20  and  C_21
REMARK                            x       y       z     vdW  Elec       q    Type
REMARK                         _______ _______ _______ _____ _____    ______ ____
ROOT
ATOM      1  C   UNL     1       1.432  -2.825  -3.982  0.00  0.00    +0.218 A 
ATOM      2  N   UNL     1       2.650  -2.369  -4.049  0.00  0.00    -0.112 NA
ATOM      3  N   UNL     1       2.899  -1.660  -3.005  0.00  0.00    -0.112 NA
ATOM      4  C   UNL     1       1.851  -1.647  -2.232  0.00  0.00    +0.222 A 
ATOM      5  O   UNL     1       0.898  -2.380  -2.833  0.00  0.00    -0.424 OA
ENDROOT
BRANCH   1   6
ATOM      6  C   UNL     1       0.747  -3.693  -5.006  0.00  0.00    +0.107 C 
BRANCH   6   7
ATOM      7  C   UNL     1       0.993  -5.166  -4.674  0.00  0.00    +0.105 C 
BRANCH   7   9
ATOM      8  N   UNL     1       0.389  -7.376  -5.607  0.00  0.00    -0.306 N 
ATOM      9  C   UNL     1       0.308  -6.034  -5.698  0.00  0.00    +0.214 C 
ATOM     10  O   UNL     1      -0.316  -5.524  -6.605  0.00  0.00    -0.276 OA
ATOM     11  H   UNL     1       0.946  -7.783  -4.925  0.00  0.00    +0.150 HD
BRANCH   8  12
ATOM     12  C   UNL     1      -0.365  -8.220  -6.537  0.00  0.00    +0.060 C 
ATOM     13  C   UNL     1       0.400  -9.327  -7.265  0.00  0.00    +0.033 C 
ATOM     14  C   UNL     1      -0.053  -8.081  -8.028  0.00  0.00    +0.033 C 
BRANCH  12  18
ATOM     15  C   UNL     1      -4.414  -9.017  -5.433  0.00  0.00    +0.000 A 
ATOM     16  C   UNL     1      -3.909  -9.519  -6.618  0.00  0.00    +0.000 A 
ATOM     17  C   UNL     1      -2.599  -9.261  -6.975  0.00  0.00    +0.006 A 
ATOM     18  C   UNL     1      -1.794  -8.501  -6.148  0.00  0.00    -0.024 A 
ATOM     19  C   UNL     1      -2.297  -8.004  -4.960  0.00  0.00    +0.006 A 
ATOM     20  C   UNL     1      -3.609  -8.257  -4.606  0.00  0.00    +0.000 A 
ENDBRANCH  12  18
ENDBRANCH   8  12
ENDBRANCH   7   9
ENDBRANCH   6   7
ENDBRANCH   1   6
BRANCH   4  21
ATOM     21  C   UNL     1       1.727  -0.936  -0.909  0.00  0.00    +0.135 C 
BRANCH  21  22
ATOM     22  C   UNL     1       1.214   0.463  -1.137  0.00  0.00    -0.013 A 
ATOM     23  C   UNL     1       1.956   1.575  -1.260  0.00  0.00    +0.087 A 
ATOM     24  N   UNL     1       1.144   2.658  -1.456  0.00  0.00    -0.360 N 
ATOM     25  H   UNL     1       1.451   3.571  -1.573  0.00  0.00    +0.165 HD
ATOM     26  C   UNL     1      -0.174   2.259  -1.464  0.00  0.00    +0.047 A 
ATOM     27  C   UNL     1      -0.188   0.867  -1.264  0.00  0.00    +0.003 A 
ATOM     28  C   UNL     1      -1.403   0.181  -1.226  0.00  0.00    +0.010 A 
ATOM     29  C   UNL     1      -2.574   0.866  -1.383  0.00  0.00    +0.001 A 
ATOM     30  C   UNL     1      -2.566   2.240  -1.580  0.00  0.00    +0.002 A 
ATOM     31  C   UNL     1      -1.379   2.938  -1.617  0.00  0.00    +0.026 A 
ENDBRANCH  21  22
ENDBRANCH   4  21
TORSDOF 7
