REMARK  Name = ZINC35380598
REMARK  7 active torsions:
REMARK  status: ('A' for Active; 'I' for Inactive)
REMARK    1  A    between atoms: C_1  and  C_2
REMARK    2  A    between atoms: C_5  and  N_8
REMARK    3  A    between atoms: C_9  and  C_11
REMARK    4  A    between atoms: C_11  and  O_12
REMARK    5  A    between atoms: O_12  and  C_13
REMARK    6  A    between atoms: C_13  and  C_15
REMARK    7  A    between atoms: C_17  and  N_23
REMARK                            x       y       z     vdW  Elec       q    Type
REMARK                         _______ _______ _______ _____ _____    ______ ____
ROOT
ATOM      1  C   UNL     1      -2.216  -2.883   7.122  0.00  0.00    +0.360 C 
ATOM      2  O   UNL     1      -2.924  -1.902   7.234  0.00  0.00    -0.243 OA
ENDROOT
BRANCH   1   3
ATOM      3  C   UNL     1      -1.968  -3.753   8.291  0.00  0.00    +0.169 A 
ATOM      4  C   UNL     1      -2.553  -3.446   9.517  0.00  0.00    +0.095 A 
ATOM      5  C   UNL     1      -2.308  -4.277  10.610  0.00  0.00    +0.067 A 
ATOM      6  C   UNL     1      -1.484  -5.386  10.427  0.00  0.00    +0.100 A 
ATOM      7  C   UNL     1      -0.938  -5.625   9.176  0.00  0.00    +0.150 A 
ATOM      8  N   UNL     1      -1.191  -4.825   8.162  0.00  0.00    -0.226 NA
ATOM      9 CL   UNL     1       0.090  -7.004   8.941  0.00  0.00    -0.060 Cl
ATOM     10 CL   UNL     1      -1.144  -6.455  11.752  0.00  0.00    -0.078 Cl
ATOM     11 CL   UNL     1      -3.571  -2.049   9.681  0.00  0.00    -0.079 Cl
BRANCH   5  12
ATOM     12  N   UNL     1      -2.874  -4.005  11.854  0.00  0.00    -0.356 N 
ATOM     13  H   UNL     1      -3.446  -3.230  11.968  0.00  0.00    +0.142 HD
ATOM     14  H   UNL     1      -2.696  -4.592  12.607  0.00  0.00    +0.142 HD
ENDBRANCH   5  12
ENDBRANCH   1   3
BRANCH   1  15
ATOM     15  O   UNL     1      -1.657  -3.177   5.932  0.00  0.00    -0.451 OA
BRANCH  15  16
ATOM     16  C   UNL     1      -1.941  -2.293   4.845  0.00  0.00    +0.328 C 
BRANCH  16  18
ATOM     17  N   UNL     1      -1.358  -2.098   2.449  0.00  0.00    -0.310 N 
ATOM     18  C   UNL     1      -1.235  -2.779   3.606  0.00  0.00    +0.251 C 
ATOM     19  O   UNL     1      -0.557  -3.784   3.648  0.00  0.00    -0.272 OA
ATOM     20  H   UNL     1      -1.901  -1.294   2.415  0.00  0.00    +0.149 HD
BRANCH  17  25
ATOM     21  C   UNL     1      -0.019   1.526   0.010  0.00  0.00    +0.007 C 
ATOM     22  C   UNL     1       0.002  -0.004   0.002  0.00  0.00    -0.014 C 
ATOM     23  C   UNL     1      -1.433  -0.534   0.013  0.00  0.00    +0.005 C 
ATOM     24  C   UNL     1      -1.413  -2.063   0.004  0.00  0.00    +0.022 C 
ATOM     25  C   UNL     1      -0.673  -2.570   1.244  0.00  0.00    +0.073 C 
ATOM     26  C   UNL     1       0.763  -2.041   1.233  0.00  0.00    +0.022 C 
ATOM     27  C   UNL     1       0.742  -0.511   1.242  0.00  0.00    +0.005 C 
ENDBRANCH  17  25
ENDBRANCH  16  18
ENDBRANCH  15  16
ENDBRANCH   1  15
TORSDOF 6
