REMARK  Name = ZINC12368008
REMARK  7 active torsions:
REMARK  status: ('A' for Active; 'I' for Inactive)
REMARK    1  A    between atoms: C_3  and  C_6
REMARK    2  A    between atoms: C_6  and  N_7
REMARK    3  A    between atoms: N_7  and  C_8
REMARK    4  A    between atoms: C_8  and  N_10
REMARK    5  A    between atoms: N_10  and  N_11
REMARK    6  A    between atoms: C_12  and  C_13
REMARK    7  A    between atoms: C_16  and  O_20
REMARK                            x       y       z     vdW  Elec       q    Type
REMARK                         _______ _______ _______ _____ _____    ______ ____
ROOT
ATOM      1  N   UNL     1       0.073   1.375  -0.670  0.00  0.00    -0.218 N 
ATOM      2  H   UNL     1      -0.669   1.870  -1.051  0.00  0.00    +0.176 HD
ENDROOT
BRANCH   1   3
ATOM      3  C   UNL     1       0.036   0.028  -0.634  0.00  0.00    +0.150 C 
ATOM      4  S   UNL     1      -1.323  -0.808  -1.255  0.00  0.00    -0.017 S 
BRANCH   3   5
ATOM      5  N   UNL     1       1.070  -0.660  -0.110  0.00  0.00    -0.318 N 
ATOM      6  H   UNL     1       1.839  -0.186   0.241  0.00  0.00    +0.148 HD
BRANCH   5   7
ATOM      7  C   UNL     1       1.030  -2.124  -0.071  0.00  0.00    +0.177 C 
BRANCH   7  10
ATOM      8  C   UNL     1       3.808  -3.355   2.016  0.00  0.00    +0.041 A 
ATOM      9  C   UNL     1       2.485  -2.877   1.870  0.00  0.00    +0.046 A 
ATOM     10  C   UNL     1       2.296  -2.644   0.559  0.00  0.00    +0.122 A 
ATOM     11  O   UNL     1       3.426  -2.960  -0.095  0.00  0.00    -0.466 OA
ATOM     12  C   UNL     1       4.348  -3.386   0.784  0.00  0.00    +0.195 A 
ENDBRANCH   7  10
ENDBRANCH   5   7
ENDBRANCH   3   5
ENDBRANCH   1   3
BRANCH   1  13
ATOM     13  N   UNL     1       1.185   2.059  -0.163  0.00  0.00    -0.188 NA
ATOM     14  C   UNL     1       1.171   3.355  -0.089  0.00  0.00    +0.138 C 
BRANCH  14  15
ATOM     15  C   UNL     1      -0.113   4.079  -0.073  0.00  0.00    -0.003 A 
ATOM     16  C   UNL     1      -0.140   5.462  -0.270  0.00  0.00    +0.028 A 
ATOM     17  C   UNL     1      -1.344   6.135  -0.258  0.00  0.00    +0.061 A 
ATOM     18  C   UNL     1      -2.528   5.441  -0.042  0.00  0.00    +0.145 A 
ATOM     19  C   UNL     1      -2.505   4.066   0.159  0.00  0.00    +0.061 A 
ATOM     20  C   UNL     1      -1.306   3.385   0.144  0.00  0.00    +0.028 A 
ATOM     21 BR   UNL     1      -4.120   3.128   0.453  0.00  0.00    -0.046 Br
ATOM     22 BR   UNL     1      -1.383   8.005  -0.531  0.00  0.00    -0.046 Br
BRANCH  18  23
ATOM     23  O   UNL     1      -3.712   6.108  -0.026  0.00  0.00    -0.505 OA
ATOM     24  H   UNL     1      -3.970   6.429   0.849  0.00  0.00    +0.292 HD
ENDBRANCH  18  23
ENDBRANCH  14  15
ENDBRANCH   1  13
TORSDOF 7
