REMARK  Name = ZINC24755192
REMARK  5 active torsions:
REMARK  status: ('A' for Active; 'I' for Inactive)
REMARK    1  A    between atoms: C_4  and  C_8
REMARK    2  A    between atoms: C_8  and  N_9
REMARK    3  A    between atoms: N_17  and  C_18
REMARK    4  A    between atoms: C_18  and  C_19
REMARK    5  A    between atoms: C_22  and  C_24
REMARK                            x       y       z     vdW  Elec       q    Type
REMARK                         _______ _______ _______ _____ _____    ______ ____
ROOT
ATOM      1  N   UNL     1       0.608   9.874  -5.083  0.00  0.00    -0.295 NA
ATOM      2  C   UNL     1       0.596  10.748  -3.902  0.00  0.00    +0.104 C 
ATOM      3  C   UNL     1       1.912  10.583  -3.136  0.00  0.00    +0.124 C 
ATOM      4  N   UNL     1       2.110   9.154  -2.850  0.00  0.00    -0.283 N 
ATOM      5  C   UNL     1       2.006   8.201  -3.965  0.00  0.00    +0.124 C 
ATOM      6  C   UNL     1       0.680   8.459  -4.698  0.00  0.00    +0.104 C 
ATOM      7  C   UNL     1       2.385   8.730  -1.600  0.00  0.00    +0.303 C 
ATOM      8  O   UNL     1       2.635   7.558  -1.397  0.00  0.00    -0.253 OA
ATOM      9  N   UNL     1       2.382   9.606  -0.576  0.00  0.00    -0.294 N 
ATOM     10  H   UNL     1       2.238  10.679  -0.770  0.00  0.00    +0.151 HD
ENDROOT
BRANCH   1  11
ATOM     11  C   UNL     1      -0.560  10.128  -5.938  0.00  0.00    +0.124 C 
BRANCH  11  15
ATOM     12  C   UNL     1      -0.810   7.100  -8.944  0.00  0.00    +0.004 A 
ATOM     13  C   UNL     1      -1.447   6.922  -7.731  0.00  0.00    +0.039 A 
ATOM     14  C   UNL     1      -1.367   7.902  -6.756  0.00  0.00    +0.129 A 
ATOM     15  C   UNL     1      -0.648   9.061  -6.998  0.00  0.00    +0.020 A 
ATOM     16  C   UNL     1      -0.016   9.240  -8.215  0.00  0.00    +0.048 A 
ATOM     17  C   UNL     1      -0.092   8.257  -9.186  0.00  0.00    +0.020 A 
ATOM     18 CL   UNL     1       0.880  10.695  -8.521  0.00  0.00    -0.083 Cl
ATOM     19  F   UNL     1      -1.990   7.728  -5.570  0.00  0.00    -0.205 F 
ENDBRANCH  11  15
ENDBRANCH   1  11
BRANCH   9  20
ATOM     20  C   UNL     1       2.571   9.128   0.796  0.00  0.00    +0.164 C 
BRANCH  20  21
ATOM     21  C   UNL     1       2.527  10.298   1.746  0.00  0.00    +0.097 A 
ATOM     22  C   UNL     1       1.446  10.729   2.421  0.00  0.00    +0.222 A 
ATOM     23  O   UNL     1       1.830  11.793   3.156  0.00  0.00    -0.443 OA
ATOM     24  C   UNL     1       3.138  12.001   2.921  0.00  0.00    +0.234 A 
ATOM     25  N   UNL     1       3.557  11.097   2.063  0.00  0.00    -0.212 NA
BRANCH  24  26
ATOM     26  C   UNL     1       3.960  13.064   3.519  0.00  0.00    +0.074 A 
ATOM     27  C   UNL     1       3.593  14.048   4.418  0.00  0.00    +0.021 A 
ATOM     28  C   UNL     1       4.551  14.941   4.838  0.00  0.00    +0.008 A 
ATOM     29  C   UNL     1       5.818  14.830   4.361  0.00  0.00    +0.046 A 
ATOM     30  S   UNL     1       5.692  13.421   3.273  0.00  0.00    -0.092 S 
ENDBRANCH  24  26
ENDBRANCH  20  21
ENDBRANCH   9  20
TORSDOF 5
