REMARK  Name = ZINC11829317
REMARK  7 active torsions:
REMARK  status: ('A' for Active; 'I' for Inactive)
REMARK    1  A    between atoms: C_1  and  O_2
REMARK    2  A    between atoms: O_2  and  C_3
REMARK    3  A    between atoms: C_7  and  C_20
REMARK    4  A    between atoms: C_8  and  O_9
REMARK    5  A    between atoms: O_9  and  C_10
REMARK    6  A    between atoms: C_10  and  C_11
REMARK    7  A    between atoms: N_21  and  O_22
REMARK                            x       y       z     vdW  Elec       q    Type
REMARK                         _______ _______ _______ _____ _____    ______ ____
ROOT
ATOM      1  C   UNL     1      -3.719   2.047   0.357  0.00  0.00    +0.162 A 
ATOM      2  C   UNL     1      -3.698   3.432   0.371  0.00  0.00    +0.049 A 
ATOM      3  C   UNL     1      -2.496   4.114   0.294  0.00  0.00    +0.004 A 
ATOM      4  C   UNL     1      -1.307   3.421   0.209  0.00  0.00    +0.013 A 
ATOM      5  C   UNL     1      -1.312   2.025   0.188  0.00  0.00    +0.042 A 
ATOM      6  C   UNL     1      -2.528   1.335   0.266  0.00  0.00    +0.171 A 
ENDROOT
BRANCH   1   8
ATOM      7  C   UNL     1      -6.087   2.178   0.524  0.00  0.00    +0.277 C 
ATOM      8  O   UNL     1      -4.903   1.383   0.432  0.00  0.00    -0.491 OA
ENDBRANCH   1   8
BRANCH   5   9
ATOM      9  C   UNL     1      -0.043   1.280   0.091  0.00  0.00    +0.164 C 
ATOM     10  N   UNL     1       1.059   1.824   0.498  0.00  0.00    -0.095 NA
BRANCH  10  11
ATOM     11  O   UNL     1       1.088   3.199   0.832  0.00  0.00    -0.409 OA
ATOM     12  H   UNL     1       2.025   3.662   1.178  0.00  0.00    +0.328 HD
ENDBRANCH  10  11
ENDBRANCH   5   9
BRANCH   6  13
ATOM     13  O   UNL     1      -2.544  -0.024   0.252  0.00  0.00    -0.483 OA
BRANCH  13  14
ATOM     14  C   UNL     1      -2.768  -0.657  -1.010  0.00  0.00    +0.267 C 
BRANCH  14  15
ATOM     15  C   UNL     1      -2.902  -2.144  -0.808  0.00  0.00    +0.028 A 
ATOM     16  C   UNL     1      -1.775  -2.947  -0.811  0.00  0.00    +0.049 A 
ATOM     17  C   UNL     1      -1.897  -4.312  -0.621  0.00  0.00    +0.022 A 
ATOM     18  C   UNL     1      -3.146  -4.876  -0.439  0.00  0.00    +0.023 A 
ATOM     19  C   UNL     1      -4.273  -4.075  -0.442  0.00  0.00    +0.060 A 
ATOM     20  C   UNL     1      -4.151  -2.708  -0.627  0.00  0.00    +0.067 A 
ATOM     21 CL   UNL     1      -5.566  -1.702  -0.631  0.00  0.00    -0.082 Cl
ATOM     22 CL   UNL     1      -5.842  -4.783  -0.213  0.00  0.00    -0.082 Cl
ATOM     23 CL   UNL     1      -0.207  -2.240  -1.047  0.00  0.00    -0.083 Cl
ENDBRANCH  14  15
ENDBRANCH  13  14
ENDBRANCH   6  13
TORSDOF 6
