REMARK  Name = ZINC25097919
REMARK  7 active torsions:
REMARK  status: ('A' for Active; 'I' for Inactive)
REMARK    1  A    between atoms: C_1  and  C_2
REMARK    2  A    between atoms: C_5  and  N_9
REMARK    3  A    between atoms: C_6  and  C_8
REMARK    4  A    between atoms: C_13  and  S_14
REMARK    5  A    between atoms: S_14  and  C_15
REMARK    6  A    between atoms: C_15  and  C_16
REMARK    7  A    between atoms: N_18  and  C_19
REMARK                            x       y       z     vdW  Elec       q    Type
REMARK                         _______ _______ _______ _____ _____    ______ ____
ROOT
ATOM      1  S   UNL     1       3.276   7.771  -0.325  0.00  0.00    -0.076 S 
ENDROOT
BRANCH   1   6
ATOM      2  N   UNL     1       5.273   9.720  -0.569  0.00  0.00    -0.277 N 
ATOM      3  C   UNL     1       6.641   9.726  -0.641  0.00  0.00    +0.230 A 
ATOM      4  N   UNL     1       7.038   8.487  -0.573  0.00  0.00    -0.137 NA
ATOM      5  N   UNL     1       6.026   7.703  -0.459  0.00  0.00    -0.122 NA
ATOM      6  C   UNL     1       4.915   8.404  -0.456  0.00  0.00    +0.196 A 
BRANCH   2  11
ATOM      7  C   UNL     1       1.809  14.214  -0.705  0.00  0.00    +0.044 C 
ATOM      8  C   UNL     1       2.729  13.021  -0.669  0.00  0.00    -0.050 A 
ATOM      9  C   UNL     1       3.493  12.705  -1.777  0.00  0.00    +0.005 A 
ATOM     10  C   UNL     1       4.337  11.613  -1.747  0.00  0.00    +0.027 A 
ATOM     11  C   UNL     1       4.417  10.831  -0.602  0.00  0.00    +0.053 A 
ATOM     12  C   UNL     1       3.645  11.147   0.507  0.00  0.00    -0.026 A 
ATOM     13  C   UNL     1       2.807  12.245   0.472  0.00  0.00    +0.008 A 
ATOM     14  C   UNL     1       3.725  10.298   1.749  0.00  0.00    +0.046 C 
ENDBRANCH   2  11
ENDBRANCH   1   6
BRANCH   1  15
ATOM     15  C   UNL     1       3.632   6.000  -0.217  0.00  0.00    +0.173 C 
BRANCH  15  16
ATOM     16  C   UNL     1       2.339   5.234  -0.095  0.00  0.00    +0.228 C 
ATOM     17  O   UNL     1       1.282   5.829  -0.082  0.00  0.00    -0.275 OA
ATOM     18  N   UNL     1       2.358   3.890  -0.001  0.00  0.00    -0.284 N 
ATOM     19  H   UNL     1       3.317   3.358   0.079  0.00  0.00    +0.155 HD
BRANCH  18  20
ATOM     20  C   UNL     1       1.156   3.171  -0.004  0.00  0.00    +0.053 A 
ATOM     21  C   UNL     1       0.024   3.712  -0.598  0.00  0.00    +0.046 A 
ATOM     22  C   UNL     1      -1.161   3.000  -0.600  0.00  0.00    +0.061 A 
ATOM     23  C   UNL     1      -1.217   1.746  -0.014  0.00  0.00    +0.061 A 
ATOM     24  C   UNL     1      -0.092   1.207   0.583  0.00  0.00    +0.043 A 
ATOM     25  C   UNL     1       1.095   1.915   0.588  0.00  0.00    +0.064 A 
ATOM     26 CL   UNL     1       2.509   1.236   1.331  0.00  0.00    -0.082 Cl
ATOM     27 CL   UNL     1      -2.705   0.851  -0.025  0.00  0.00    -0.082 Cl
ATOM     28 CL   UNL     1      -2.577   3.675  -1.343  0.00  0.00    -0.082 Cl
ENDBRANCH  18  20
ENDBRANCH  15  16
ENDBRANCH   1  15
TORSDOF 5
