REMARK  Name = ZINC59818937
REMARK  8 active torsions:
REMARK  status: ('A' for Active; 'I' for Inactive)
REMARK    1  A    between atoms: C_1  and  N_2
REMARK    2  A    between atoms: C_3  and  C_5
REMARK    3  A    between atoms: C_5  and  C_6
REMARK    4  A    between atoms: C_6  and  S_7
REMARK    5  A    between atoms: S_7  and  C_8
REMARK    6  A    between atoms: N_13  and  N_14
REMARK    7  A    between atoms: C_15  and  C_16
REMARK    8  A    between atoms: C_21  and  O_22
REMARK                            x       y       z     vdW  Elec       q    Type
REMARK                         _______ _______ _______ _____ _____    ______ ____
ROOT
ATOM      1  C   UNL     1      -4.250  -4.994   0.016  0.00  0.00    +0.210 A 
ATOM      2  N   UNL     1      -4.723  -6.244   0.019  0.00  0.00    -0.186 NA
ATOM      3  C   UNL     1      -6.040  -6.219   0.030  0.00  0.00    +0.232 A 
ATOM      4  N   UNL     1      -6.432  -4.927   0.034  0.00  0.00    -0.245 N 
ATOM      5  N   UNL     1      -5.259  -4.155   0.030  0.00  0.00    -0.144 NA
ATOM      6  N   UNL     1      -6.874  -7.322   0.036  0.00  0.00    -0.205 N 
ATOM      7  H   UNL     1      -7.836  -7.202   0.043  0.00  0.00    +0.177 HD
ATOM      8  H   UNL     1      -7.344  -4.598   0.042  0.00  0.00    +0.192 HD
ENDROOT
BRANCH   6   9
ATOM      9  N   UNL     1      -6.328  -8.613   0.030  0.00  0.00    -0.187 NA
ATOM     10  C   UNL     1      -7.111  -9.648   0.036  0.00  0.00    +0.142 C 
BRANCH  10  11
ATOM     11  C   UNL     1      -6.538 -11.006   0.030  0.00  0.00    +0.037 A 
ATOM     12  C   UNL     1      -7.377 -12.122   0.030  0.00  0.00    +0.033 A 
ATOM     13  C   UNL     1      -6.833 -13.391   0.025  0.00  0.00    +0.042 A 
ATOM     14  C   UNL     1      -5.458 -13.561   0.019  0.00  0.00    +0.023 A 
ATOM     15  C   UNL     1      -4.618 -12.463   0.019  0.00  0.00    +0.047 A 
ATOM     16  C   UNL     1      -5.148 -11.183   0.019  0.00  0.00    +0.126 A 
ATOM     17 CL   UNL     1      -7.876 -14.779   0.025  0.00  0.00    -0.084 Cl
BRANCH  16  18
ATOM     18  O   UNL     1      -4.323 -10.104   0.014  0.00  0.00    -0.506 OA
ATOM     19  H   UNL     1      -4.077  -9.792   0.896  0.00  0.00    +0.292 HD
ENDBRANCH  16  18
ENDBRANCH  10  11
ENDBRANCH   6   9
BRANCH   1  20
ATOM     20  S   UNL     1      -2.546  -4.544   0.002  0.00  0.00    -0.084 S 
BRANCH  20  21
ATOM     21  C   UNL     1      -2.571  -2.730   0.012  0.00  0.00    +0.086 C 
BRANCH  21  22
ATOM     22  C   UNL     1      -1.135  -2.201   0.001  0.00  0.00    +0.107 C 
BRANCH  22  25
ATOM     23  C   UNL     1      -0.018   1.461   0.010  0.00  0.00    +0.128 C 
ATOM     24  N   UNL     1       0.002  -0.004   0.002  0.00  0.00    -0.318 N 
ATOM     25  C   UNL     1      -1.156  -0.694   0.009  0.00  0.00    +0.214 C 
ATOM     26  O   UNL     1      -2.214  -0.102   0.023  0.00  0.00    -0.276 OA
ATOM     27  H   UNL     1       0.849  -0.478  -0.009  0.00  0.00    +0.148 HD
ENDBRANCH  22  25
ENDBRANCH  21  22
ENDBRANCH  20  21
ENDBRANCH   1  20
TORSDOF 7
