REMARK  Name = ZINC12250256
REMARK  12 active torsions:
REMARK  status: ('A' for Active; 'I' for Inactive)
REMARK    1  A    between atoms: C_1  and  C_2
REMARK    2  A    between atoms: C_3  and  C_34
REMARK    3  A    between atoms: C_4  and  C_27
REMARK    4  A    between atoms: C_6  and  C_25
REMARK    5  A    between atoms: C_7  and  S_9
REMARK    6  A    between atoms: S_9  and  C_10
REMARK    7  A    between atoms: C_10  and  C_11
REMARK    8  A    between atoms: N_13  and  C_14
REMARK    9  A    between atoms: C_17  and  O_23
REMARK   10  A    between atoms: C_19  and  N_20
REMARK   11  A    between atoms: O_23  and  C_24
REMARK   12  A    between atoms: C_34  and  C_36
REMARK                            x       y       z     vdW  Elec       q    Type
REMARK                         _______ _______ _______ _____ _____    ______ ____
ROOT
ATOM      1  C   UNL     1      -4.820   1.959   2.518  0.00  0.00    +0.061 C 
ATOM      2  C   UNL     1      -4.126   1.729   1.201  0.00  0.00    +0.013 C 
ATOM      3  C   UNL     1      -3.052   0.914   1.149  0.00  0.00    +0.024 C 
ATOM      4  C   UNL     1      -2.318   0.658  -0.136  0.00  0.00    +0.096 C 
ATOM      5  C   UNL     1      -3.147   1.078  -1.317  0.00  0.00    +0.069 C 
ATOM      6  C   UNL     1      -4.225   1.892  -1.168  0.00  0.00    +0.080 C 
ATOM      7  N   UNL     1      -4.592   2.349   0.078  0.00  0.00    -0.312 N 
ATOM      8  H   UNL     1      -5.263   3.216   0.167  0.00  0.00    +0.152 HD
ENDROOT
BRANCH   4   9
ATOM      9  C   UNL     1      -1.028   1.437  -0.134  0.00  0.00    -0.035 A 
ATOM     10  C   UNL     1       0.180   0.774  -0.238  0.00  0.00    +0.006 A 
ATOM     11  C   UNL     1       1.363   1.488  -0.242  0.00  0.00    +0.020 A 
ATOM     12  C   UNL     1       1.339   2.868  -0.137  0.00  0.00    +0.041 A 
ATOM     13  C   UNL     1       0.129   3.531  -0.027  0.00  0.00    +0.020 A 
ATOM     14  C   UNL     1      -1.053   2.815  -0.022  0.00  0.00    +0.006 A 
ATOM     15 CL   UNL     1       2.824   3.766  -0.142  0.00  0.00    -0.084 Cl
ENDBRANCH   4   9
BRANCH   3  16
ATOM     16  C   UNL     1      -2.610   0.290   2.326  0.00  0.00    +0.159 C 
ATOM     17  O   UNL     1      -2.171   0.959   3.240  0.00  0.00    -0.293 OA
ATOM     18  C   UNL     1      -2.679  -1.210   2.455  0.00  0.00    +0.091 C 
ENDBRANCH   3  16
BRANCH   5  19
ATOM     19  C   UNL     1      -2.794   0.611  -2.624  0.00  0.00    +0.098 C 
ATOM     20  N   UNL     1      -2.514   0.241  -3.661  0.00  0.00    -0.191 NA
ENDBRANCH   5  19
BRANCH   6  21
ATOM     21  S   UNL     1      -5.161   2.369  -2.583  0.00  0.00    -0.100 S 
BRANCH  21  22
ATOM     22  C   UNL     1      -6.415   3.409  -1.795  0.00  0.00    +0.171 C 
BRANCH  22  23
ATOM     23  C   UNL     1      -7.356   3.944  -2.843  0.00  0.00    +0.227 C 
ATOM     24  O   UNL     1      -7.195   3.650  -4.009  0.00  0.00    -0.275 OA
ATOM     25  N   UNL     1      -8.377   4.748  -2.486  0.00  0.00    -0.283 N 
ATOM     26  H   UNL     1      -8.470   5.089  -1.444  0.00  0.00    +0.155 HD
BRANCH  25  27
ATOM     27  C   UNL     1      -9.320   5.150  -3.441  0.00  0.00    +0.064 A 
ATOM     28  C   UNL     1      -9.545   4.368  -4.566  0.00  0.00    +0.029 A 
ATOM     29  C   UNL     1     -10.474   4.765  -5.507  0.00  0.00    +0.047 A 
ATOM     30  C   UNL     1     -11.184   5.944  -5.328  0.00  0.00    +0.122 A 
ATOM     31  C   UNL     1     -10.959   6.725  -4.204  0.00  0.00    +0.080 A 
ATOM     32  C   UNL     1     -10.034   6.327  -3.260  0.00  0.00    +0.151 A 
BRANCH  32  33
ATOM     33  N   UNL     1      -9.799   7.157  -2.057  0.00  0.00    +0.058 N 
ATOM     34  O   UNL     1     -10.492   8.137  -1.849  0.00  0.00    -0.126 OA
ATOM     35  O   UNL     1      -8.913   6.861  -1.276  0.00  0.00    -0.126 OA
ENDBRANCH  32  33
BRANCH  30  36
ATOM     36  O   UNL     1     -12.099   6.334  -6.255  0.00  0.00    -0.495 OA
ATOM     37  C   UNL     1     -12.278   5.481  -7.388  0.00  0.00    +0.277 C 
ENDBRANCH  30  36
ENDBRANCH  25  27
ENDBRANCH  22  23
ENDBRANCH  21  22
ENDBRANCH   6  21
TORSDOF 9
