REMARK  Name = ZINC04610985
REMARK  4 active torsions:
REMARK  status: ('A' for Active; 'I' for Inactive)
REMARK    1  A    between atoms: C_4  and  N_7
REMARK    2  A    between atoms: C_8  and  S_10
REMARK    3  A    between atoms: S_10  and  C_11
REMARK    4  A    between atoms: N_16  and  C_19
REMARK                            x       y       z     vdW  Elec       q    Type
REMARK                         _______ _______ _______ _____ _____    ______ ____
ROOT
ATOM      1  C   UNL     1       1.052  -1.295   1.265  0.00  0.00    +0.149 C 
ATOM      2  C   UNL     1      -0.265  -1.749   1.926  0.00  0.00    +0.120 C 
ATOM      3  C   UNL     1      -0.733  -0.517   2.668  0.00  0.00    +0.228 C 
ATOM      4  O   UNL     1      -1.744  -0.439   3.332  0.00  0.00    -0.275 OA
ATOM      5  N   UNL     1       0.147   0.474   2.476  0.00  0.00    -0.209 N 
ATOM      6  C   UNL     1       1.192   0.148   1.700  0.00  0.00    +0.240 C 
ATOM      7  O   UNL     1       2.102   0.888   1.395  0.00  0.00    -0.274 OA
ENDROOT
BRANCH   5   8
ATOM      8  C   UNL     1      -0.011   1.748   3.039  0.00  0.00    +0.045 A 
ATOM      9  C   UNL     1      -0.279   2.840   2.224  0.00  0.00    +0.024 A 
ATOM     10  C   UNL     1      -0.434   4.095   2.780  0.00  0.00    +0.003 A 
ATOM     11  C   UNL     1      -0.324   4.264   4.148  0.00  0.00    +0.020 A 
ATOM     12  C   UNL     1      -0.057   3.179   4.963  0.00  0.00    +0.043 A 
ATOM     13  C   UNL     1       0.094   1.920   4.412  0.00  0.00    +0.044 A 
ATOM     14 CL   UNL     1       0.082   3.397   6.680  0.00  0.00    -0.083 Cl
ENDBRANCH   5   8
BRANCH   1  15
ATOM     15  S   UNL     1       2.447  -2.283   1.874  0.00  0.00    -0.078 S 
BRANCH  15  17
ATOM     16  N   UNL     1       5.032  -2.133   1.210  0.00  0.00    -0.227 NA
ATOM     17  C   UNL     1       3.821  -1.703   0.936  0.00  0.00    +0.153 C 
ATOM     18  N   UNL     1       3.627  -0.801  -0.081  0.00  0.00    -0.338 N 
ATOM     19  H   UNL     1       4.384  -0.481  -0.597  0.00  0.00    +0.144 HD
ATOM     20  H   UNL     1       2.733  -0.483  -0.284  0.00  0.00    +0.144 HD
BRANCH  16  24
ATOM     21  C   UNL     1       5.659  -4.619   4.459  0.00  0.00    +0.000 A 
ATOM     22  C   UNL     1       5.988  -5.052   3.187  0.00  0.00    +0.002 A 
ATOM     23  C   UNL     1       5.782  -4.229   2.100  0.00  0.00    +0.028 A 
ATOM     24  C   UNL     1       5.239  -2.956   2.285  0.00  0.00    +0.066 A 
ATOM     25  C   UNL     1       4.909  -2.525   3.572  0.00  0.00    +0.028 A 
ATOM     26  C   UNL     1       5.121  -3.359   4.650  0.00  0.00    +0.002 A 
ENDBRANCH  16  24
ENDBRANCH  15  17
ENDBRANCH   1  15
TORSDOF 4
