REMARK  Name = ZINC29698341
REMARK  10 active torsions:
REMARK  status: ('A' for Active; 'I' for Inactive)
REMARK    1  A    between atoms: C_1  and  C_2
REMARK    2  A    between atoms: C_8  and  N_10
REMARK    3  A    between atoms: C_14  and  C_16
REMARK    4  A    between atoms: C_16  and  N_17
REMARK    5  A    between atoms: N_17  and  C_18
REMARK    6  A    between atoms: N_17  and  C_33
REMARK    7  A    between atoms: C_18  and  C_19
REMARK    8  A    between atoms: C_22  and  C_25
REMARK    9  A    between atoms: N_27  and  C_28
REMARK   10  A    between atoms: C_28  and  C_29
REMARK                            x       y       z     vdW  Elec       q    Type
REMARK                         _______ _______ _______ _____ _____    ______ ____
ROOT
ATOM      1  N   UNL     1       2.329   0.952  -0.034  0.00  0.00    +0.390 N 
ATOM      2  H   UNL     1       2.133   0.303  -0.900  0.00  0.00    -0.080 HD
ENDROOT
BRANCH   1   3
ATOM      3  C   UNL     1       2.289   0.117   1.174  0.00  0.00    -0.068 C 
ATOM      4  C   UNL     1       2.286  -1.401   0.984  0.00  0.00    -0.017 C 
ATOM      5  C   UNL     1       1.012  -0.683   1.437  0.00  0.00    -0.017 C 
ENDBRANCH   1   3
BRANCH   1   6
ATOM      6  C   UNL     1       1.284   1.983   0.003  0.00  0.00    +0.020 C 
BRANCH   6  11
ATOM      7  N   UNL     1      -1.188   4.712  -3.088  0.00  0.00    -0.296 N 
ATOM      8  C   UNL     1      -0.202   3.820  -2.866  0.00  0.00    +0.306 C 
ATOM      9  O   UNL     1       0.477   3.421  -3.792  0.00  0.00    -0.252 OA
ATOM     10  N   UNL     1       0.032   3.372  -1.617  0.00  0.00    -0.242 N 
ATOM     11  C   UNL     1       1.018   2.480  -1.394  0.00  0.00    +0.204 C 
ATOM     12  O   UNL     1       1.695   2.082  -2.318  0.00  0.00    -0.277 OA
ATOM     13  H   UNL     1      -1.802   5.073  -2.250  0.00  0.00    +0.151 HD
ATOM     14  H   UNL     1      -0.582   3.733  -0.778  0.00  0.00    +0.159 HD
BRANCH   7  21
ATOM     15  C   UNL     1      -3.829   4.483  -4.256  0.00  0.00    +0.009 C 
ATOM     16  C   UNL     1      -2.897   5.659  -4.558  0.00  0.00    +0.006 C 
ATOM     17  C   UNL     1      -3.156   6.785  -3.555  0.00  0.00    +0.005 C 
ATOM     18  C   UNL     1      -2.225   7.961  -3.857  0.00  0.00    +0.000 C 
ATOM     19  C   UNL     1      -0.770   7.501  -3.745  0.00  0.00    +0.002 C 
ATOM     20  C   UNL     1      -0.511   6.375  -4.748  0.00  0.00    +0.022 C 
ATOM     21  C   UNL     1      -1.442   5.199  -4.446  0.00  0.00    +0.077 C 
ENDBRANCH   7  21
ENDBRANCH   6  11
ENDBRANCH   1   6
BRANCH   1  22
ATOM     22  C   UNL     1       3.657   1.554  -0.214  0.00  0.00    -0.042 C 
BRANCH  22  23
ATOM     23  C   UNL     1       4.667   0.470  -0.493  0.00  0.00    -0.064 A 
ATOM     24  C   UNL     1       5.341  -0.130   0.556  0.00  0.00    +0.002 A 
ATOM     25  C   UNL     1       6.263  -1.125   0.308  0.00  0.00    +0.013 A 
ATOM     26  C   UNL     1       6.523  -1.520  -1.005  0.00  0.00    +0.037 A 
ATOM     27  C   UNL     1       5.843  -0.907  -2.059  0.00  0.00    +0.013 A 
ATOM     28  C   UNL     1       4.920   0.084  -1.797  0.00  0.00    +0.002 A 
BRANCH  26  29
ATOM     29  C   UNL     1       7.514  -2.582  -1.279  0.00  0.00    +0.244 C 
ATOM     30  O   UNL     1       7.738  -2.924  -2.424  0.00  0.00    -0.270 OA
ATOM     31  N   UNL     1       8.168  -3.172  -0.259  0.00  0.00    -0.303 N 
ATOM     32  H   UNL     1       7.965  -2.864   0.777  0.00  0.00    +0.149 HD
BRANCH  31  33
ATOM     33  C   UNL     1       9.150  -4.225  -0.530  0.00  0.00    +0.217 C 
BRANCH  33  34
ATOM     34  C   UNL     1       9.743  -4.722   0.790  0.00  0.00    +0.405 C 
ATOM     35  F   UNL     1       8.721  -5.234   1.596  0.00  0.00    -0.169 F 
ATOM     36  F   UNL     1      10.681  -5.727   0.531  0.00  0.00    -0.169 F 
ATOM     37  F   UNL     1      10.369  -3.659   1.450  0.00  0.00    -0.169 F 
ENDBRANCH  33  34
ENDBRANCH  31  33
ENDBRANCH  26  29
ENDBRANCH  22  23
ENDBRANCH   1  22
TORSDOF 9
