REMARK  Name = ZINC08813844
REMARK  8 active torsions:
REMARK  status: ('A' for Active; 'I' for Inactive)
REMARK    1  A    between atoms: C_1  and  C_2
REMARK    2  A    between atoms: C_3  and  C_9
REMARK    3  A    between atoms: C_4  and  O_8
REMARK    4  A    between atoms: C_9  and  C_10
REMARK    5  A    between atoms: C_9  and  C_19
REMARK    6  A    between atoms: C_13  and  O_17
REMARK    7  A    between atoms: C_20  and  C_26
REMARK    8  A    between atoms: C_24  and  O_25
REMARK                            x       y       z     vdW  Elec       q    Type
REMARK                         _______ _______ _______ _____ _____    ______ ____
ROOT
ATOM      1  C   UNL     1       1.290   1.820  -2.722  0.00  0.00    +0.093 C 
ENDROOT
BRANCH   1   2
ATOM      2  C   UNL     1       1.812   0.802  -3.703  0.00  0.00    -0.033 A 
ATOM      3  C   UNL     1       1.521   0.930  -5.049  0.00  0.00    +0.023 A 
ATOM      4  C   UNL     1       1.998  -0.002  -5.952  0.00  0.00    +0.061 A 
ATOM      5  C   UNL     1       2.769  -1.067  -5.506  0.00  0.00    +0.145 A 
ATOM      6  C   UNL     1       3.059  -1.192  -4.154  0.00  0.00    +0.061 A 
ATOM      7  C   UNL     1       2.584  -0.254  -3.257  0.00  0.00    +0.023 A 
ATOM      8 BR   UNL     1       4.109  -2.640  -3.542  0.00  0.00    -0.046 Br
ATOM      9 BR   UNL     1       1.599   0.172  -7.792  0.00  0.00    -0.046 Br
BRANCH   5  10
ATOM     10  O   UNL     1       3.239  -1.985  -6.391  0.00  0.00    -0.505 OA
ATOM     11  H   UNL     1       4.106  -1.768  -6.760  0.00  0.00    +0.292 HD
ENDBRANCH   5  10
ENDBRANCH   1   2
BRANCH   1  14
ATOM     12  C   UNL     1      -0.757  -0.414  -3.496  0.00  0.00    +0.065 C 
ATOM     13  C   UNL     1      -1.076   1.041  -3.266  0.00  0.00    +0.041 A 
ATOM     14  C   UNL     1      -0.191   2.007  -2.931  0.00  0.00    +0.048 A 
ATOM     15  C   UNL     1      -0.895   3.215  -2.813  0.00  0.00    +0.236 A 
ATOM     16  N   UNL     1      -2.158   2.976  -3.069  0.00  0.00    -0.136 NA
ATOM     17  H   UNL     1      -3.121   1.159  -3.592  0.00  0.00    +0.189 HD
ATOM     18  N   UNL     1      -2.295   1.613  -3.362  0.00  0.00    -0.278 N 
BRANCH  15  19
ATOM     19  O   UNL     1      -0.361   4.423  -2.490  0.00  0.00    -0.491 OA
ATOM     20  H   UNL     1      -0.142   4.974  -3.254  0.00  0.00    +0.294 HD
ENDBRANCH  15  19
ENDBRANCH   1  14
BRANCH   1  21
ATOM     21  C   UNL     1       1.998   3.133  -2.936  0.00  0.00    +0.048 A 
ATOM     22  C   UNL     1       2.839   3.736  -2.064  0.00  0.00    +0.041 A 
ATOM     23  N   UNL     1       3.261   4.888  -2.627  0.00  0.00    -0.278 N 
ATOM     24  N   UNL     1       2.661   5.000  -3.888  0.00  0.00    -0.136 NA
ATOM     25  H   UNL     1       3.872   5.527  -2.228  0.00  0.00    +0.189 HD
ATOM     26  C   UNL     1       1.906   3.944  -4.077  0.00  0.00    +0.236 A 
ATOM     27  C   UNL     1       3.233   3.215  -0.706  0.00  0.00    +0.065 C 
BRANCH  26  28
ATOM     28  O   UNL     1       1.162   3.683  -5.185  0.00  0.00    -0.491 OA
ATOM     29  H   UNL     1       0.290   4.101  -5.181  0.00  0.00    +0.294 HD
ENDBRANCH  26  28
ENDBRANCH   1  21
TORSDOF 6
