REMARK  Name = ZINC04764553
REMARK  11 active torsions:
REMARK  status: ('A' for Active; 'I' for Inactive)
REMARK    1  A    between atoms: C_1  and  C_2
REMARK    2  A    between atoms: C_7  and  C_22
REMARK    3  A    between atoms: C_9  and  C_13
REMARK    4  A    between atoms: C_10  and  C_12
REMARK    5  A    between atoms: C_13  and  O_15
REMARK    6  A    between atoms: O_15  and  C_16
REMARK    7  A    between atoms: C_26  and  O_28
REMARK    8  A    between atoms: O_28  and  C_29
REMARK    9  A    between atoms: C_32  and  C_34
REMARK   10  A    between atoms: C_34  and  O_36
REMARK   11  A    between atoms: O_36  and  C_37
REMARK                            x       y       z     vdW  Elec       q    Type
REMARK                         _______ _______ _______ _____ _____    ______ ____
ROOT
ATOM      1  C   UNL     1      -0.575   7.700   1.653  0.00  0.00    +0.009 C 
ATOM      2  C   UNL     1      -0.833   6.332   1.018  0.00  0.00    +0.013 C 
ATOM      3  C   UNL     1       0.410   5.452   1.170  0.00  0.00    +0.055 C 
ATOM      4  C   UNL     1       0.140   4.088   0.585  0.00  0.00    +0.016 C 
ATOM      5  C   UNL     1      -1.103   3.561   0.594  0.00  0.00    +0.025 C 
ATOM      6  C   UNL     1      -1.365   2.198   0.001  0.00  0.00    +0.092 C 
ATOM      7  C   UNL     1      -0.089   1.422  -0.145  0.00  0.00    +0.065 C 
ATOM      8  C   UNL     1       1.106   2.036  -0.124  0.00  0.00    +0.016 C 
ATOM      9  N   UNL     1       1.187   3.390   0.045  0.00  0.00    -0.321 N 
ATOM     10  C   UNL     1       2.366   1.226  -0.289  0.00  0.00    +0.061 C 
ATOM     11  C   UNL     1      -2.186   4.268   1.146  0.00  0.00    +0.176 C 
ATOM     12  O   UNL     1      -3.289   3.757   1.153  0.00  0.00    -0.291 OA
ATOM     13  C   UNL     1      -2.005   5.644   1.726  0.00  0.00    +0.171 C 
ATOM     14  H   UNL     1       2.103   3.918  -0.257  0.00  0.00    +0.152 HD
ENDROOT
BRANCH   6  15
ATOM     15  C   UNL     1      -2.006   2.356  -1.354  0.00  0.00    -0.032 A 
ATOM     16  C   UNL     1      -1.330   3.013  -2.365  0.00  0.00    +0.005 A 
ATOM     17  C   UNL     1      -1.913   3.156  -3.610  0.00  0.00    +0.004 A 
ATOM     18  C   UNL     1      -3.177   2.652  -3.844  0.00  0.00    +0.045 A 
ATOM     19  C   UNL     1      -3.860   1.997  -2.830  0.00  0.00    +0.120 A 
ATOM     20  C   UNL     1      -3.271   1.850  -1.583  0.00  0.00    +0.050 A 
BRANCH  19  21
ATOM     21  O   UNL     1      -5.104   1.500  -3.058  0.00  0.00    -0.495 OA
ATOM     22  C   UNL     1      -5.649   1.688  -4.365  0.00  0.00    +0.277 C 
ENDBRANCH  19  21
ENDBRANCH   6  15
BRANCH   7  23
ATOM     23  C   UNL     1      -0.146   0.019  -0.314  0.00  0.00    +0.338 C 
ATOM     24  O   UNL     1      -0.411  -0.698   0.633  0.00  0.00    -0.245 OA
BRANCH  23  25
ATOM     25  O   UNL     1       0.094  -0.525  -1.526  0.00  0.00    -0.458 OA
BRANCH  25  26
ATOM     26  C   UNL     1       0.019  -1.949  -1.623  0.00  0.00    +0.177 C 
ATOM     27  C   UNL     1       1.396  -2.552  -1.338  0.00  0.00    +0.044 C 
ATOM     28  C   UNL     1       1.317  -4.077  -1.443  0.00  0.00    +0.004 C 
ATOM     29  C   UNL     1       0.871  -4.468  -2.853  0.00  0.00    +0.000 C 
ATOM     30  C   UNL     1      -0.506  -3.865  -3.139  0.00  0.00    +0.004 C 
ATOM     31  C   UNL     1      -0.427  -2.341  -3.034  0.00  0.00    +0.044 C 
ENDBRANCH  25  26
ENDBRANCH  23  25
ENDBRANCH   7  23
BRANCH  13  32
ATOM     32  C   UNL     1      -3.262   6.448   1.519  0.00  0.00    +0.318 C 
ATOM     33  O   UNL     1      -3.227   7.468   0.872  0.00  0.00    -0.250 OA
BRANCH  32  34
ATOM     34  O   UNL     1      -4.421   6.032   2.053  0.00  0.00    -0.467 OA
ATOM     35  C   UNL     1      -5.591   6.857   1.813  0.00  0.00    +0.280 C 
ENDBRANCH  32  34
ENDBRANCH  13  32
TORSDOF 7
