REMARK  Name = ZINC00846901
REMARK  9 active torsions:
REMARK  status: ('A' for Active; 'I' for Inactive)
REMARK    1  A    between atoms: C_1  and  C_2
REMARK    2  A    between atoms: C_2  and  O_3
REMARK    3  A    between atoms: O_3  and  C_4
REMARK    4  A    between atoms: C_4  and  C_6
REMARK    5  A    between atoms: C_10  and  N_11
REMARK    6  A    between atoms: C_12  and  C_14
REMARK    7  A    between atoms: C_14  and  O_15
REMARK    8  A    between atoms: O_15  and  C_16
REMARK    9  A    between atoms: C_20  and  C_27
REMARK                            x       y       z     vdW  Elec       q    Type
REMARK                         _______ _______ _______ _____ _____    ______ ____
ROOT
ATOM      1  N   UNL     1       2.088   4.346   0.005  0.00  0.00    -0.277 N 
ATOM      2  C   UNL     1       1.030   3.510   0.011  0.00  0.00    +0.255 C 
ATOM      3  O   UNL     1      -0.097   3.959   0.024  0.00  0.00    -0.272 OA
ATOM      4  H   UNL     1       2.989   3.987  -0.005  0.00  0.00    +0.155 HD
ENDROOT
BRANCH   1   9
ATOM      5  C   UNL     1       2.837   6.726   0.017  0.00  0.00    +0.091 A 
ATOM      6  C   UNL     1       2.356   8.108   0.023  0.00  0.00    -0.021 A 
ATOM      7  C   UNL     1       1.019   8.247   0.036  0.00  0.00    -0.004 A 
ATOM      8  S   UNL     1       0.391   6.586   0.034  0.00  0.00    -0.077 S 
ATOM      9  C   UNL     1       1.888   5.717   0.015  0.00  0.00    +0.086 A 
ATOM     10  C   UNL     1       0.602   9.693   0.045  0.00  0.00    +0.043 C 
ATOM     11  C   UNL     1       1.864  10.464  -0.401  0.00  0.00    +0.010 C 
ATOM     12  C   UNL     1       2.989   9.500   0.026  0.00  0.00    +0.037 C 
BRANCH   5  13
ATOM     13  C   UNL     1       4.269   6.421   0.008  0.00  0.00    +0.342 C 
ATOM     14  O   UNL     1       4.859   6.301  -1.049  0.00  0.00    -0.245 OA
BRANCH  13  15
ATOM     15  O   UNL     1       4.934   6.272   1.172  0.00  0.00    -0.461 OA
BRANCH  15  17
ATOM     16  C   UNL     1       6.930   5.838   2.498  0.00  0.00    +0.048 C 
ATOM     17  C   UNL     1       6.352   5.970   1.087  0.00  0.00    +0.229 C 
ENDBRANCH  15  17
ENDBRANCH  13  15
ENDBRANCH   5  13
ENDBRANCH   1   9
BRANCH   2  18
ATOM     18  C   UNL     1       1.248   2.019   0.001  0.00  0.00    +0.324 C 
BRANCH  18  19
ATOM     19  O   UNL     1      -0.016   1.353   0.009  0.00  0.00    -0.483 OA
BRANCH  19  20
ATOM     20  C   UNL     1       0.002  -0.004   0.002  0.00  0.00    +0.125 A 
ATOM     21  C   UNL     1       1.222  -0.679  -0.019  0.00  0.00    +0.046 A 
ATOM     22  C   UNL     1       1.257  -2.043  -0.022  0.00  0.00    +0.015 A 
ATOM     23  C   UNL     1       0.060  -2.769  -0.014  0.00  0.00    +0.021 A 
ATOM     24  C   UNL     1       0.068  -4.234  -0.022  0.00  0.00    -0.033 A 
ATOM     25  C   UNL     1      -1.126  -4.882  -0.013  0.00  0.00    +0.096 A 
ATOM     26  C   UNL     1      -2.326  -4.141   0.002  0.00  0.00    +0.337 A 
ATOM     27  O   UNL     1      -3.389  -4.734   0.009  0.00  0.00    -0.245 OA
ATOM     28  O   UNL     1      -2.326  -2.799   0.009  0.00  0.00    -0.422 OA
ATOM     29  C   UNL     1      -1.174  -2.094   0.002  0.00  0.00    +0.143 A 
ATOM     30  C   UNL     1      -1.191  -0.707   0.010  0.00  0.00    +0.092 A 
ATOM     31  C   UNL     1       1.365  -5.001  -0.038  0.00  0.00    +0.045 C 
ENDBRANCH  19  20
ENDBRANCH  18  19
ENDBRANCH   2  18
TORSDOF 7
