REMARK  Name = ZINC28465681
REMARK  5 active torsions:
REMARK  status: ('A' for Active; 'I' for Inactive)
REMARK    1  A    between atoms: C_6  and  C_7
REMARK    2  A    between atoms: C_7  and  C_9
REMARK    3  A    between atoms: C_9  and  S_10
REMARK    4  A    between atoms: S_10  and  C_11
REMARK    5  A    between atoms: C_15  and  N_20
REMARK                            x       y       z     vdW  Elec       q    Type
REMARK                         _______ _______ _______ _____ _____    ______ ____
ROOT
ATOM      1  C   UNL     1       1.450  -2.326  -0.024  0.00  0.00    +0.258 A 
ATOM      2  N   UNL     1       2.397  -3.230  -0.038  0.00  0.00    -0.203 NA
ATOM      3  C   UNL     1       1.823  -4.464  -0.038  0.00  0.00    +0.113 A 
ATOM      4  C   UNL     1       2.331  -5.763  -0.050  0.00  0.00    +0.064 A 
ATOM      5  C   UNL     1       1.466  -6.836  -0.046  0.00  0.00    +0.128 A 
ATOM      6  C   UNL     1       0.095  -6.631  -0.032  0.00  0.00    +0.036 A 
ATOM      7  C   UNL     1      -0.421  -5.351  -0.020  0.00  0.00    +0.051 A 
ATOM      8  C   UNL     1       0.435  -4.261  -0.024  0.00  0.00    +0.156 A 
ATOM      9  O   UNL     1       0.244  -2.921  -0.010  0.00  0.00    -0.431 OA
ENDROOT
BRANCH   5  10
ATOM     10  N   UNL     1       2.004  -8.215  -0.058  0.00  0.00    +0.056 N 
ATOM     11  O   UNL     1       3.208  -8.399  -0.070  0.00  0.00    -0.126 OA
ATOM     12  O   UNL     1       1.243  -9.165  -0.054  0.00  0.00    -0.126 OA
ENDBRANCH   5  10
BRANCH   1  13
ATOM     13  S   UNL     1       1.716  -0.584  -0.018  0.00  0.00    -0.059 S 
BRANCH  13  14
ATOM     14  C   UNL     1       0.002  -0.004   0.002  0.00  0.00    +0.158 C 
BRANCH  14  15
ATOM     15  C   UNL     1      -0.018   1.503   0.010  0.00  0.00    +0.173 C 
ATOM     16  O   UNL     1       1.023   2.123   0.004  0.00  0.00    -0.291 OA
BRANCH  15  22
ATOM     17  C   UNL     1      -2.506   1.508   0.016  0.00  0.00    +0.012 A 
ATOM     18  C   UNL     1      -3.705   2.188   0.033  0.00  0.00    +0.016 A 
ATOM     19  C   UNL     1      -3.720   3.573   0.040  0.00  0.00    +0.018 A 
ATOM     20  C   UNL     1      -2.532   4.286   0.037  0.00  0.00    +0.016 A 
ATOM     21  C   UNL     1      -1.325   3.620   0.028  0.00  0.00    +0.012 A 
ATOM     22  C   UNL     1      -1.302   2.221   0.020  0.00  0.00    +0.018 A 
ATOM     23 BR   UNL     1      -5.370   4.497   0.053  0.00  0.00    -0.050 Br
ENDBRANCH  15  22
ENDBRANCH  14  15
ENDBRANCH  13  14
ENDBRANCH   1  13
TORSDOF 5
