REMARK  Name = ZINC25443599
REMARK  8 active torsions:
REMARK  status: ('A' for Active; 'I' for Inactive)
REMARK    1  A    between atoms: C_1  and  N_2
REMARK    2  A    between atoms: N_2  and  C_3
REMARK    3  A    between atoms: N_2  and  C_4
REMARK    4  A    between atoms: C_4  and  C_11
REMARK    5  A    between atoms: C_11  and  N_12
REMARK    6  A    between atoms: C_13  and  C_15
REMARK    7  A    between atoms: N_18  and  S_21
REMARK    8  A    between atoms: S_21  and  C_24
REMARK                            x       y       z     vdW  Elec       q    Type
REMARK                         _______ _______ _______ _____ _____    ______ ____
ROOT
ATOM      1  C   UNL     1       1.199  -0.334   6.227  0.00  0.00    +0.077 C 
ATOM      2  C   UNL     1       0.959  -1.843   6.323  0.00  0.00    +0.030 C 
ATOM      3  C   UNL     1       1.679  -2.392   7.559  0.00  0.00    +0.110 C 
ATOM      4  N   UNL     1       1.240  -1.634   8.738  0.00  0.00    -0.176 NA
ATOM      5  C   UNL     1       1.342  -0.169   8.715  0.00  0.00    +0.110 C 
ATOM      6  C   UNL     1       0.625   0.356   7.466  0.00  0.00    +0.030 C 
ENDROOT
BRANCH   1   8
ATOM      7  N   UNL     1       0.867  -0.260   3.777  0.00  0.00    -0.316 N 
ATOM      8  C   UNL     1       0.520   0.204   4.994  0.00  0.00    +0.216 C 
ATOM      9  O   UNL     1      -0.337   1.056   5.096  0.00  0.00    -0.276 OA
ATOM     10  H   UNL     1       1.645  -1.032   3.683  0.00  0.00    +0.149 HD
BRANCH   7  11
ATOM     11  C   UNL     1       0.207   0.263   2.578  0.00  0.00    +0.092 C 
BRANCH  11  12
ATOM     12  C   UNL     1       0.701  -0.502   1.349  0.00  0.00    -0.050 C 
ATOM     13  C   UNL     1      -0.360  -1.538   0.923  0.00  0.00    -0.010 C 
ATOM     14  C   UNL     1      -1.716  -1.022   1.035  0.00  0.00    -0.001 C 
ATOM     15  C   UNL     1      -1.959   0.194   0.117  0.00  0.00    -0.000 C 
ATOM     16  C   UNL     1      -1.388   1.417   0.783  0.00  0.00    -0.000 C 
ATOM     17  C   UNL     1       0.051   1.720   0.324  0.00  0.00    -0.001 C 
ATOM     18  C   UNL     1       0.920   0.453   0.207  0.00  0.00    -0.010 C 
BRANCH  12  20
ATOM     19  C   UNL     1       2.388  -2.048   0.555  0.00  0.00    -0.096 C 
ATOM     20  N   UNL     1       1.960  -1.188   1.667  0.00  0.00    +0.381 N 
ATOM     21  C   UNL     1       3.010  -0.223   2.020  0.00  0.00    -0.096 C 
ATOM     22  H   UNL     1       1.783  -1.831   2.542  0.00  0.00    -0.082 HD
ENDBRANCH  12  20
ENDBRANCH  11  12
ENDBRANCH   7  11
ENDBRANCH   1   8
BRANCH   4  23
ATOM     23  S   UNL     1       0.640  -2.417  10.069  0.00  0.00    +0.064 S 
ATOM     24  O   UNL     1       1.168  -3.736  10.035  0.00  0.00    -0.153 OA
ATOM     25  O   UNL     1       0.836  -1.547  11.175  0.00  0.00    -0.153 OA
BRANCH  23  26
ATOM     26  C   UNL     1      -1.101  -2.566   9.846  0.00  0.00    +0.143 A 
ATOM     27  C   UNL     1      -1.675  -3.814   9.702  0.00  0.00    +0.069 A 
ATOM     28  C   UNL     1      -3.044  -3.931   9.530  0.00  0.00    +0.125 A 
ATOM     29  C   UNL     1      -3.837  -2.796   9.494  0.00  0.00    +0.041 A 
ATOM     30  C   UNL     1      -3.262  -1.547   9.634  0.00  0.00    +0.043 A 
ATOM     31  C   UNL     1      -1.893  -1.431   9.809  0.00  0.00    +0.150 A 
ATOM     32  F   UNL     1      -1.331  -0.210   9.945  0.00  0.00    -0.203 F 
ATOM     33  F   UNL     1      -3.606  -5.152   9.394  0.00  0.00    -0.205 F 
ENDBRANCH  23  26
ENDBRANCH   4  23
TORSDOF 6
