REMARK  Name = ZINC39939898
REMARK  7 active torsions:
REMARK  status: ('A' for Active; 'I' for Inactive)
REMARK    1  A    between atoms: C_4  and  C_7
REMARK    2  A    between atoms: C_7  and  C_16
REMARK    3  A    between atoms: N_8  and  N_9
REMARK    4  A    between atoms: N_9  and  C_10
REMARK    5  A    between atoms: C_16  and  C_18
REMARK    6  A    between atoms: C_16  and  C_30
REMARK    7  A    between atoms: C_30  and  C_32
REMARK                            x       y       z     vdW  Elec       q    Type
REMARK                         _______ _______ _______ _____ _____    ______ ____
ROOT
ATOM      1  C   UNL     1       3.619  -2.135  -0.086  0.00  0.00    +0.142 C 
ENDROOT
BRANCH   1   2
ATOM      2  C   UNL     1       3.108  -2.607  -1.449  0.00  0.00    +0.182 C 
ATOM      3  C   UNL     1       1.845  -1.837  -1.760  0.00  0.00    +0.241 C 
ATOM      4  O   UNL     1       1.857  -0.623  -1.800  0.00  0.00    -0.273 OA
ATOM      5  N   UNL     1       0.714  -2.509  -1.989  0.00  0.00    -0.282 N 
ATOM      6  C   UNL     1       0.674  -3.830  -1.951  0.00  0.00    +0.057 A 
ATOM      7  C   UNL     1      -0.540  -4.511  -2.198  0.00  0.00    +0.025 A 
ATOM      8  C   UNL     1      -0.587  -5.863  -2.161  0.00  0.00    +0.002 A 
ATOM      9  C   UNL     1       0.538  -6.655  -1.880  0.00  0.00    +0.002 A 
ATOM     10  C   UNL     1       1.747  -6.107  -1.628  0.00  0.00    +0.027 A 
ATOM     11  C   UNL     1       1.881  -4.641  -1.651  0.00  0.00    +0.057 A 
ATOM     12  N   UNL     1       3.028  -4.075  -1.414  0.00  0.00    -0.371 N 
ATOM     13  H   UNL     1       3.814  -4.610  -1.220  0.00  0.00    +0.160 HD
ATOM     14  H   UNL     1      -0.097  -2.017  -2.188  0.00  0.00    +0.155 HD
ENDBRANCH   1   2
BRANCH   1  15
ATOM     15  C   UNL     1       3.825  -0.642  -0.117  0.00  0.00    +0.079 C 
ATOM     16  N   UNL     1       3.106   0.128   0.643  0.00  0.00    -0.186 NA
BRANCH  15  20
ATOM     17  C   UNL     1       6.754   1.044  -2.684  0.00  0.00    +0.000 A 
ATOM     18  C   UNL     1       6.885   1.172  -1.312  0.00  0.00    +0.001 A 
ATOM     19  C   UNL     1       5.937   0.627  -0.472  0.00  0.00    +0.010 A 
ATOM     20  C   UNL     1       4.842  -0.056  -1.009  0.00  0.00    -0.001 A 
ATOM     21  C   UNL     1       4.717  -0.182  -2.394  0.00  0.00    +0.010 A 
ATOM     22  C   UNL     1       5.673   0.368  -3.223  0.00  0.00    +0.001 A 
ENDBRANCH  15  20
BRANCH  16  23
ATOM     23  N   UNL     1       3.221   1.520   0.537  0.00  0.00    -0.238 N 
ATOM     24  H   UNL     1       3.882   1.909  -0.057  0.00  0.00    +0.174 HD
BRANCH  23  25
ATOM     25  C   UNL     1       2.383   2.348   1.286  0.00  0.00    +0.048 A 
ATOM     26  C   UNL     1       1.439   1.793   2.141  0.00  0.00    +0.025 A 
ATOM     27  C   UNL     1       0.612   2.615   2.880  0.00  0.00    +0.002 A 
ATOM     28  C   UNL     1       0.722   3.989   2.770  0.00  0.00    +0.000 A 
ATOM     29  C   UNL     1       1.661   4.545   1.920  0.00  0.00    +0.002 A 
ATOM     30  C   UNL     1       2.495   3.729   1.182  0.00  0.00    +0.025 A 
ENDBRANCH  23  25
ENDBRANCH  16  23
ENDBRANCH   1  15
BRANCH   1  31
ATOM     31  C   UNL     1       4.927  -2.816   0.223  0.00  0.00    +0.175 C 
ATOM     32  O   UNL     1       5.975  -2.264  -0.037  0.00  0.00    -0.291 OA
BRANCH  31  33
ATOM     33  C   UNL     1       4.933  -4.152   0.841  0.00  0.00    +0.018 A 
ATOM     34  C   UNL     1       3.727  -4.794   1.138  0.00  0.00    +0.011 A 
ATOM     35  C   UNL     1       3.740  -6.046   1.716  0.00  0.00    +0.001 A 
ATOM     36  C   UNL     1       4.944  -6.666   2.004  0.00  0.00    +0.000 A 
ATOM     37  C   UNL     1       6.142  -6.036   1.714  0.00  0.00    +0.001 A 
ATOM     38  C   UNL     1       6.145  -4.787   1.130  0.00  0.00    +0.011 A 
ENDBRANCH  31  33
ENDBRANCH   1  31
TORSDOF 7
