REMARK  Name = ZINC20344281
REMARK  7 active torsions:
REMARK  status: ('A' for Active; 'I' for Inactive)
REMARK    1  A    between atoms: C_1  and  C_2
REMARK    2  A    between atoms: C_4  and  O_5
REMARK    3  A    between atoms: N_13  and  C_14
REMARK    4  A    between atoms: C_14  and  N_16
REMARK    5  A    between atoms: N_16  and  C_17
REMARK    6  A    between atoms: C_20  and  S_23
REMARK    7  A    between atoms: S_23  and  N_26
REMARK                            x       y       z     vdW  Elec       q    Type
REMARK                         _______ _______ _______ _____ _____    ______ ____
ROOT
ATOM      1  N   UNL     1       4.289  -4.014  -4.135  0.00  0.00    -0.297 N 
ATOM      2  H   UNL     1       3.864  -3.609  -5.065  0.00  0.00    +0.154 HD
ENDROOT
BRANCH   1   3
ATOM      3  C   UNL     1       4.412  -3.195  -3.007  0.00  0.00    +0.033 A 
ATOM      4  C   UNL     1       4.900  -1.901  -3.137  0.00  0.00    +0.025 A 
ATOM      5  C   UNL     1       5.020  -1.095  -2.022  0.00  0.00    +0.030 A 
ATOM      6  C   UNL     1       4.655  -1.575  -0.777  0.00  0.00    +0.109 A 
ATOM      7  C   UNL     1       4.174  -2.865  -0.644  0.00  0.00    +0.030 A 
ATOM      8  C   UNL     1       4.047  -3.674  -1.756  0.00  0.00    +0.025 A 
BRANCH   6   9
ATOM      9  S   UNL     1       4.810  -0.544   0.643  0.00  0.00    +0.075 S 
ATOM     10  O   UNL     1       5.800   0.427   0.334  0.00  0.00    -0.150 OA
ATOM     11  O   UNL     1       4.916  -1.410   1.764  0.00  0.00    -0.150 OA
BRANCH   9  12
ATOM     12  N   UNL     1       3.380   0.276   0.811  0.00  0.00    -0.203 N 
ATOM     13  C   UNL     1       3.225   1.628   0.259  0.00  0.00    +0.132 C 
ATOM     14  C   UNL     1       2.532   2.492   1.320  0.00  0.00    +0.025 C 
ATOM     15  C   UNL     1       1.135   1.928   1.580  0.00  0.00    +0.038 C 
ATOM     16  C   UNL     1       1.208   0.452   1.869  0.00  0.00    -0.025 A 
ATOM     17  C   UNL     1       2.300  -0.309   1.482  0.00  0.00    +0.054 A 
ATOM     18  C   UNL     1       2.333  -1.671   1.760  0.00  0.00    +0.025 A 
ATOM     19  C   UNL     1       1.279  -2.266   2.424  0.00  0.00    +0.002 A 
ATOM     20  C   UNL     1       0.191  -1.506   2.812  0.00  0.00    +0.000 A 
ATOM     21  C   UNL     1       0.155  -0.153   2.535  0.00  0.00    +0.005 A 
ENDBRANCH   9  12
ENDBRANCH   6   9
ENDBRANCH   1   3
BRANCH   1  22
ATOM     22  C   UNL     1       4.692  -5.299  -4.081  0.00  0.00    +0.139 C 
ATOM     23  S   UNL     1       5.258  -5.958  -2.606  0.00  0.00    -0.018 S 
BRANCH  22  35
ATOM     24  C   UNL     1       8.081 -11.574  -4.397  0.00  0.00    +0.045 C 
ATOM     25  C   UNL     1       6.776 -11.271  -5.087  0.00  0.00    -0.033 A 
ATOM     26  C   UNL     1       6.071 -12.252  -5.708  0.00  0.00    +0.091 A 
ATOM     27  C   UNL     1       4.852 -11.944  -6.346  0.00  0.00    +0.285 A 
ATOM     28  O   UNL     1       4.360 -10.695  -6.360  0.00  0.00    -0.425 OA
ATOM     29  C   UNL     1       5.011  -9.674  -5.762  0.00  0.00    +0.141 A 
ATOM     30  C   UNL     1       6.234  -9.911  -5.106  0.00  0.00    +0.021 A 
ATOM     31  C   UNL     1       6.912  -8.857  -4.484  0.00  0.00    +0.013 A 
ATOM     32  C   UNL     1       6.388  -7.597  -4.521  0.00  0.00    +0.024 A 
ATOM     33  C   UNL     1       5.175  -7.356  -5.165  0.00  0.00    +0.036 A 
ATOM     34  C   UNL     1       4.489  -8.390  -5.786  0.00  0.00    +0.070 A 
ATOM     35  N   UNL     1       4.649  -6.065  -5.189  0.00  0.00    -0.297 N 
ATOM     36  H   UNL     1       4.199  -5.671  -6.113  0.00  0.00    +0.154 HD
BRANCH  27  37
ATOM     37  O   UNL     1       4.229 -12.833  -6.898  0.00  0.00    -0.480 OA
ATOM     38  H   UNL     1       3.277 -12.607  -7.400  0.00  0.00    +0.295 HD
ENDBRANCH  27  37
ENDBRANCH  22  35
ENDBRANCH   1  22
TORSDOF 6
