REMARK  Name = ZINC57381481
REMARK  4 active torsions:
REMARK  status: ('A' for Active; 'I' for Inactive)
REMARK    1  A    between atoms: C_5  and  C_6
REMARK    2  A    between atoms: C_8  and  C_11
REMARK    3  A    between atoms: C_11  and  C_12
REMARK    4  A    between atoms: C_17  and  C_20
REMARK                            x       y       z     vdW  Elec       q    Type
REMARK                         _______ _______ _______ _____ _____    ______ ____
ROOT
ATOM      1  C   UNL     1      -1.374  -4.947  -1.160  0.00  0.00    +0.221 C 
ATOM      2  O   UNL     1      -0.871  -4.144  -1.917  0.00  0.00    -0.275 OA
ATOM      3  N   UNL     1      -1.198  -6.267  -1.365  0.00  0.00    -0.301 N 
ATOM      4  C   UNL     1      -1.805  -7.253  -0.460  0.00  0.00    +0.108 C 
ATOM      5  C   UNL     1      -0.710  -8.198   0.046  0.00  0.00    +0.032 C 
ATOM      6  C   UNL     1       0.022  -8.810  -1.151  0.00  0.00    +0.078 C 
ATOM      7  C   UNL     1       0.684  -7.699  -1.969  0.00  0.00    +0.032 C 
ATOM      8  C   UNL     1      -0.400  -6.749  -2.501  0.00  0.00    +0.108 C 
ENDROOT
BRANCH   6   9
ATOM      9  C   UNL     1       1.077  -9.767  -0.658  0.00  0.00    +0.214 C 
ATOM     10  O   UNL     1       1.229  -9.941   0.533  0.00  0.00    -0.276 OA
ATOM     11  N   UNL     1       1.853 -10.428  -1.540  0.00  0.00    -0.329 N 
ATOM     12  H   UNL     1       1.732 -10.288  -2.492  0.00  0.00    +0.145 HD
ATOM     13  H   UNL     1       2.532 -11.044  -1.222  0.00  0.00    +0.145 HD
ENDBRANCH   6   9
BRANCH   1  14
ATOM     14  C   UNL     1      -2.195  -4.469   0.010  0.00  0.00    +0.151 C 
BRANCH  14  17
ATOM     15  C   UNL     1      -1.127  -0.946   0.008  0.00  0.00    +0.115 A 
ATOM     16  N   UNL     1      -1.117  -2.275   0.006  0.00  0.00    -0.243 NA
ATOM     17  C   UNL     1      -2.236  -2.963   0.013  0.00  0.00    +0.058 A 
ATOM     18  C   UNL     1      -3.430  -2.315   0.021  0.00  0.00    +0.071 A 
ATOM     19  S   UNL     1      -2.884  -0.612   0.028  0.00  0.00    -0.075 S 
BRANCH  15  24
ATOM     20  C   UNL     1      -0.017   1.368   0.010  0.00  0.00    +0.019 A 
ATOM     21  C   UNL     1       1.181   2.045   0.002  0.00  0.00    +0.028 A 
ATOM     22  C   UNL     1       2.343   1.337  -0.013  0.00  0.00    +0.079 A 
ATOM     23  S   UNL     1       1.754  -0.348  -0.017  0.00  0.00    -0.075 S 
ATOM     24  C   UNL     1       0.002  -0.004   0.002  0.00  0.00    +0.046 A 
ATOM     25 CL   UNL     1       3.977   1.922  -0.026  0.00  0.00    -0.076 Cl
ENDBRANCH  15  24
ENDBRANCH  14  17
ENDBRANCH   1  14
TORSDOF 4
