REMARK  Name = ZINC16671401
REMARK  4 active torsions:
REMARK  status: ('A' for Active; 'I' for Inactive)
REMARK    1  A    between atoms: C_2  and  C_13
REMARK    2  A    between atoms: C_6  and  N_7
REMARK    3  A    between atoms: N_14  and  N_15
REMARK    4  A    between atoms: C_18  and  N_29
REMARK                            x       y       z     vdW  Elec       q    Type
REMARK                         _______ _______ _______ _____ _____    ______ ____
ROOT
ATOM      1  N   UNL     1      -1.183  -0.723   0.010  0.00  0.00    -0.222 N 
ATOM      2  C   UNL     1       0.002  -0.004   0.002  0.00  0.00    +0.121 A 
ATOM      3  C   UNL     1       1.228  -0.665  -0.013  0.00  0.00    +0.087 A 
ATOM      4  C   UNL     1       2.391   0.098  -0.020  0.00  0.00    +0.128 A 
ATOM      5  N   UNL     1       2.296   1.426  -0.012  0.00  0.00    -0.201 NA
ATOM      6  C   UNL     1       1.112   2.021   0.002  0.00  0.00    +0.199 A 
ATOM      7  N   UNL     1      -0.016   1.327   0.009  0.00  0.00    -0.315 N 
ATOM      8  N   UNL     1       1.053   3.404   0.010  0.00  0.00    -0.301 N 
ATOM      9  C   UNL     1       1.904   3.965   1.083  0.00  0.00    +0.108 C 
ATOM     10  C   UNL     1       1.666   5.433   1.308  0.00  0.00    +0.019 C 
ATOM     11  C   UNL     1       0.624   5.593   2.434  0.00  0.00    +0.002 C 
ATOM     12  C   UNL     1      -0.737   5.364   1.962  0.00  0.00    +0.002 C 
ATOM     13  C   UNL     1      -0.930   3.935   1.412  0.00  0.00    +0.019 C 
ATOM     14  C   UNL     1      -0.350   3.874   0.025  0.00  0.00    +0.108 C 
ATOM     15  H   UNL     1      -1.160  -1.822   0.004  0.00  0.00    +0.176 HD
ATOM     16  H   UNL     1      -0.976   1.864   0.021  0.00  0.00    +0.170 HD
ENDROOT
BRANCH   4  17
ATOM     17  N   UNL     1       3.634  -0.516  -0.035  0.00  0.00    -0.315 N 
ATOM     18  C   UNL     1       3.736  -1.531   1.037  0.00  0.00    +0.106 C 
ATOM     19  C   UNL     1       5.142  -2.029   1.237  0.00  0.00    +0.019 C 
ATOM     20  C   UNL     1       5.804  -1.191   2.351  0.00  0.00    +0.002 C 
ATOM     21  C   UNL     1       6.249   0.112   1.869  0.00  0.00    +0.002 C 
ATOM     22  C   UNL     1       5.079   0.968   1.340  0.00  0.00    +0.019 C 
ATOM     23  C   UNL     1       4.722   0.488  -0.040  0.00  0.00    +0.106 C 
ENDBRANCH   4  17
BRANCH   1  25
ATOM     24  C   UNL     1      -3.521  -0.721   0.033  0.00  0.00    +0.138 C 
ATOM     25  N   UNL     1      -2.411  -0.048   0.026  0.00  0.00    -0.189 NA
BRANCH  24  27
ATOM     26  C   UNL     1      -4.845   1.385   0.058  0.00  0.00    +0.046 A 
ATOM     27  C   UNL     1      -4.813  -0.011   0.050  0.00  0.00    +0.000 A 
ATOM     28  C   UNL     1      -6.009  -0.734   0.052  0.00  0.00    +0.059 A 
ATOM     29  C   UNL     1      -7.218  -0.064   0.072  0.00  0.00    +0.169 A 
ATOM     30  C   UNL     1      -7.243   1.330   0.080  0.00  0.00    +0.196 A 
ATOM     31  C   UNL     1      -6.055   2.047   0.073  0.00  0.00    +0.172 A 
ATOM     32  O   UNL     1      -8.545   1.742   0.094  0.00  0.00    -0.450 OA
ATOM     33  C   UNL     1      -9.307   0.593   0.508  0.00  0.00    +0.466 C 
ATOM     34  O   UNL     1      -8.504  -0.523   0.081  0.00  0.00    -0.453 OA
BRANCH  31  35
ATOM     35  N   UNL     1      -6.087   3.527   0.081  0.00  0.00    +0.060 N 
ATOM     36  O   UNL     1      -5.045   4.158   0.074  0.00  0.00    -0.126 OA
ATOM     37  O   UNL     1      -7.154   4.113   0.094  0.00  0.00    -0.126 OA
ENDBRANCH  31  35
ENDBRANCH  24  27
ENDBRANCH   1  25
TORSDOF 4
