REMARK  Name = ZINC00168979
REMARK  2 active torsions:
REMARK  status: ('A' for Active; 'I' for Inactive)
REMARK    1  A    between atoms: N_9  and  C_12
REMARK    2  A    between atoms: C_12  and  C_13
REMARK                            x       y       z     vdW  Elec       q    Type
REMARK                         _______ _______ _______ _____ _____    ______ ____
ROOT
ATOM      1  C   UNL     1      -4.317   6.863  -3.678  0.00  0.00    +0.001 A 
ATOM      2  C   UNL     1      -3.585   7.530  -2.713  0.00  0.00    +0.001 A 
ATOM      3  C   UNL     1      -3.148   6.865  -1.579  0.00  0.00    +0.014 A 
ATOM      4  C   UNL     1      -3.446   5.523  -1.411  0.00  0.00    +0.049 A 
ATOM      5  C   UNL     1      -4.192   4.843  -2.394  0.00  0.00    +0.049 A 
ATOM      6  C   UNL     1      -4.624   5.520  -3.523  0.00  0.00    +0.014 A 
ATOM      7  C   UNL     1      -4.328   3.453  -1.910  0.00  0.00    +0.254 C 
ATOM      8  O   UNL     1      -4.910   2.555  -2.485  0.00  0.00    -0.270 OA
ATOM      9  N   UNL     1      -3.699   3.348  -0.725  0.00  0.00    -0.230 N 
ATOM     10  C   UNL     1      -3.158   4.525  -0.359  0.00  0.00    +0.254 C 
ATOM     11  O   UNL     1      -2.536   4.732   0.663  0.00  0.00    -0.270 OA
ENDROOT
BRANCH   9  12
ATOM     12  C   UNL     1      -3.618   2.117   0.065  0.00  0.00    +0.165 C 
BRANCH  12  13
ATOM     13  C   UNL     1      -2.368   1.333  -0.341  0.00  0.00    +0.229 C 
ATOM     14  C   UNL     1      -2.343  -0.015   0.393  0.00  0.00    +0.275 C 
ATOM     15  O   UNL     1      -1.158  -0.716   0.002  0.00  0.00    -0.485 OA
ATOM     16  C   UNL     1       0.002  -0.004   0.002  0.00  0.00    +0.162 A 
ATOM     17  C   UNL     1       1.215  -0.677  -0.009  0.00  0.00    +0.049 A 
ATOM     18  C   UNL     1       2.401   0.032  -0.015  0.00  0.00    +0.004 A 
ATOM     19  C   UNL     1       2.382   1.414  -0.009  0.00  0.00    +0.004 A 
ATOM     20  C   UNL     1       1.177   2.091   0.002  0.00  0.00    +0.049 A 
ATOM     21  C   UNL     1      -0.017   1.385   0.010  0.00  0.00    +0.163 A 
ATOM     22  O   UNL     1      -1.195   2.066   0.030  0.00  0.00    -0.480 OA
ENDBRANCH  12  13
ENDBRANCH   9  12
TORSDOF 2
