REMARK  Name = ZINC14252778
REMARK  8 active torsions:
REMARK  status: ('A' for Active; 'I' for Inactive)
REMARK    1  A    between atoms: C_4  and  C_7
REMARK    2  A    between atoms: C_12  and  O_13
REMARK    3  A    between atoms: O_13  and  C_14
REMARK    4  A    between atoms: C_14  and  C_15
REMARK    5  A    between atoms: N_17  and  N_18
REMARK    6  A    between atoms: C_19  and  C_21
REMARK    7  A    between atoms: C_21  and  C_22
REMARK    8  A    between atoms: C_22  and  N_23
REMARK                            x       y       z     vdW  Elec       q    Type
REMARK                         _______ _______ _______ _____ _____    ______ ____
ROOT
ATOM      1  C   UNL     1       7.175   2.034  -5.132  0.00  0.00    +0.267 C 
ATOM      2  O   UNL     1       6.493   2.544  -5.996  0.00  0.00    -0.271 OA
ATOM      3  N   UNL     1       6.766   2.060  -3.848  0.00  0.00    -0.232 N 
ATOM      4  H   UNL     1       7.312   1.652  -3.157  0.00  0.00    +0.173 HD
ENDROOT
BRANCH   3   5
ATOM      5  N   UNL     1       5.554   2.676  -3.510  0.00  0.00    -0.234 N 
ATOM      6  C   UNL     1       5.146   2.703  -2.226  0.00  0.00    +0.231 C 
ATOM      7  O   UNL     1       5.828   2.193  -1.363  0.00  0.00    -0.274 OA
ATOM      8  H   UNL     1       5.009   3.084  -4.201  0.00  0.00    +0.173 HD
BRANCH   6   9
ATOM      9  C   UNL     1       3.842   3.366  -1.863  0.00  0.00    +0.116 C 
BRANCH   9  10
ATOM     10  C   UNL     1       3.617   3.256  -0.354  0.00  0.00    +0.123 C 
BRANCH  10  11
ATOM     11  N   UNL     1       2.350   3.901  -0.001  0.00  0.00    -0.265 N 
ATOM     12  C   UNL     1       1.156   3.166   0.008  0.00  0.00    +0.078 A 
ATOM     13  C   UNL     1       1.177   1.781   0.000  0.00  0.00    +0.027 A 
ATOM     14  C   UNL     1      -0.013   1.076   0.008  0.00  0.00    +0.002 A 
ATOM     15  C   UNL     1      -1.220   1.749   0.017  0.00  0.00    +0.004 A 
ATOM     16  C   UNL     1      -1.248   3.132   0.031  0.00  0.00    +0.047 A 
ATOM     17  C   UNL     1      -0.062   3.845   0.023  0.00  0.00    +0.142 A 
ATOM     18  O   UNL     1      -0.070   5.204   0.032  0.00  0.00    -0.481 OA
ATOM     19  C   UNL     1       1.006   5.849   0.718  0.00  0.00    +0.325 C 
ATOM     20  C   UNL     1       2.314   5.213   0.321  0.00  0.00    +0.258 C 
ATOM     21  O   UNL     1       3.329   5.875   0.290  0.00  0.00    -0.272 OA
ENDBRANCH  10  11
ENDBRANCH   9  10
ENDBRANCH   6   9
ENDBRANCH   3   5
BRANCH   1  22
ATOM     22  C   UNL     1       8.478   1.371  -5.495  0.00  0.00    +0.326 C 
BRANCH  22  23
ATOM     23  O   UNL     1       8.689   1.473  -6.905  0.00  0.00    -0.482 OA
BRANCH  23  29
ATOM     24  C   UNL     1      10.095   0.979  -8.771  0.00  0.00    +0.024 A 
ATOM     25  C   UNL     1      11.268   0.414  -9.269  0.00  0.00    +0.012 A 
ATOM     26  C   UNL     1      12.152  -0.206  -8.410  0.00  0.00    +0.001 A 
ATOM     27  C   UNL     1      11.881  -0.266  -7.054  0.00  0.00    +0.004 A 
ATOM     28  C   UNL     1      10.724   0.295  -6.549  0.00  0.00    +0.046 A 
ATOM     29  C   UNL     1       9.827   0.921  -7.400  0.00  0.00    +0.129 A 
BRANCH  24  33
ATOM     30  C   UNL     1       7.354   2.881 -11.406  0.00  0.00    +0.000 A 
ATOM     31  C   UNL     1       8.697   3.207 -11.456  0.00  0.00    +0.001 A 
ATOM     32  C   UNL     1       9.592   2.593 -10.603  0.00  0.00    +0.008 A 
ATOM     33  C   UNL     1       9.139   1.643  -9.690  0.00  0.00    -0.014 A 
ATOM     34  C   UNL     1       7.785   1.313  -9.648  0.00  0.00    +0.008 A 
ATOM     35  C   UNL     1       6.899   1.939 -10.501  0.00  0.00    +0.001 A 
ENDBRANCH  24  33
ENDBRANCH  23  29
ENDBRANCH  22  23
ENDBRANCH   1  22
TORSDOF 8
