REMARK  Name = ZINC36206925
REMARK  17 active torsions:
REMARK  status: ('A' for Active; 'I' for Inactive)
REMARK    1  A    between atoms: C_1  and  C_2
REMARK    2  A    between atoms: C_2  and  C_3
REMARK    3  A    between atoms: C_3  and  C_4
REMARK    4  A    between atoms: C_4  and  O_6
REMARK    5  A    between atoms: O_6  and  C_7
REMARK    6  A    between atoms: C_7  and  C_8
REMARK    7  A    between atoms: C_8  and  C_10
REMARK    8  A    between atoms: C_8  and  O_35
REMARK    9  A    between atoms: C_10  and  N_11
REMARK   10  A    between atoms: N_11  and  C_12
REMARK   11  A    between atoms: N_11  and  C_18
REMARK   12  A    between atoms: C_12  and  C_13
REMARK   13  A    between atoms: C_18  and  C_19
REMARK   14  A    between atoms: C_25  and  C_34
REMARK   15  A    between atoms: C_26  and  C_30
REMARK   16  A    between atoms: C_30  and  O_32
REMARK   17  A    between atoms: O_32  and  C_33
REMARK                            x       y       z     vdW  Elec       q    Type
REMARK                         _______ _______ _______ _____ _____    ______ ____
ROOT
ATOM      1  N   UNL     1       2.447  -6.615  -4.655  0.00  0.00    +0.391 N 
ATOM      2  H   UNL     1       1.970  -5.960  -5.256  0.00  0.00    -0.080 HD
ENDROOT
BRANCH   1   3
ATOM      3  C   UNL     1       2.041  -6.385  -3.262  0.00  0.00    -0.043 C 
BRANCH   3   4
ATOM      4  C   UNL     1       2.236  -4.908  -2.911  0.00  0.00    +0.136 C 
BRANCH   4   5
ATOM      5  O   UNL     1       3.633  -4.606  -2.882  0.00  0.00    -0.390 OA
ATOM      6  H   UNL     1       4.133  -5.121  -2.236  0.00  0.00    +0.210 HD
ENDBRANCH   4   5
BRANCH   4   7
ATOM      7  C   UNL     1       1.625  -4.625  -1.537  0.00  0.00    +0.261 C 
BRANCH   7   8
ATOM      8  O   UNL     1       1.703  -3.225  -1.260  0.00  0.00    -0.462 OA
BRANCH   8   9
ATOM      9  C   UNL     1       1.206  -2.808  -0.085  0.00  0.00    +0.307 C 
ATOM     10  O   UNL     1       0.721  -3.605   0.683  0.00  0.00    -0.251 OA
BRANCH   9  11
ATOM     11  C   UNL     1       1.254  -1.346   0.276  0.00  0.00    +0.120 C 
BRANCH  11  13
ATOM     12  C   UNL     1       0.676   0.344   2.024  0.00  0.00    +0.004 C 
ATOM     13  C   UNL     1       0.627  -1.141   1.657  0.00  0.00    +0.008 C 
ENDBRANCH  11  13
ENDBRANCH   9  11
ENDBRANCH   8   9
ENDBRANCH   7   8
ENDBRANCH   4   7
ENDBRANCH   3   4
ENDBRANCH   1   3
BRANCH   1  14
ATOM     14  C   UNL     1       3.899  -6.427  -4.779  0.00  0.00    -0.002 C 
BRANCH  14  15
ATOM     15  C   UNL     1       4.307  -6.610  -6.218  0.00  0.00    +0.089 A 
ATOM     16  C   UNL     1       4.453  -5.627  -7.125  0.00  0.00    +0.042 A 
ATOM     17  C   UNL     1       4.844  -6.243  -8.337  0.00  0.00    +0.041 A 
ATOM     18  C   UNL     1       4.913  -7.565  -8.097  0.00  0.00    +0.195 A 
ATOM     19  O   UNL     1       4.593  -7.780  -6.811  0.00  0.00    -0.470 OA
ENDBRANCH  14  15
ENDBRANCH   1  14
BRANCH   1  20
ATOM     20  C   UNL     1       2.095  -7.986  -5.047  0.00  0.00    -0.003 C 
BRANCH  20  21
ATOM     21  C   UNL     1       0.595  -8.130  -5.078  0.00  0.00    +0.094 A 
ATOM     22  N   UNL     1       0.057  -9.356  -5.292  0.00  0.00    -0.312 N 
ATOM     23  H   UNL     1       0.644 -10.117  -5.422  0.00  0.00    +0.170 HD
ATOM     24  C   UNL     1      -1.278  -9.539  -5.328  0.00  0.00    +0.260 A 
ATOM     25  O   UNL     1      -1.752 -10.644  -5.521  0.00  0.00    -0.267 OA
ATOM     26  C   UNL     1      -2.153  -8.361  -5.127  0.00  0.00    +0.076 A 
ATOM     27  C   UNL     1      -3.547  -8.289  -5.119  0.00  0.00    -0.015 A 
ATOM     28  C   UNL     1      -4.164  -7.089  -4.913  0.00  0.00    +0.102 A 
ATOM     29  S   UNL     1      -2.790  -5.968  -4.715  0.00  0.00    -0.062 S 
ATOM     30  C   UNL     1      -1.472  -7.141  -4.914  0.00  0.00    +0.116 A 
ATOM     31  N   UNL     1      -0.147  -7.073  -4.893  0.00  0.00    -0.229 NA
ATOM     32  C   UNL     1      -4.369  -9.534  -5.337  0.00  0.00    +0.046 C 
BRANCH  28  33
ATOM     33  C   UNL     1      -5.598  -6.795  -4.867  0.00  0.00    +0.346 C 
ATOM     34  O   UNL     1      -6.408  -7.689  -5.024  0.00  0.00    -0.244 OA
BRANCH  33  35
ATOM     35  O   UNL     1      -6.020  -5.532  -4.649  0.00  0.00    -0.464 OA
ATOM     36  C   UNL     1      -7.433  -5.317  -4.616  0.00  0.00    +0.280 C 
ENDBRANCH  33  35
ENDBRANCH  28  33
ENDBRANCH  20  21
ENDBRANCH   1  20
TORSDOF 14
