REMARK  Name = ZINC22577375
REMARK  6 active torsions:
REMARK  status: ('A' for Active; 'I' for Inactive)
REMARK    1  A    between atoms: C_1  and  N_2
REMARK    2  A    between atoms: N_5  and  C_8
REMARK    3  A    between atoms: C_8  and  C_10
REMARK    4  A    between atoms: C_8  and  C_17
REMARK    5  A    between atoms: C_18  and  O_30
REMARK    6  A    between atoms: C_23  and  C_25
REMARK                            x       y       z     vdW  Elec       q    Type
REMARK                         _______ _______ _______ _____ _____    ______ ____
ROOT
ATOM      1  C   UNL     1       1.453  -3.974  -0.034  0.00  0.00    +0.129 C 
ENDROOT
BRANCH   1   6
ATOM      2  C   UNL     1       1.800   1.474  -1.429  0.00  0.00    -0.096 C 
ATOM      3  N   UNL     1       1.855   0.006  -1.399  0.00  0.00    +0.379 N 
ATOM      4  C   UNL     1       2.701  -0.429  -0.280  0.00  0.00    -0.064 C 
ATOM      5  C   UNL     1       2.775  -1.957  -0.260  0.00  0.00    +0.067 C 
ATOM      6  N   UNL     1       1.420  -2.508  -0.115  0.00  0.00    -0.295 NA
ATOM      7  C   UNL     1       0.554  -2.060  -1.215  0.00  0.00    +0.067 C 
ATOM      8  C   UNL     1       0.499  -0.531  -1.227  0.00  0.00    -0.064 C 
ATOM      9  H   UNL     1       2.244  -0.333  -2.266  0.00  0.00    -0.082 HD
ENDBRANCH   1   6
BRANCH   1  10
ATOM     10  C   UNL     1       0.048  -4.502   0.100  0.00  0.00    +0.076 A 
ATOM     11  C   UNL     1      -0.581  -5.424  -0.638  0.00  0.00    +0.228 A 
ATOM     12  N   UNL     1      -1.878  -5.780  -0.359  0.00  0.00    -0.173 N 
ATOM     13  C   UNL     1      -2.484  -5.152   0.695  0.00  0.00    +0.200 A 
ATOM     14  S   UNL     1      -1.210  -4.066   1.291  0.00  0.00    -0.047 S 
ATOM     15  N   UNL     1      -3.702  -5.596   0.830  0.00  0.00    -0.197 NA
ATOM     16  C   UNL     1      -3.945  -6.517  -0.112  0.00  0.00    +0.218 A 
ATOM     17  N   UNL     1      -2.871  -6.663  -0.857  0.00  0.00    -0.138 NA
BRANCH  16  18
ATOM     18  C   UNL     1      -5.216  -7.250  -0.287  0.00  0.00    +0.173 A 
ATOM     19  C   UNL     1      -6.334  -7.102   0.473  0.00  0.00    +0.053 A 
ATOM     20  C   UNL     1      -7.297  -7.991  -0.044  0.00  0.00    +0.042 A 
ATOM     21  C   UNL     1      -6.726  -8.632  -1.083  0.00  0.00    +0.196 A 
ATOM     22  O   UNL     1      -5.471  -8.178  -1.230  0.00  0.00    -0.460 OA
ENDBRANCH  16  18
BRANCH  11  23
ATOM     23  O   UNL     1       0.071  -6.016  -1.675  0.00  0.00    -0.492 OA
ATOM     24  H   UNL     1      -0.459  -6.668  -2.152  0.00  0.00    +0.294 HD
ENDBRANCH  11  23
ENDBRANCH   1  10
BRANCH   1  25
ATOM     25  C   UNL     1       2.264  -4.393   1.165  0.00  0.00    -0.025 A 
ATOM     26  C   UNL     1       2.064  -3.773   2.385  0.00  0.00    +0.008 A 
ATOM     27  C   UNL     1       2.807  -4.156   3.485  0.00  0.00    +0.038 A 
ATOM     28  C   UNL     1       3.751  -5.162   3.366  0.00  0.00    +0.123 A 
ATOM     29  C   UNL     1       3.950  -5.782   2.145  0.00  0.00    +0.038 A 
ATOM     30  C   UNL     1       3.203  -5.401   1.047  0.00  0.00    +0.008 A 
ATOM     31  F   UNL     1       4.478  -5.537   4.442  0.00  0.00    -0.205 F 
ENDBRANCH   1  25
TORSDOF 5
