REMARK  Name = ZINC08450412
REMARK  7 active torsions:
REMARK  status: ('A' for Active; 'I' for Inactive)
REMARK    1  A    between atoms: C_1  and  C_2
REMARK    2  A    between atoms: C_2  and  C_32
REMARK    3  A    between atoms: C_4  and  N_9
REMARK    4  A    between atoms: C_6  and  C_7
REMARK    5  A    between atoms: C_6  and  C_8
REMARK    6  A    between atoms: C_10  and  C_11
REMARK    7  A    between atoms: C_12  and  C_26
REMARK                            x       y       z     vdW  Elec       q    Type
REMARK                         _______ _______ _______ _____ _____    ______ ____
ROOT
ATOM      1  C   UNL     1      -1.266   6.186  -0.067  0.00  0.00    +0.168 C 
ATOM      2  C   UNL     1      -0.068   5.325  -0.006  0.00  0.00    +0.084 C 
ATOM      3  N   UNL     1       0.971   6.114   0.085  0.00  0.00    -0.174 NA
ATOM      4  N   UNL     1       0.563   7.449   0.081  0.00  0.00    -0.135 N 
ATOM      5  C   UNL     1      -0.779   7.522  -0.007  0.00  0.00    +0.255 C 
ATOM      6  O   UNL     1      -1.450   8.540  -0.030  0.00  0.00    -0.272 OA
ATOM      7  C   UNL     1       1.415   8.541   0.161  0.00  0.00    +0.189 A 
ATOM      8  N   UNL     1       2.724   8.559   0.248  0.00  0.00    -0.223 NA
ATOM      9  C   UNL     1       3.431   9.707   0.318  0.00  0.00    +0.080 A 
ATOM     10  C   UNL     1       4.834   9.865   0.414  0.00  0.00    +0.029 A 
ATOM     11  C   UNL     1       5.395  11.113   0.478  0.00  0.00    +0.002 A 
ATOM     12  C   UNL     1       4.616  12.261   0.450  0.00  0.00    +0.001 A 
ATOM     13  C   UNL     1       3.241  12.145   0.356  0.00  0.00    +0.017 A 
ATOM     14  C   UNL     1       2.670  10.898   0.293  0.00  0.00    +0.041 A 
ATOM     15  S   UNL     1       1.008  10.282   0.163  0.00  0.00    -0.050 S 
ENDROOT
BRANCH   2  16
ATOM     16  C   UNL     1      -0.047   3.844  -0.035  0.00  0.00    -0.001 A 
ATOM     17  C   UNL     1      -0.018   3.120   1.157  0.00  0.00    +0.010 A 
ATOM     18  C   UNL     1       0.002   1.741   1.124  0.00  0.00    +0.001 A 
ATOM     19  C   UNL     1      -0.007   1.075  -0.089  0.00  0.00    +0.000 A 
ATOM     20  C   UNL     1      -0.031   1.788  -1.275  0.00  0.00    +0.001 A 
ATOM     21  C   UNL     1      -0.057   3.167  -1.254  0.00  0.00    +0.010 A 
ENDBRANCH   2  16
BRANCH   1  23
ATOM     22  N   UNL     1      -2.892   4.468  -0.092  0.00  0.00    -0.291 NA
ATOM     23  C   UNL     1      -2.583   5.780  -0.163  0.00  0.00    +0.097 C 
BRANCH  22  27
ATOM     24  C   UNL     1      -6.257   2.687  -2.304  0.00  0.00    -0.010 C 
ATOM     25  C   UNL     1      -5.697   2.083  -1.010  0.00  0.00    -0.071 C 
ATOM     26  C   UNL     1      -4.269   2.576  -0.793  0.00  0.00    +0.014 C 
ATOM     27  C   UNL     1      -4.275   4.027  -0.313  0.00  0.00    +0.102 C 
ATOM     28  C   UNL     1      -5.043   4.099   1.006  0.00  0.00    +0.014 C 
ATOM     29  C   UNL     1      -6.480   3.623   0.812  0.00  0.00    -0.071 C 
ATOM     30  C   UNL     1      -7.287   4.710   0.091  0.00  0.00    -0.010 C 
ATOM     31  C   UNL     1      -7.104   3.444   2.214  0.00  0.00    -0.010 C 
ATOM     32  C   UNL     1      -5.636   0.552  -1.210  0.00  0.00    -0.010 C 
ATOM     33  N   UNL     1      -6.618   2.305   0.137  0.00  0.00    +0.386 N 
ATOM     34  H   UNL     1      -6.441   1.571   0.833  0.00  0.00    -0.084 HD
ATOM     35  H   UNL     1      -7.582   2.224  -0.209  0.00  0.00    -0.084 HD
ENDBRANCH  22  27
ENDBRANCH   1  23
TORSDOF 3
