REMARK  Name = ZINC14546648
REMARK  3 active torsions:
REMARK  status: ('A' for Active; 'I' for Inactive)
REMARK    1  A    between atoms: C_4  and  C_8
REMARK    2  A    between atoms: C_19  and  N_25
REMARK    3  A    between atoms: C_21  and  O_24
REMARK                            x       y       z     vdW  Elec       q    Type
REMARK                         _______ _______ _______ _____ _____    ______ ____
ROOT
ATOM      1  C   UNL     1      -1.264   3.493   0.114  0.00  0.00    +0.108 C 
ATOM      2  C   UNL     1      -0.117   3.938  -0.768  0.00  0.00    +0.029 C 
ATOM      3  C   UNL     1       0.184   5.437  -0.823  0.00  0.00    +0.033 C 
ATOM      4  C   UNL     1       1.685   5.419  -1.126  0.00  0.00    -0.030 C 
ATOM      5  C   UNL     1       2.226   4.297  -0.666  0.00  0.00    -0.023 C 
ATOM      6  C   UNL     1       1.167   3.502   0.004  0.00  0.00    +0.049 C 
ATOM      7  C   UNL     1       1.172   2.023   0.021  0.00  0.00    -0.014 A 
ATOM      8  C   UNL     1       2.348   1.300  -0.005  0.00  0.00    +0.039 A 
ATOM      9  C   UNL     1       2.326  -0.080   0.046  0.00  0.00    +0.130 A 
ATOM     10  C   UNL     1       1.115  -0.743   0.125  0.00  0.00    +0.080 A 
ATOM     11  C   UNL     1      -0.067  -0.030   0.145  0.00  0.00    +0.140 A 
ATOM     12  C   UNL     1      -0.059   1.369   0.086  0.00  0.00    +0.074 A 
ATOM     13  N   UNL     1      -1.293   2.022   0.075  0.00  0.00    -0.334 N 
ATOM     14  H   UNL     1      -1.870   1.692  -0.685  0.00  0.00    +0.147 HD
ENDROOT
BRANCH   1  18
ATOM     15  C   UNL     1      -4.946   5.064  -1.380  0.00  0.00    +0.003 A 
ATOM     16  C   UNL     1      -4.249   4.123  -2.113  0.00  0.00    +0.020 A 
ATOM     17  C   UNL     1      -3.057   3.614  -1.630  0.00  0.00    +0.047 A 
ATOM     18  C   UNL     1      -2.562   4.047  -0.413  0.00  0.00    +0.010 A 
ATOM     19  C   UNL     1      -3.264   4.985   0.323  0.00  0.00    +0.047 A 
ATOM     20  C   UNL     1      -4.453   5.498  -0.164  0.00  0.00    +0.020 A 
ATOM     21 CL   UNL     1      -2.648   5.524   1.855  0.00  0.00    -0.083 Cl
ATOM     22 CL   UNL     1      -2.180   2.432  -2.552  0.00  0.00    -0.083 Cl
ENDBRANCH   1  18
BRANCH   9  23
ATOM     23  N   UNL     1       3.593  -0.845   0.017  0.00  0.00    +0.057 N 
ATOM     24  O   UNL     1       3.570  -2.062   0.063  0.00  0.00    -0.126 OA
ATOM     25  O   UNL     1       4.657  -0.258  -0.052  0.00  0.00    -0.126 OA
ENDBRANCH   9  23
BRANCH  11  26
ATOM     26  O   UNL     1      -1.252  -0.693   0.224  0.00  0.00    -0.505 OA
ATOM     27  H   UNL     1      -1.632  -0.922  -0.635  0.00  0.00    +0.292 HD
ENDBRANCH  11  26
TORSDOF 3
