REMARK  Name = ZINC28464909
REMARK  5 active torsions:
REMARK  status: ('A' for Active; 'I' for Inactive)
REMARK    1  A    between atoms: C_1  and  C_2
REMARK    2  A    between atoms: C_4  and  C_7
REMARK    3  A    between atoms: C_8  and  C_18
REMARK    4  A    between atoms: C_12  and  C_13
REMARK    5  A    between atoms: C_23  and  O_24
REMARK                            x       y       z     vdW  Elec       q    Type
REMARK                         _______ _______ _______ _____ _____    ______ ____
ROOT
ATOM      1  C   UNL     1       3.739   2.049   0.247  0.00  0.00    +0.057 A 
ATOM      2  C   UNL     1       2.599   1.289   0.580  0.00  0.00    +0.089 A 
ATOM      3  N   UNL     1       2.591  -0.012   0.297  0.00  0.00    -0.214 NA
ATOM      4  C   UNL     1       3.628  -0.582  -0.295  0.00  0.00    +0.214 A 
ATOM      5  N   UNL     1       4.715   0.104  -0.621  0.00  0.00    -0.210 NA
ATOM      6  C   UNL     1       4.806   1.399  -0.371  0.00  0.00    +0.158 A 
ATOM      7  N   UNL     1       3.579  -1.936  -0.578  0.00  0.00    -0.327 N 
ATOM      8  H   UNL     1       4.432  -2.427  -1.070  0.00  0.00    +0.145 HD
ATOM      9  H   UNL     1       2.687  -2.522  -0.311  0.00  0.00    +0.145 HD
ENDROOT
BRANCH   2  10
ATOM     10  C   UNL     1       1.436   1.924   1.237  0.00  0.00    +0.046 A 
ATOM     11  C   UNL     1       1.621   2.722   2.368  0.00  0.00    +0.017 A 
ATOM     12  C   UNL     1       0.537   3.313   2.982  0.00  0.00    +0.050 A 
ATOM     13  C   UNL     1      -0.740   3.118   2.475  0.00  0.00    +0.166 A 
ATOM     14  C   UNL     1      -0.934   2.332   1.349  0.00  0.00    +0.204 A 
ATOM     15  C   UNL     1       0.147   1.726   0.727  0.00  0.00    +0.172 A 
ATOM     16  O   UNL     1      -2.198   2.146   0.866  0.00  0.00    -0.485 OA
ATOM     17  C   UNL     1      -3.080   1.378   1.687  0.00  0.00    +0.232 C 
ATOM     18  C   UNL     1      -3.733   2.255   2.743  0.00  0.00    +0.082 C 
ATOM     19  C   UNL     1      -2.725   2.817   3.733  0.00  0.00    +0.232 C 
ATOM     20  O   UNL     1      -1.814   3.703   3.080  0.00  0.00    -0.488 OA
BRANCH  15  21
ATOM     21  O   UNL     1      -0.042   0.951  -0.373  0.00  0.00    -0.503 OA
ATOM     22  H   UNL     1      -1.056   0.798  -0.770  0.00  0.00    +0.292 HD
ENDBRANCH  15  21
ENDBRANCH   2  10
BRANCH   1  26
ATOM     23  C   UNL     1       5.939   6.051   2.250  0.00  0.00    +0.073 C 
ATOM     24  C   UNL     1       4.875   5.296   1.496  0.00  0.00    +0.076 A 
ATOM     25  N   UNL     1       4.813   4.014   1.227  0.00  0.00    -0.244 NA
ATOM     26  C   UNL     1       3.800   3.500   0.547  0.00  0.00    +0.082 A 
ATOM     27  C   UNL     1       2.814   4.351   0.124  0.00  0.00    +0.075 A 
ATOM     28  S   UNL     1       3.422   5.904   0.765  0.00  0.00    -0.080 S 
ENDBRANCH   1  26
BRANCH   6  29
ATOM     29  C   UNL     1       6.049   2.164  -0.749  0.00  0.00    +0.435 C 
ATOM     30  F   UNL     1       6.715   2.575   0.411  0.00  0.00    -0.164 F 
ATOM     31  F   UNL     1       6.892   1.340  -1.503  0.00  0.00    -0.164 F 
ATOM     32  F   UNL     1       5.694   3.286  -1.505  0.00  0.00    -0.164 F 
ENDBRANCH   6  29
TORSDOF 4
