REMARK  Name = ZINC35667518
REMARK  10 active torsions:
REMARK  status: ('A' for Active; 'I' for Inactive)
REMARK    1  A    between atoms: C_1  and  N_2
REMARK    2  A    between atoms: N_2  and  C_3
REMARK    3  A    between atoms: N_2  and  C_4
REMARK    4  A    between atoms: C_4  and  C_5
REMARK    5  A    between atoms: C_5  and  N_6
REMARK    6  A    between atoms: N_6  and  C_7
REMARK    7  A    between atoms: C_7  and  C_8
REMARK    8  A    between atoms: N_10  and  C_11
REMARK    9  A    between atoms: C_13  and  C_24
REMARK   10  A    between atoms: N_15  and  C_16
REMARK                            x       y       z     vdW  Elec       q    Type
REMARK                         _______ _______ _______ _____ _____    ______ ____
ROOT
ATOM      1  C   UNL     1      -6.411  -4.174  -0.107  0.00  0.00    +0.239 A 
ATOM      2  N   UNL     1      -6.764  -5.438  -0.198  0.00  0.00    -0.210 NA
ATOM      3  C   UNL     1      -8.108  -5.527  -0.154  0.00  0.00    +0.091 A 
ATOM      4  C   UNL     1      -8.612  -4.271  -0.032  0.00  0.00    +0.123 A 
ATOM      5  N   UNL     1      -7.543  -3.413   0.004  0.00  0.00    -0.284 N 
ENDROOT
BRANCH   5   6
ATOM      6  C   UNL     1      -7.599  -2.017   0.129  0.00  0.00    +0.051 A 
ATOM      7  C   UNL     1      -6.814  -1.372   1.075  0.00  0.00    +0.029 A 
ATOM      8  C   UNL     1      -6.870   0.003   1.197  0.00  0.00    +0.042 A 
ATOM      9  C   UNL     1      -7.708   0.738   0.376  0.00  0.00    +0.142 A 
ATOM     10  C   UNL     1      -8.492   0.096  -0.570  0.00  0.00    +0.078 A 
ATOM     11  C   UNL     1      -8.434  -1.279  -0.698  0.00  0.00    +0.049 A 
ATOM     12 CL   UNL     1      -9.543   1.020  -1.597  0.00  0.00    -0.081 Cl
ATOM     13  F   UNL     1      -7.762   2.082   0.496  0.00  0.00    -0.204 F 
ENDBRANCH   5   6
BRANCH   3  14
ATOM     14  C   UNL     1      -8.900  -6.779  -0.228  0.00  0.00    +0.002 A 
ATOM     15  C   UNL     1     -10.292  -6.731  -0.177  0.00  0.00    +0.010 A 
ATOM     16  C   UNL     1     -11.023  -7.899  -0.246  0.00  0.00    +0.001 A 
ATOM     17  C   UNL     1     -10.378  -9.116  -0.365  0.00  0.00    +0.000 A 
ATOM     18  C   UNL     1      -8.996  -9.171  -0.416  0.00  0.00    +0.001 A 
ATOM     19  C   UNL     1      -8.255  -8.008  -0.353  0.00  0.00    +0.010 A 
ENDBRANCH   3  14
BRANCH   1  22
ATOM     20  C   UNL     1      -4.133  -4.530  -0.229  0.00  0.00    +0.232 C 
ATOM     21  O   UNL     1      -4.364  -5.853  -0.336  0.00  0.00    -0.273 OA
ATOM     22  N   UNL     1      -5.132  -3.702  -0.117  0.00  0.00    -0.178 NA
BRANCH  20  23
ATOM     23  C   UNL     1      -2.720  -4.008  -0.240  0.00  0.00    +0.020 C 
BRANCH  23  24
ATOM     24  N   UNL     1      -2.737  -2.545  -0.111  0.00  0.00    +0.384 N 
ATOM     25  H   UNL     1      -3.183  -2.289   0.757  0.00  0.00    -0.085 HD
ATOM     26  H   UNL     1      -3.248  -2.145  -0.883  0.00  0.00    -0.085 HD
BRANCH  24  27
ATOM     27  C   UNL     1      -1.358  -2.037  -0.122  0.00  0.00    -0.101 C 
BRANCH  27  28
ATOM     28  C   UNL     1      -1.376  -0.512   0.012  0.00  0.00    -0.099 C 
BRANCH  28  30
ATOM     29  C   UNL     1      -0.018   1.465   0.010  0.00  0.00    -0.097 C 
ATOM     30  N   UNL     1       0.002  -0.004   0.002  0.00  0.00    +0.375 N 
ATOM     31  C   UNL     1       0.713  -0.491   1.192  0.00  0.00    -0.097 C 
ATOM     32  H   UNL     1       0.474  -0.330  -0.828  0.00  0.00    -0.083 HD
ENDBRANCH  28  30
ENDBRANCH  27  28
ENDBRANCH  24  27
ENDBRANCH  23  24
ENDBRANCH  20  23
ENDBRANCH   1  22
TORSDOF 8
