REMARK  Name = ZINC63533340
REMARK  7 active torsions:
REMARK  status: ('A' for Active; 'I' for Inactive)
REMARK    1  A    between atoms: C_1  and  O_2
REMARK    2  A    between atoms: O_2  and  C_3
REMARK    3  A    between atoms: C_6  and  C_9
REMARK    4  A    between atoms: C_11  and  C_15
REMARK    5  A    between atoms: N_17  and  C_18
REMARK    6  A    between atoms: C_18  and  C_19
REMARK    7  A    between atoms: C_19  and  C_20
REMARK                            x       y       z     vdW  Elec       q    Type
REMARK                         _______ _______ _______ _____ _____    ______ ____
ROOT
ATOM      1  C   UNL     1      -6.997  -4.997  -1.180  0.00  0.00    +0.249 C 
ATOM      2  O   UNL     1      -7.734  -4.497  -2.002  0.00  0.00    -0.273 OA
ATOM      3  N   UNL     1      -6.528  -6.247  -1.367  0.00  0.00    -0.313 N 
ATOM      4  H   UNL     1      -5.938  -6.647  -0.709  0.00  0.00    +0.149 HD
ENDROOT
BRANCH   1   7
ATOM      5  C   UNL     1      -4.961  -2.619   0.037  0.00  0.00    +0.068 C 
ATOM      6  C   UNL     1      -5.120  -3.940   0.042  0.00  0.00    +0.044 C 
ATOM      7  C   UNL     1      -6.604  -4.221   0.051  0.00  0.00    +0.259 C 
ATOM      8  O   UNL     1      -7.235  -2.933   0.051  0.00  0.00    -0.257 OA
ATOM      9  N   UNL     1      -6.192  -1.975   0.048  0.00  0.00    -0.264 N 
ATOM     10  H   UNL     1      -6.319  -1.013   0.051  0.00  0.00    +0.194 HD
BRANCH   5  14
ATOM     11  C   UNL     1      -1.200  -0.637   0.010  0.00  0.00    +0.120 A 
ATOM     12  C   UNL     1      -2.374   0.105   0.020  0.00  0.00    +0.046 A 
ATOM     13  C   UNL     1      -3.595  -0.535   0.028  0.00  0.00    +0.013 A 
ATOM     14  C   UNL     1      -3.651  -1.929   0.027  0.00  0.00    +0.000 A 
ATOM     15  C   UNL     1      -2.470  -2.671   0.017  0.00  0.00    +0.013 A 
ATOM     16  C   UNL     1      -1.252  -2.025   0.003  0.00  0.00    +0.046 A 
BRANCH  11  18
ATOM     17  C   UNL     1      -0.017   1.425   0.010  0.00  0.00    +0.277 C 
ATOM     18  O   UNL     1       0.002  -0.004   0.002  0.00  0.00    -0.495 OA
ENDBRANCH  11  18
ENDBRANCH   5  14
ENDBRANCH   1   7
BRANCH   3  19
ATOM     19  C   UNL     1      -6.909  -7.001  -2.563  0.00  0.00    +0.108 C 
BRANCH  19  20
ATOM     20  C   UNL     1      -6.246  -8.379  -2.530  0.00  0.00    +0.052 C 
BRANCH  20  21
ATOM     21  C   UNL     1      -6.638  -9.155  -3.761  0.00  0.00    -0.040 C 
ATOM     22  C   UNL     1      -5.942  -9.252  -4.917  0.00  0.00    +0.002 A 
ATOM     23  C   UNL     1      -4.661  -8.687  -5.357  0.00  0.00    +0.048 A 
ATOM     24  C   UNL     1      -4.211  -8.970  -6.602  0.00  0.00    +0.124 A 
ATOM     25  C   UNL     1      -4.939  -9.788  -7.481  0.00  0.00    +0.040 A 
ATOM     26  C   UNL     1      -6.123 -10.343  -7.147  0.00  0.00    +0.029 A 
ATOM     27  C   UNL     1      -6.689 -10.112  -5.863  0.00  0.00    +0.043 A 
ATOM     28  N   UNL     1      -7.804 -10.530  -5.313  0.00  0.00    -0.380 N 
ATOM     29  C   UNL     1      -7.886  -9.987  -3.952  0.00  0.00    +0.144 C 
ATOM     30  F   UNL     1      -3.033  -8.450  -7.010  0.00  0.00    -0.205 F 
ATOM     31  H   UNL     1      -8.462 -11.105  -5.734  0.00  0.00    +0.160 HD
ENDBRANCH  20  21
ENDBRANCH  19  20
ENDBRANCH   3  19
TORSDOF 6
