REMARK  Name = ZINC03669546
REMARK  7 active torsions:
REMARK  status: ('A' for Active; 'I' for Inactive)
REMARK    1  A    between atoms: C_4  and  C_7
REMARK    2  A    between atoms: C_7  and  C_9
REMARK    3  A    between atoms: C_10  and  N_31
REMARK    4  A    between atoms: N_13  and  C_25
REMARK    5  A    between atoms: C_14  and  C_16
REMARK    6  A    between atoms: C_20  and  N_22
REMARK    7  A    between atoms: N_31  and  C_32
REMARK                            x       y       z     vdW  Elec       q    Type
REMARK                         _______ _______ _______ _____ _____    ______ ____
ROOT
ATOM      1  C   UNL     1       5.358  -1.354  -0.039  0.00  0.00    +0.051 C 
ATOM      2  C   UNL     1       4.565  -2.362  -0.490  0.00  0.00    +0.103 C 
ATOM      3  C   UNL     1       3.176  -1.869  -0.606  0.00  0.00    +0.266 C 
ATOM      4  O   UNL     1       2.230  -2.531  -0.983  0.00  0.00    -0.268 OA
ATOM      5  N   UNL     1       3.114  -0.578  -0.232  0.00  0.00    -0.255 N 
ATOM      6  C   UNL     1       4.466  -0.149   0.145  0.00  0.00    +0.148 C 
ENDROOT
BRANCH   6   7
ATOM      7  C   UNL     1       4.486   0.292   1.586  0.00  0.00    -0.020 A 
ATOM      8  C   UNL     1       3.821  -0.450   2.545  0.00  0.00    +0.006 A 
ATOM      9  C   UNL     1       3.840  -0.046   3.867  0.00  0.00    +0.003 A 
ATOM     10  C   UNL     1       4.523   1.100   4.230  0.00  0.00    +0.033 A 
ATOM     11  C   UNL     1       5.188   1.842   3.271  0.00  0.00    +0.127 A 
ATOM     12  C   UNL     1       5.174   1.434   1.950  0.00  0.00    +0.038 A 
BRANCH  11  13
ATOM     13  N   UNL     1       5.919   3.068   3.659  0.00  0.00    +0.056 N 
ATOM     14  O   UNL     1       6.015   3.373   4.835  0.00  0.00    -0.126 OA
ATOM     15  O   UNL     1       6.424   3.773   2.804  0.00  0.00    -0.126 OA
ENDBRANCH  11  13
ENDBRANCH   6   7
BRANCH   5  16
ATOM     16  C   UNL     1       1.965   0.217  -0.213  0.00  0.00    +0.038 A 
ATOM     17  C   UNL     1       0.743  -0.316  -0.603  0.00  0.00    +0.023 A 
ATOM     18  C   UNL     1      -0.391   0.472  -0.583  0.00  0.00    +0.002 A 
ATOM     19  C   UNL     1      -0.311   1.791  -0.173  0.00  0.00    +0.000 A 
ATOM     20  C   UNL     1       0.904   2.325   0.216  0.00  0.00    +0.002 A 
ATOM     21  C   UNL     1       2.042   1.542   0.197  0.00  0.00    +0.023 A 
ENDBRANCH   5  16
BRANCH   1  22
ATOM     22  C   UNL     1       6.796  -1.422   0.214  0.00  0.00    +0.193 C 
ATOM     23  O   UNL     1       7.228  -2.160   1.080  0.00  0.00    -0.287 OA
BRANCH  22  27
ATOM     24  C   UNL     1       9.469   0.958  -2.075  0.00  0.00    +0.000 A 
ATOM     25  C   UNL     1       9.949   0.211  -1.014  0.00  0.00    +0.001 A 
ATOM     26  C   UNL     1       9.086  -0.564  -0.267  0.00  0.00    +0.012 A 
ATOM     27  C   UNL     1       7.727  -0.593  -0.583  0.00  0.00    +0.022 A 
ATOM     28  C   UNL     1       7.250   0.160  -1.658  0.00  0.00    +0.012 A 
ATOM     29  C   UNL     1       8.122   0.935  -2.394  0.00  0.00    +0.001 A 
ENDBRANCH  22  27
ENDBRANCH   1  22
BRANCH   2  30
ATOM     30  N   UNL     1       4.987  -3.637  -0.790  0.00  0.00    -0.310 N 
ATOM     31  H   UNL     1       5.684  -3.774  -1.452  0.00  0.00    +0.152 HD
BRANCH  30  32
ATOM     32  C   UNL     1       4.413  -4.733  -0.144  0.00  0.00    +0.031 A 
ATOM     33  C   UNL     1       3.535  -4.536   0.915  0.00  0.00    +0.023 A 
ATOM     34  C   UNL     1       2.966  -5.622   1.549  0.00  0.00    +0.002 A 
ATOM     35  C   UNL     1       3.276  -6.906   1.138  0.00  0.00    +0.000 A 
ATOM     36  C   UNL     1       4.154  -7.106   0.088  0.00  0.00    +0.002 A 
ATOM     37  C   UNL     1       4.723  -6.024  -0.554  0.00  0.00    +0.023 A 
ENDBRANCH  30  32
ENDBRANCH   2  30
TORSDOF 7
