REMARK  Name = ZINC39637225
REMARK  6 active torsions:
REMARK  status: ('A' for Active; 'I' for Inactive)
REMARK    1  A    between atoms: C_1  and  C_2
REMARK    2  A    between atoms: C_7  and  N_12
REMARK    3  A    between atoms: C_9  and  C_11
REMARK    4  A    between atoms: C_13  and  C_15
REMARK    5  A    between atoms: C_26  and  C_28
REMARK    6  A    between atoms: C_32  and  C_34
REMARK                            x       y       z     vdW  Elec       q    Type
REMARK                         _______ _______ _______ _____ _____    ______ ____
ROOT
ATOM      1  C   UNL     1       3.121  -4.034   3.113  0.00  0.00    +0.100 C 
ATOM      2  C   UNL     1       4.303  -3.225   3.692  0.00  0.00    +0.121 C 
ATOM      3  N   UNL     1       5.249  -4.250   4.192  0.00  0.00    -0.296 N 
ATOM      4  C   UNL     1       5.201  -5.324   3.171  0.00  0.00    +0.115 C 
ATOM      5  C   UNL     1       3.715  -5.411   2.771  0.00  0.00    -0.004 C 
ATOM      6  C   UNL     1       3.587  -5.685   1.276  0.00  0.00    -0.010 C 
ATOM      7  C   UNL     1       4.131  -7.083   0.969  0.00  0.00    -0.082 C 
ATOM      8  N   UNL     1       3.378  -8.083   1.737  0.00  0.00    +0.379 N 
ATOM      9  C   UNL     1       3.582  -7.868   3.175  0.00  0.00    -0.082 C 
ATOM     10  C   UNL     1       3.015  -6.503   3.574  0.00  0.00    -0.010 C 
ATOM     11  C   UNL     1       5.987  -4.214   5.319  0.00  0.00    +0.247 C 
ATOM     12  O   UNL     1       5.834  -3.309   6.117  0.00  0.00    -0.270 OA
ATOM     13  H   UNL     1       2.396  -8.000   1.522  0.00  0.00    -0.086 HD
ATOM     14  H   UNL     1       3.698  -9.007   1.488  0.00  0.00    -0.086 HD
ENDROOT
BRANCH  11  15
ATOM     15  C   UNL     1       6.980  -5.274   5.586  0.00  0.00    +0.038 A 
ATOM     16  C   UNL     1       7.489  -6.038   4.534  0.00  0.00    +0.016 A 
ATOM     17  C   UNL     1       8.416  -7.026   4.788  0.00  0.00    +0.039 A 
ATOM     18  C   UNL     1       8.843  -7.261   6.086  0.00  0.00    +0.135 A 
ATOM     19  C   UNL     1       8.342  -6.506   7.135  0.00  0.00    +0.091 A 
ATOM     20  C   UNL     1       7.418  -5.511   6.890  0.00  0.00    +0.028 A 
ATOM     21  F   UNL     1       9.752  -8.231   6.330  0.00  0.00    -0.205 F 
BRANCH  19  22
ATOM     22  C   UNL     1       8.810  -6.768   8.543  0.00  0.00    +0.420 C 
ATOM     23  F   UNL     1       8.168  -5.886   9.419  0.00  0.00    -0.166 F 
ATOM     24  F   UNL     1       8.504  -8.085   8.899  0.00  0.00    -0.166 F 
ATOM     25  F   UNL     1      10.194  -6.574   8.617  0.00  0.00    -0.166 F 
ENDBRANCH  19  22
ENDBRANCH  11  15
BRANCH   1  27
ATOM     26  N   UNL     1       1.294  -3.515   1.529  0.00  0.00    -0.312 N 
ATOM     27  C   UNL     1       2.589  -3.369   1.869  0.00  0.00    +0.218 C 
ATOM     28  O   UNL     1       3.327  -2.702   1.175  0.00  0.00    -0.275 OA
ATOM     29  H   UNL     1       0.703  -4.048   2.084  0.00  0.00    +0.149 HD
BRANCH  26  35
ATOM     30  C   UNL     1      -2.776  -1.744  -0.650  0.00  0.00    +0.008 C 
ATOM     31  C   UNL     1      -1.270  -1.968  -0.796  0.00  0.00    -0.009 C 
ATOM     32  C   UNL     1      -1.002  -2.864  -2.008  0.00  0.00    +0.003 C 
ATOM     33  C   UNL     1       0.504  -3.088  -2.154  0.00  0.00    +0.002 C 
ATOM     34  C   UNL     1       1.044  -3.763  -0.891  0.00  0.00    +0.022 C 
ATOM     35  C   UNL     1       0.776  -2.868   0.320  0.00  0.00    +0.076 C 
ATOM     36  C   UNL     1      -0.730  -2.644   0.466  0.00  0.00    +0.009 C 
ATOM     37  C   UNL     1      -1.429  -3.990   0.663  0.00  0.00    +0.009 C 
ENDBRANCH  26  35
ENDBRANCH   1  27
TORSDOF 4
