REMARK  Name = ZINC67155446
REMARK  6 active torsions:
REMARK  status: ('A' for Active; 'I' for Inactive)
REMARK    1  A    between atoms: C_1  and  C_2
REMARK    2  A    between atoms: C_3  and  C_17
REMARK    3  A    between atoms: N_6  and  C_7
REMARK    4  A    between atoms: N_19  and  C_20
REMARK    5  A    between atoms: C_21  and  C_29
REMARK    6  A    between atoms: C_26  and  C_28
REMARK                            x       y       z     vdW  Elec       q    Type
REMARK                         _______ _______ _______ _____ _____    ______ ____
ROOT
ATOM      1  C   UNL     1      -0.018   1.503   0.010  0.00  0.00    +0.068 C 
ATOM      2  C   UNL     1       0.002  -0.004   0.002  0.00  0.00    +0.074 A 
ATOM      3  C   UNL     1       0.009  -0.813  -1.099  0.00  0.00    +0.170 A 
ATOM      4  N   UNL     1       0.029  -2.092  -0.688  0.00  0.00    -0.124 NA
ATOM      5  N   UNL     1       0.035  -2.131   0.599  0.00  0.00    -0.060 NA
ATOM      6  N   UNL     1       0.023  -0.815   1.082  0.00  0.00    -0.216 N 
ENDROOT
BRANCH   6   7
ATOM      7  C   UNL     1       0.030  -0.417   2.427  0.00  0.00    +0.071 A 
ATOM      8  C   UNL     1       0.702   0.737   2.807  0.00  0.00    +0.031 A 
ATOM      9  C   UNL     1       0.710   1.128   4.131  0.00  0.00    +0.051 A 
ATOM     10  C   UNL     1       0.047   0.371   5.086  0.00  0.00    +0.162 A 
ATOM     11  C   UNL     1      -0.629  -0.783   4.708  0.00  0.00    +0.164 A 
ATOM     12  C   UNL     1      -0.640  -1.174   3.378  0.00  0.00    +0.077 A 
ATOM     13  O   UNL     1      -1.292  -1.535   5.629  0.00  0.00    -0.485 OA
ATOM     14  C   UNL     1      -0.954  -1.316   7.003  0.00  0.00    +0.270 C 
ATOM     15  C   UNL     1      -0.916   0.197   7.253  0.00  0.00    +0.270 C 
ATOM     16  O   UNL     1       0.069   0.771   6.387  0.00  0.00    -0.485 OA
ENDBRANCH   6   7
BRANCH   3  17
ATOM     17  C   UNL     1      -0.005  -0.358  -2.503  0.00  0.00    +0.266 C 
ATOM     18  O   UNL     1      -0.023   0.831  -2.757  0.00  0.00    -0.268 OA
ATOM     19  N   UNL     1       0.004  -1.261  -3.503  0.00  0.00    -0.307 N 
ATOM     20  H   UNL     1       0.019  -2.210  -3.301  0.00  0.00    +0.149 HD
BRANCH  19  21
ATOM     21  C   UNL     1      -0.009  -0.810  -4.897  0.00  0.00    +0.079 C 
ATOM     22  C   UNL     1      -1.452  -0.554  -5.337  0.00  0.00    +0.006 C 
ATOM     23  C   UNL     1      -1.466  -0.083  -6.792  0.00  0.00    +0.005 C 
ATOM     24  C   UNL     1      -0.845  -1.161  -7.683  0.00  0.00    +0.001 C 
ATOM     25  C   UNL     1       0.598  -1.416  -7.244  0.00  0.00    +0.005 C 
ATOM     26  C   UNL     1       0.612  -1.888  -5.788  0.00  0.00    +0.006 C 
ATOM     27  C   UNL     1       2.055  -2.143  -5.348  0.00  0.00    +0.009 C 
ATOM     28  C   UNL     1      -2.260  -1.847  -5.212  0.00  0.00    +0.009 C 
ENDBRANCH  19  21
ENDBRANCH   3  17
TORSDOF 3
