REMARK  Name = ZINC39596345
REMARK  10 active torsions:
REMARK  status: ('A' for Active; 'I' for Inactive)
REMARK    1  A    between atoms: C_1  and  C_2
REMARK    2  A    between atoms: C_4  and  C_7
REMARK    3  A    between atoms: C_8  and  C_13
REMARK    4  A    between atoms: C_9  and  C_12
REMARK    5  A    between atoms: C_17  and  C_26
REMARK    6  A    between atoms: N_28  and  C_29
REMARK    7  A    between atoms: C_29  and  C_30
REMARK    8  A    between atoms: C_30  and  C_32
REMARK    9  A    between atoms: C_30  and  O_33
REMARK   10  A    between atoms: O_33  and  C_34
REMARK                            x       y       z     vdW  Elec       q    Type
REMARK                         _______ _______ _______ _____ _____    ______ ____
ROOT
ATOM      1  C   UNL     1       2.164  -6.882  -0.004  0.00  0.00    +0.252 C 
ATOM      2  O   UNL     1       2.983  -7.232   0.825  0.00  0.00    -0.270 OA
ATOM      3  N   UNL     1       2.519  -6.781  -1.301  0.00  0.00    -0.296 N 
ATOM      4  C   UNL     1       1.672  -6.368  -2.444  0.00  0.00    +0.121 C 
ATOM      5  C   UNL     1       2.599  -5.498  -3.322  0.00  0.00    +0.100 C 
ATOM      6  C   UNL     1       4.022  -5.957  -2.965  0.00  0.00    -0.004 C 
ATOM      7  C   UNL     1       3.846  -7.053  -1.904  0.00  0.00    +0.115 C 
ATOM      8  C   UNL     1       4.823  -4.795  -2.386  0.00  0.00    -0.010 C 
ATOM      9  C   UNL     1       6.251  -5.261  -2.091  0.00  0.00    -0.082 C 
ATOM     10  N   UNL     1       6.876  -5.743  -3.330  0.00  0.00    +0.379 N 
ATOM     11  C   UNL     1       6.154  -6.919  -3.830  0.00  0.00    -0.082 C 
ATOM     12  C   UNL     1       4.721  -6.522  -4.198  0.00  0.00    -0.010 C 
ATOM     13  H   UNL     1       6.848  -5.012  -4.025  0.00  0.00    -0.086 HD
ATOM     14  H   UNL     1       7.836  -5.992  -3.146  0.00  0.00    -0.086 HD
ENDROOT
BRANCH   1  16
ATOM     15  C   UNL     1       0.308  -5.326   0.802  0.00  0.00    +0.201 A 
ATOM     16  C   UNL     1       0.786  -6.568   0.409  0.00  0.00    +0.108 A 
ATOM     17  C   UNL     1      -0.298  -7.477   0.478  0.00  0.00    +0.093 A 
ATOM     18  N   UNL     1      -1.348  -6.826   0.883  0.00  0.00    -0.082 NA
ATOM     19  O   UNL     1      -0.993  -5.474   1.099  0.00  0.00    -0.352 OA
ATOM     20  C   UNL     1      -0.245  -8.945   0.140  0.00  0.00    +0.070 C 
BRANCH  15  24
ATOM     21  C   UNL     1       1.532  -0.464   1.581  0.00  0.00    +0.089 C 
ATOM     22  C   UNL     1       1.612  -1.928   1.234  0.00  0.00    +0.135 A 
ATOM     23  C   UNL     1       0.597  -2.808   1.293  0.00  0.00    +0.079 A 
ATOM     24  C   UNL     1       1.088  -4.073   0.885  0.00  0.00    +0.152 A 
ATOM     25  N   UNL     1       2.361  -3.933   0.595  0.00  0.00    -0.075 NA
ATOM     26  O   UNL     1       2.706  -2.576   0.806  0.00  0.00    -0.359 OA
ENDBRANCH  15  24
ENDBRANCH   1  16
BRANCH   5  27
ATOM     27  C   UNL     1       2.318  -5.741  -4.783  0.00  0.00    +0.218 C 
ATOM     28  O   UNL     1       1.934  -6.830  -5.154  0.00  0.00    -0.275 OA
ATOM     29  N   UNL     1       2.493  -4.748  -5.677  0.00  0.00    -0.312 N 
ATOM     30  H   UNL     1       2.800  -3.877  -5.380  0.00  0.00    +0.149 HD
BRANCH  29  31
ATOM     31  C   UNL     1       2.220  -4.984  -7.097  0.00  0.00    +0.148 C 
BRANCH  31  32
ATOM     32  C   UNL     1       2.497  -3.704  -7.889  0.00  0.00    +0.187 C 
ATOM     33  C   UNL     1       2.094  -3.912  -9.350  0.00  0.00    +0.053 C 
BRANCH  32  34
ATOM     34  O   UNL     1       3.890  -3.392  -7.819  0.00  0.00    -0.488 OA
BRANCH  34  35
ATOM     35  C   UNL     1       4.240  -2.089  -7.986  0.00  0.00    +0.121 A 
ATOM     36  C   UNL     1       3.276  -1.149  -8.318  0.00  0.00    +0.048 A 
ATOM     37  C   UNL     1       3.633   0.175  -8.489  0.00  0.00    +0.042 A 
ATOM     38  C   UNL     1       4.952   0.563  -8.328  0.00  0.00    +0.124 A 
ATOM     39  C   UNL     1       5.915  -0.375  -7.997  0.00  0.00    +0.042 A 
ATOM     40  C   UNL     1       5.560  -1.698  -7.820  0.00  0.00    +0.048 A 
ATOM     41  F   UNL     1       5.300   1.857  -8.495  0.00  0.00    -0.205 F 
ENDBRANCH  34  35
ENDBRANCH  32  34
ENDBRANCH  31  32
ENDBRANCH  29  31
ENDBRANCH   5  27
TORSDOF 7
