REMARK  Name = ZINC35705768
REMARK  16 active torsions:
REMARK  status: ('A' for Active; 'I' for Inactive)
REMARK    1  A    between atoms: C_1  and  C_2
REMARK    2  A    between atoms: C_2  and  O_3
REMARK    3  A    between atoms: O_3  and  C_4
REMARK    4  A    between atoms: C_4  and  C_6
REMARK    5  A    between atoms: C_12  and  C_14
REMARK    6  A    between atoms: C_17  and  C_19
REMARK    7  A    between atoms: C_19  and  N_20
REMARK    8  A    between atoms: N_20  and  C_21
REMARK    9  A    between atoms: N_20  and  C_30
REMARK   10  A    between atoms: C_21  and  C_22
REMARK   11  A    between atoms: C_25  and  C_29
REMARK   12  A    between atoms: C_27  and  C_28
REMARK   13  A    between atoms: C_30  and  C_32
REMARK   14  A    between atoms: C_30  and  C_33
REMARK   15  A    between atoms: C_33  and  C_34
REMARK   16  A    between atoms: C_33  and  C_35
REMARK                            x       y       z     vdW  Elec       q    Type
REMARK                         _______ _______ _______ _____ _____    ______ ____
ROOT
ATOM      1  C   UNL     1       0.961  -5.585  -4.738  0.00  0.00    +0.164 A 
ATOM      2  C   UNL     1       0.582  -6.236  -5.872  0.00  0.00    +0.230 A 
ATOM      3  O   UNL     1       1.026  -7.498  -5.765  0.00  0.00    -0.449 OA
ATOM      4  C   UNL     1       1.663  -7.621  -4.592  0.00  0.00    +0.179 A 
ATOM      5  N   UNL     1       1.637  -6.481  -3.969  0.00  0.00    -0.210 NA
ENDROOT
BRANCH   1  12
ATOM      6  C   UNL     1       0.630  -2.914  -0.499  0.00  0.00    +0.101 C 
ATOM      7  C   UNL     1       0.033  -2.086  -1.640  0.00  0.00    +0.033 C 
ATOM      8  C   UNL     1       0.893  -2.259  -2.896  0.00  0.00    +0.109 C 
ATOM      9  N   UNL     1       1.016  -3.692  -3.191  0.00  0.00    -0.296 N 
ATOM     10  C   UNL     1       1.495  -4.593  -2.134  0.00  0.00    +0.109 C 
ATOM     11  C   UNL     1       0.628  -4.395  -0.887  0.00  0.00    +0.033 C 
ATOM     12  C   UNL     1       0.695  -4.173  -4.409  0.00  0.00    +0.268 C 
ATOM     13  O   UNL     1       0.186  -3.441  -5.236  0.00  0.00    -0.268 OA
BRANCH   6  14
ATOM     14  C   UNL     1      -0.194  -2.720   0.747  0.00  0.00    +0.310 C 
ATOM     15  O   UNL     1      -0.728  -3.668   1.272  0.00  0.00    -0.251 OA
BRANCH  14  16
ATOM     16  O   UNL     1      -0.335  -1.494   1.274  0.00  0.00    -0.465 OA
BRANCH  16  18
ATOM     17  C   UNL     1      -1.175   0.078   2.906  0.00  0.00    +0.048 C 
ATOM     18  C   UNL     1      -1.130  -1.383   2.457  0.00  0.00    +0.229 C 
ENDBRANCH  16  18
ENDBRANCH  14  16
ENDBRANCH   6  14
ENDBRANCH   1  12
BRANCH   4  19
ATOM     19  C   UNL     1       2.313  -8.880  -4.079  0.00  0.00    +0.020 C 
BRANCH  19  20
ATOM     20  N   UNL     1       1.317  -9.687  -3.360  0.00  0.00    +0.390 N 
ATOM     21  H   UNL     1       0.858  -9.114  -2.667  0.00  0.00    -0.080 HD
BRANCH  20  22
ATOM     22  C   UNL     1       0.322 -10.198  -4.311  0.00  0.00    -0.068 C 
ATOM     23  C   UNL     1       0.979 -11.229  -5.231  0.00  0.00    -0.013 C 
BRANCH  22  24
ATOM     24  C   UNL     1      -0.825 -10.858  -3.543  0.00  0.00    -0.031 C 
ATOM     25  C   UNL     1      -1.545  -9.805  -2.699  0.00  0.00    +0.005 C 
ATOM     26  C   UNL     1      -1.812 -11.478  -4.534  0.00  0.00    +0.005 C 
ENDBRANCH  22  24
ENDBRANCH  20  22
BRANCH  20  27
ATOM     27  C   UNL     1       1.987 -10.814  -2.697  0.00  0.00    -0.042 C 
BRANCH  27  28
ATOM     28  C   UNL     1       2.927 -10.290  -1.642  0.00  0.00    -0.061 A 
ATOM     29  C   UNL     1       4.285 -10.230  -1.895  0.00  0.00    +0.002 A 
ATOM     30  C   UNL     1       5.147  -9.750  -0.927  0.00  0.00    +0.003 A 
ATOM     31  C   UNL     1       4.652  -9.330   0.293  0.00  0.00    -0.050 A 
ATOM     32  C   UNL     1       3.294  -9.390   0.545  0.00  0.00    +0.007 A 
ATOM     33  C   UNL     1       2.431  -9.866  -0.424  0.00  0.00    -0.049 A 
ATOM     34  C   UNL     1       0.950  -9.926  -0.151  0.00  0.00    +0.044 C 
ATOM     35  C   UNL     1       5.592  -8.807   1.349  0.00  0.00    +0.044 C 
ENDBRANCH  27  28
ENDBRANCH  20  27
ENDBRANCH  19  20
ENDBRANCH   4  19
TORSDOF 10
