REMARK  Name = ZINC13785210
REMARK  9 active torsions:
REMARK  status: ('A' for Active; 'I' for Inactive)
REMARK    1  A    between atoms: C_1  and  C_2
REMARK    2  A    between atoms: C_2  and  C_3
REMARK    3  A    between atoms: C_3  and  C_31
REMARK    4  A    between atoms: N_4  and  N_5
REMARK    5  A    between atoms: C_6  and  C_8
REMARK    6  A    between atoms: C_8  and  C_10
REMARK    7  A    between atoms: C_8  and  N_22
REMARK    8  A    between atoms: C_23  and  C_25
REMARK    9  A    between atoms: C_31  and  C_32
REMARK                            x       y       z     vdW  Elec       q    Type
REMARK                         _______ _______ _______ _____ _____    ______ ____
ROOT
ATOM      1  C   UNL     1       6.132  -0.704  -0.059  0.00  0.00    +0.212 C 
ENDROOT
BRANCH   1   2
ATOM      2  C   UNL     1       6.524  -1.063   1.351  0.00  0.00    +0.099 A 
ATOM      3  C   UNL     1       7.413  -2.199   1.596  0.00  0.00    +0.013 A 
ATOM      4  C   UNL     1       7.921  -2.975   0.552  0.00  0.00    +0.010 A 
ATOM      5  C   UNL     1       8.749  -4.027   0.832  0.00  0.00    +0.001 A 
ATOM      6  C   UNL     1       9.094  -4.334   2.142  0.00  0.00    +0.001 A 
ATOM      7  C   UNL     1       8.608  -3.585   3.192  0.00  0.00    +0.014 A 
ATOM      8  C   UNL     1       7.762  -2.509   2.930  0.00  0.00    +0.050 A 
ATOM      9  C   UNL     1       7.211  -1.673   4.004  0.00  0.00    +0.272 A 
ATOM     10  O   UNL     1       7.484  -1.900   5.169  0.00  0.00    -0.266 OA
ATOM     11  N   UNL     1       6.399  -0.647   3.676  0.00  0.00    -0.242 N 
ATOM     12  H   UNL     1       5.972  -0.009   4.464  0.00  0.00    +0.192 HD
ATOM     13  N   UNL     1       6.076  -0.361   2.349  0.00  0.00    -0.173 NA
ENDBRANCH   1   2
BRANCH   1  15
ATOM     14  N   UNL     1       8.457  -0.268  -0.783  0.00  0.00    -0.205 N 
ATOM     15  C   UNL     1       7.191   0.180  -0.665  0.00  0.00    +0.259 C 
ATOM     16  O   UNL     1       6.905   1.296  -1.046  0.00  0.00    -0.272 OA
ATOM     17  H   UNL     1       8.716  -1.279  -0.438  0.00  0.00    +0.177 HD
BRANCH  14  19
ATOM     18  C   UNL     1      10.643   0.129  -1.459  0.00  0.00    +0.041 C 
ATOM     19  N   UNL     1       9.441   0.554  -1.347  0.00  0.00    -0.189 NA
BRANCH  18  21
ATOM     20  C   UNL     1      10.811  -2.252  -2.132  0.00  0.00    +0.010 C 
ATOM     21  C   UNL     1      10.999  -1.257  -0.985  0.00  0.00    +0.049 C 
ENDBRANCH  18  21
BRANCH  18  22
ATOM     22  C   UNL     1      11.702   1.013  -2.065  0.00  0.00    +0.087 C 
BRANCH  22  23
ATOM     23  C   UNL     1      12.738   1.343  -1.021  0.00  0.00    -0.042 A 
ATOM     24  C   UNL     1      12.588   2.467  -0.230  0.00  0.00    +0.004 A 
ATOM     25  C   UNL     1      13.536   2.767   0.731  0.00  0.00    +0.000 A 
ATOM     26  C   UNL     1      14.639   1.950   0.893  0.00  0.00    +0.000 A 
ATOM     27  C   UNL     1      14.791   0.829   0.098  0.00  0.00    +0.000 A 
ATOM     28  C   UNL     1      13.841   0.526  -0.859  0.00  0.00    +0.004 A 
ENDBRANCH  22  23
ENDBRANCH  18  22
ENDBRANCH  14  19
ENDBRANCH   1  15
BRANCH   1  29
ATOM     29  N   UNL     1       4.852   0.008  -0.044  0.00  0.00    -0.295 N 
ATOM     30  C   UNL     1       3.696  -0.685  -0.036  0.00  0.00    +0.245 C 
ATOM     31  O   UNL     1       3.715  -1.900  -0.043  0.00  0.00    -0.270 OA
ATOM     32  H   UNL     1       4.834   1.108  -0.038  0.00  0.00    +0.150 HD
BRANCH  30  33
ATOM     33  C   UNL     1       2.403   0.034  -0.021  0.00  0.00    +0.037 A 
ATOM     34  C   UNL     1       1.204  -0.681  -0.013  0.00  0.00    +0.013 A 
ATOM     35  C   UNL     1       0.002  -0.004   0.002  0.00  0.00    +0.001 A 
ATOM     36  C   UNL     1      -0.017   1.379   0.010  0.00  0.00    +0.000 A 
ATOM     37  C   UNL     1       1.168   2.094   0.002  0.00  0.00    +0.001 A 
ATOM     38  C   UNL     1       2.377   1.429  -0.013  0.00  0.00    +0.013 A 
ENDBRANCH  30  33
ENDBRANCH   1  29
TORSDOF 8
