REMARK  Name = ZINC40012486
REMARK  4 active torsions:
REMARK  status: ('A' for Active; 'I' for Inactive)
REMARK    1  A    between atoms: C_4  and  C_7
REMARK    2  A    between atoms: C_9  and  C_17
REMARK    3  A    between atoms: N_18  and  N_19
REMARK    4  A    between atoms: C_24  and  C_25
REMARK                            x       y       z     vdW  Elec       q    Type
REMARK                         _______ _______ _______ _____ _____    ______ ____
ROOT
ATOM      1  C   UNL     1       3.711  -0.707  -0.038  0.00  0.00    +0.142 C 
ATOM      2  C   UNL     1       4.048  -1.204   1.351  0.00  0.00    +0.008 C 
ATOM      3  C   UNL     1       4.122  -2.596   1.244  0.00  0.00    +0.005 A 
ATOM      4  C   UNL     1       4.398  -3.611   2.184  0.00  0.00    +0.010 A 
ATOM      5  C   UNL     1       4.402  -4.911   1.790  0.00  0.00    +0.001 A 
ATOM      6  C   UNL     1       4.140  -5.275   0.469  0.00  0.00    +0.002 A 
ATOM      7  C   UNL     1       3.868  -4.352  -0.487  0.00  0.00    +0.026 A 
ATOM      8  C   UNL     1       3.845  -2.974  -0.150  0.00  0.00    +0.044 A 
ATOM      9  N   UNL     1       3.611  -1.900  -0.883  0.00  0.00    -0.373 N 
ATOM     10  H   UNL     1       3.404  -1.901  -1.831  0.00  0.00    +0.161 HD
ENDROOT
BRANCH   1  14
ATOM     11  C   UNL     1      -0.017   1.378   0.010  0.00  0.00    +0.000 A 
ATOM     12  C   UNL     1       1.171   2.086   0.002  0.00  0.00    +0.000 A 
ATOM     13  C   UNL     1       2.377   1.411  -0.013  0.00  0.00    +0.006 A 
ATOM     14  C   UNL     1       2.396   0.029  -0.020  0.00  0.00    -0.021 A 
ATOM     15  C   UNL     1       1.208  -0.679  -0.012  0.00  0.00    +0.006 A 
ATOM     16  C   UNL     1       0.002  -0.004   0.002  0.00  0.00    +0.000 A 
ENDBRANCH   1  14
BRANCH   2  17
ATOM     17  C   UNL     1       4.245  -0.434   2.497  0.00  0.00    +0.137 C 
ATOM     18  N   UNL     1       4.535  -1.018   3.639  0.00  0.00    -0.184 NA
BRANCH  18  19
ATOM     19  N   UNL     1       4.716  -0.307   4.699  0.00  0.00    -0.171 N 
ATOM     20  C   UNL     1       4.629   1.160   4.801  0.00  0.00    +0.269 C 
ATOM     21  N   UNL     1       4.922   1.437   6.217  0.00  0.00    -0.235 N 
ATOM     22  N   UNL     1       5.147   0.194   6.821  0.00  0.00    -0.165 NA
ATOM     23  C   UNL     1       5.026  -0.774   5.969  0.00  0.00    +0.186 C 
ATOM     24  S   UNL     1       2.962   1.730   4.368  0.00  0.00    -0.044 SA
ATOM     25  H   UNL     1       4.952   2.307   6.646  0.00  0.00    +0.171 HD
BRANCH  23  26
ATOM     26  C   UNL     1       5.199  -2.202   6.307  0.00  0.00    +0.107 A 
ATOM     27  C   UNL     1       5.505  -2.572   7.618  0.00  0.00    +0.031 A 
ATOM     28  C   UNL     1       5.664  -3.913   7.918  0.00  0.00    +0.004 A 
ATOM     29  C   UNL     1       5.512  -4.843   6.899  0.00  0.00    +0.020 A 
ATOM     30  C   UNL     1       5.209  -4.408   5.622  0.00  0.00    +0.111 A 
ATOM     31  N   UNL     1       5.058  -3.125   5.362  0.00  0.00    -0.252 NA
ENDBRANCH  23  26
ENDBRANCH  18  19
ENDBRANCH   2  17
TORSDOF 4
