REMARK  Name = ZINC08768585
REMARK  8 active torsions:
REMARK  status: ('A' for Active; 'I' for Inactive)
REMARK    1  A    between atoms: C_1  and  C_2
REMARK    2  A    between atoms: C_2  and  O_3
REMARK    3  A    between atoms: O_3  and  C_4
REMARK    4  A    between atoms: C_6  and  C_11
REMARK    5  A    between atoms: C_9  and  O_10
REMARK    6  A    between atoms: C_16  and  C_30
REMARK    7  A    between atoms: C_33  and  O_36
REMARK    8  A    between atoms: O_36  and  C_37
REMARK                            x       y       z     vdW  Elec       q    Type
REMARK                         _______ _______ _______ _____ _____    ______ ____
ROOT
ATOM      1  C   UNL     1       2.139  -6.366   0.048  0.00  0.00    +0.127 C 
ATOM      2  C   UNL     1       2.056  -4.885  -0.099  0.00  0.00    +0.125 C 
ATOM      3  C   UNL     1       2.055  -4.156   1.037  0.00  0.00    +0.145 C 
ATOM      4  C   UNL     1       1.969  -2.659   1.047  0.00  0.00    +0.083 C 
ATOM      5  C   UNL     1       1.220  -2.196  -0.207  0.00  0.00    +0.032 C 
ATOM      6  C   UNL     1       1.954  -2.745  -1.429  0.00  0.00    +0.060 C 
ATOM      7  C   UNL     1       1.978  -4.266  -1.368  0.00  0.00    +0.032 C 
ATOM      8  N   UNL     1       1.996  -4.864  -2.504  0.00  0.00    -0.254 NA
ATOM      9  C   UNL     1       1.781  -6.104  -2.955  0.00  0.00    +0.085 A 
ATOM     10  C   UNL     1       1.130  -6.302  -4.180  0.00  0.00    +0.029 A 
ATOM     11  C   UNL     1       0.967  -7.570  -4.691  0.00  0.00    +0.002 A 
ATOM     12  C   UNL     1       1.444  -8.674  -4.004  0.00  0.00    +0.002 A 
ATOM     13  C   UNL     1       2.078  -8.507  -2.786  0.00  0.00    +0.025 A 
ATOM     14  C   UNL     1       2.238  -7.246  -2.254  0.00  0.00    +0.062 A 
ATOM     15  N   UNL     1       2.837  -7.030  -1.024  0.00  0.00    -0.264 N 
ATOM     16  C   UNL     1       4.102  -7.450  -0.826  0.00  0.00    +0.333 C 
ATOM     17  O   UNL     1       4.640  -7.269   0.246  0.00  0.00    -0.279 OA
ATOM     18  O   UNL     1       2.136  -4.805   2.218  0.00  0.00    -0.297 OA
ENDROOT
BRANCH   1  21
ATOM     19  C   UNL     1      -0.907  -8.263   1.229  0.00  0.00    +0.162 A 
ATOM     20  C   UNL     1       0.381  -7.758   1.159  0.00  0.00    +0.055 A 
ATOM     21  C   UNL     1       0.739  -6.920   0.119  0.00  0.00    -0.022 A 
ATOM     22  C   UNL     1      -0.182  -6.593  -0.858  0.00  0.00    +0.009 A 
ATOM     23  C   UNL     1      -1.467  -7.099  -0.797  0.00  0.00    +0.049 A 
ATOM     24  C   UNL     1      -1.834  -7.935   0.245  0.00  0.00    +0.158 A 
BRANCH  24  25
ATOM     25  O   UNL     1      -3.098  -8.434   0.305  0.00  0.00    -0.503 OA
ATOM     26  H   UNL     1      -3.209  -9.279  -0.150  0.00  0.00    +0.292 HD
ENDBRANCH  24  25
BRANCH  19  27
ATOM     27  O   UNL     1      -1.263  -9.084   2.253  0.00  0.00    -0.489 OA
BRANCH  27  29
ATOM     28  C   UNL     1      -0.840 -10.308   4.294  0.00  0.00    +0.048 C 
ATOM     29  C   UNL     1      -0.259  -9.378   3.227  0.00  0.00    +0.226 C 
ENDBRANCH  27  29
ENDBRANCH  19  27
ENDBRANCH   1  21
BRANCH   5  30
ATOM     30  C   UNL     1       1.199  -0.690  -0.260  0.00  0.00    -0.043 A 
ATOM     31  C   UNL     1      -0.008  -0.016  -0.291  0.00  0.00    +0.007 A 
ATOM     32  C   UNL     1      -0.029   1.364  -0.340  0.00  0.00    +0.046 A 
ATOM     33  C   UNL     1       1.162   2.075  -0.358  0.00  0.00    +0.120 A 
ATOM     34  C   UNL     1       2.372   1.397  -0.325  0.00  0.00    +0.046 A 
ATOM     35  C   UNL     1       2.388   0.016  -0.277  0.00  0.00    +0.007 A 
BRANCH  33  36
ATOM     36  O   UNL     1       1.144   3.433  -0.406  0.00  0.00    -0.495 OA
ATOM     37  C   UNL     1       2.408   4.098  -0.421  0.00  0.00    +0.277 C 
ENDBRANCH  33  36
ENDBRANCH   5  30
TORSDOF 6
