REMARK  Name = ZINC20571317
REMARK  7 active torsions:
REMARK  status: ('A' for Active; 'I' for Inactive)
REMARK    1  A    between atoms: C_1  and  C_2
REMARK    2  A    between atoms: C_5  and  S_8
REMARK    3  A    between atoms: S_8  and  N_11
REMARK    4  A    between atoms: N_11  and  C_12
REMARK    5  A    between atoms: C_15  and  C_18
REMARK    6  A    between atoms: N_20  and  C_21
REMARK    7  A    between atoms: C_22  and  C_31
REMARK                            x       y       z     vdW  Elec       q    Type
REMARK                         _______ _______ _______ _____ _____    ______ ____
ROOT
ATOM      1  C   UNL     1       1.125   2.395  -0.183  0.00  0.00    +0.048 A 
ATOM      2  C   UNL     1       2.310   2.002   0.431  0.00  0.00    +0.025 A 
ATOM      3  C   UNL     1       3.461   2.733   0.243  0.00  0.00    +0.015 A 
ATOM      4  C   UNL     1       3.435   3.879  -0.558  0.00  0.00    +0.037 A 
ATOM      5  C   UNL     1       2.242   4.274  -1.170  0.00  0.00    +0.015 A 
ATOM      6  C   UNL     1       1.096   3.535  -0.982  0.00  0.00    +0.025 A 
ENDROOT
BRANCH   4   7
ATOM      7  C   UNL     1       4.665   4.668  -0.758  0.00  0.00    +0.249 C 
ATOM      8  O   UNL     1       4.642   5.664  -1.455  0.00  0.00    -0.270 OA
ATOM      9  N   UNL     1       5.815   4.285  -0.168  0.00  0.00    -0.275 N 
ATOM     10  H   UNL     1       5.836   3.384   0.463  0.00  0.00    +0.156 HD
BRANCH   9  11
ATOM     11  C   UNL     1       6.971   5.027  -0.356  0.00  0.00    +0.090 A 
ATOM     12  C   UNL     1       8.236   4.797   0.161  0.00  0.00    +0.084 A 
ATOM     13  C   UNL     1       9.294   5.733  -0.192  0.00  0.00    -0.018 A 
ATOM     14  C   UNL     1       8.910   6.749  -0.996  0.00  0.00    -0.004 A 
ATOM     15  S   UNL     1       7.188   6.463  -1.300  0.00  0.00    -0.077 S 
ATOM     16  C   UNL     1       9.751   7.871  -1.519  0.00  0.00    +0.043 C 
ATOM     17  C   UNL     1      11.045   7.299  -2.112  0.00  0.00    +0.005 C 
ATOM     18  C   UNL     1      12.093   7.222  -1.006  0.00  0.00    +0.001 C 
ATOM     19  C   UNL     1      11.422   6.926   0.334  0.00  0.00    +0.005 C 
ATOM     20  C   UNL     1      10.728   5.569   0.295  0.00  0.00    +0.037 C 
BRANCH  12  21
ATOM     21  C   UNL     1       8.494   3.676   1.014  0.00  0.00    +0.102 C 
ATOM     22  N   UNL     1       8.699   2.787   1.690  0.00  0.00    -0.191 NA
ENDBRANCH  12  21
ENDBRANCH   9  11
ENDBRANCH   4   7
BRANCH   1  23
ATOM     23  N   UNL     1      -0.035   1.651   0.005  0.00  0.00    -0.216 N 
ATOM     24  H   UNL     1      -0.984   2.160   0.228  0.00  0.00    +0.174 HD
BRANCH  23  25
ATOM     25  S   UNL     1       0.014  -0.000  -0.105  0.00  0.00    +0.072 S 
ATOM     26  O   UNL     1       1.068  -0.433   0.745  0.00  0.00    -0.150 OA
ATOM     27  O   UNL     1      -1.323  -0.457   0.046  0.00  0.00    -0.150 OA
BRANCH  25  32
ATOM     28  C   UNL     1       1.676  -1.363  -5.743  0.00  0.00    +0.044 C 
ATOM     29  C   UNL     1       1.261  -1.023  -4.335  0.00  0.00    -0.050 A 
ATOM     30  C   UNL     1       2.208  -0.968  -3.329  0.00  0.00    +0.005 A 
ATOM     31  C   UNL     1       1.827  -0.656  -2.038  0.00  0.00    +0.029 A 
ATOM     32  C   UNL     1       0.499  -0.398  -1.752  0.00  0.00    +0.109 A 
ATOM     33  C   UNL     1      -0.448  -0.458  -2.756  0.00  0.00    +0.029 A 
ATOM     34  C   UNL     1      -0.067  -0.766  -4.049  0.00  0.00    +0.005 A 
ENDBRANCH  25  32
ENDBRANCH  23  25
ENDBRANCH   1  23
TORSDOF 6
