REMARK  Name = ZINC53364934
REMARK  10 active torsions:
REMARK  status: ('A' for Active; 'I' for Inactive)
REMARK    1  A    between atoms: C_1  and  C_2
REMARK    2  A    between atoms: C_2  and  O_3
REMARK    3  A    between atoms: O_3  and  C_4
REMARK    4  A    between atoms: C_8  and  C_11
REMARK    5  A    between atoms: C_9  and  O_10
REMARK    6  A    between atoms: C_14  and  C_29
REMARK    7  A    between atoms: C_16  and  C_19
REMARK    8  A    between atoms: C_22  and  C_25
REMARK    9  A    between atoms: C_25  and  O_27
REMARK   10  A    between atoms: O_27  and  C_28
REMARK                            x       y       z     vdW  Elec       q    Type
REMARK                         _______ _______ _______ _____ _____    ______ ____
ROOT
ATOM      1  C   UNL     1       2.224  -4.267  -3.827  0.00  0.00    +0.095 C 
ATOM      2  C   UNL     1       1.270  -4.255  -5.026  0.00  0.00    +0.079 C 
ATOM      3  C   UNL     1       1.844  -5.096  -6.131  0.00  0.00    +0.047 C 
ATOM      4  N   UNL     1       2.795  -5.933  -5.952  0.00  0.00    -0.264 NA
ATOM      5  C   UNL     1       3.445  -6.169  -4.668  0.00  0.00    +0.204 C 
ATOM      6  N   UNL     1       2.619  -5.662  -3.567  0.00  0.00    -0.284 NA
ATOM      7  H   UNL     1       3.102  -5.743  -2.685  0.00  0.00    +0.125 HD
ENDROOT
BRANCH   3   8
ATOM      8  C   UNL     1       1.283  -4.950  -7.489  0.00  0.00    -0.004 A 
ATOM      9  C   UNL     1       0.248  -4.044  -7.726  0.00  0.00    +0.011 A 
ATOM     10  C   UNL     1      -0.272  -3.912  -8.997  0.00  0.00    +0.016 A 
ATOM     11  C   UNL     1       0.231  -4.677 -10.036  0.00  0.00    +0.018 A 
ATOM     12  C   UNL     1       1.258  -5.578  -9.807  0.00  0.00    +0.016 A 
ATOM     13  C   UNL     1       1.790  -5.714  -8.543  0.00  0.00    +0.011 A 
ATOM     14 BR   UNL     1      -0.487  -4.490 -11.776  0.00  0.00    -0.050 Br
ENDBRANCH   3   8
BRANCH   1  19
ATOM     15  C   UNL     1       0.777  -1.811  -1.336  0.00  0.00    +0.162 A 
ATOM     16  C   UNL     1       0.243  -2.669  -0.388  0.00  0.00    +0.049 A 
ATOM     17  C   UNL     1       0.352  -4.037  -0.555  0.00  0.00    +0.004 A 
ATOM     18  C   UNL     1       0.992  -4.552  -1.667  0.00  0.00    +0.009 A 
ATOM     19  C   UNL     1       1.526  -3.702  -2.616  0.00  0.00    +0.015 A 
ATOM     20  C   UNL     1       1.416  -2.330  -2.458  0.00  0.00    +0.163 A 
BRANCH  20  21
ATOM     21  O   UNL     1       1.936  -1.492  -3.394  0.00  0.00    -0.503 OA
ATOM     22  H   UNL     1       2.856  -1.241  -3.231  0.00  0.00    +0.292 HD
ENDBRANCH  20  21
BRANCH  15  23
ATOM     23  O   UNL     1       0.671  -0.465  -1.174  0.00  0.00    -0.489 OA
BRANCH  23  25
ATOM     24  C   UNL     1      -0.019   1.526   0.010  0.00  0.00    +0.048 C 
ATOM     25  C   UNL     1       0.002  -0.004   0.002  0.00  0.00    +0.226 C 
ENDBRANCH  23  25
ENDBRANCH  15  23
ENDBRANCH   1  19
BRANCH   5  26
ATOM     26  C   UNL     1       3.661  -7.649  -4.486  0.00  0.00    -0.009 A 
ATOM     27  C   UNL     1       3.656  -8.194  -3.214  0.00  0.00    +0.008 A 
ATOM     28  C   UNL     1       3.853  -9.549  -3.040  0.00  0.00    +0.015 A 
ATOM     29  C   UNL     1       4.058 -10.369  -4.151  0.00  0.00    +0.059 A 
ATOM     30  C   UNL     1       4.062  -9.813  -5.431  0.00  0.00    +0.015 A 
ATOM     31  C   UNL     1       3.858  -8.458  -5.591  0.00  0.00    +0.008 A 
BRANCH  29  32
ATOM     32  C   UNL     1       4.270 -11.820  -3.972  0.00  0.00    +0.339 C 
ATOM     33  O   UNL     1       4.266 -12.302  -2.857  0.00  0.00    -0.245 OA
BRANCH  32  34
ATOM     34  O   UNL     1       4.467 -12.610  -5.046  0.00  0.00    -0.464 OA
ATOM     35  C   UNL     1       4.666 -14.003  -4.799  0.00  0.00    +0.280 C 
ENDBRANCH  32  34
ENDBRANCH  29  32
ENDBRANCH   5  26
TORSDOF 8
