REMARK  Name = ZINC40589426
REMARK  7 active torsions:
REMARK  status: ('A' for Active; 'I' for Inactive)
REMARK    1  A    between atoms: C_1  and  C_2
REMARK    2  A    between atoms: C_2  and  N_3
REMARK    3  A    between atoms: N_3  and  C_4
REMARK    4  A    between atoms: C_15  and  N_32
REMARK    5  A    between atoms: C_16  and  N_20
REMARK    6  A    between atoms: N_20  and  C_21
REMARK    7  A    between atoms: C_29  and  C_31
REMARK                            x       y       z     vdW  Elec       q    Type
REMARK                         _______ _______ _______ _____ _____    ______ ____
ROOT
ATOM      1  N   UNL     1      -1.573  -1.138   0.195  0.00  0.00    -0.283 N 
ATOM      2  C   UNL     1      -2.175  -1.265   1.439  0.00  0.00    +0.161 A 
ATOM      3  C   UNL     1      -1.631  -0.633   2.554  0.00  0.00    +0.206 A 
ATOM      4  C   UNL     1      -2.273  -0.792   3.779  0.00  0.00    +0.159 A 
ATOM      5  N   UNL     1      -3.375  -1.536   3.839  0.00  0.00    -0.218 NA
ATOM      6  C   UNL     1      -3.859  -2.118   2.761  0.00  0.00    +0.225 A 
ATOM      7  N   UNL     1      -3.284  -1.988   1.582  0.00  0.00    -0.218 NA
ENDROOT
BRANCH   1   8
ATOM      8  C   UNL     1      -0.363  -0.457   0.073  0.00  0.00    +0.043 A 
ATOM      9  C   UNL     1      -0.350   0.901  -0.165  0.00  0.00    +0.024 A 
ATOM     10  C   UNL     1       0.853   1.590  -0.289  0.00  0.00    +0.002 A 
ATOM     11  C   UNL     1       2.047   0.945  -0.180  0.00  0.00    +0.008 A 
ATOM     12  C   UNL     1       2.078  -0.439   0.062  0.00  0.00    -0.016 A 
ATOM     13  C   UNL     1       0.860  -1.150   0.197  0.00  0.00    +0.003 A 
ATOM     14  C   UNL     1       0.893  -2.532   0.443  0.00  0.00    +0.010 A 
ATOM     15  C   UNL     1       2.091  -3.168   0.556  0.00  0.00    +0.001 A 
ATOM     16  C   UNL     1       3.289  -2.468   0.430  0.00  0.00    +0.001 A 
ATOM     17  C   UNL     1       3.296  -1.131   0.179  0.00  0.00    +0.008 A 
ENDBRANCH   1   8
BRANCH   3  18
ATOM     18  N   UNL     1      -0.403   0.185   2.440  0.00  0.00    +0.063 N 
ATOM     19  O   UNL     1      -0.485   1.378   2.262  0.00  0.00    -0.126 OA
ATOM     20  O   UNL     1       0.683  -0.340   2.525  0.00  0.00    -0.126 OA
ENDBRANCH   3  18
BRANCH   1  22
ATOM     21  C   UNL     1      -1.823  -3.196  -1.103  0.00  0.00    +0.025 C 
ATOM     22  C   UNL     1      -2.210  -1.720  -0.989  0.00  0.00    +0.109 C 
ENDBRANCH   1  22
BRANCH   4  23
ATOM     23  N   UNL     1      -1.770  -0.183   4.920  0.00  0.00    -0.297 N 
ATOM     24  H   UNL     1      -0.992   0.393   4.860  0.00  0.00    +0.154 HD
BRANCH  23  25
ATOM     25  C   UNL     1      -2.383  -0.400   6.152  0.00  0.00    +0.042 A 
ATOM     26  C   UNL     1      -3.035  -1.589   6.406  0.00  0.00    +0.024 A 
ATOM     27  C   UNL     1      -3.649  -1.812   7.634  0.00  0.00    +0.004 A 
ATOM     28  C   UNL     1      -3.626  -0.869   8.616  0.00  0.00    +0.026 A 
ATOM     29  C   UNL     1      -2.973   0.356   8.399  0.00  0.00    +0.048 A 
ATOM     30  C   UNL     1      -2.339   0.591   7.154  0.00  0.00    +0.020 A 
ATOM     31  C   UNL     1      -1.682   1.816   6.943  0.00  0.00    +0.013 A 
ATOM     32  C   UNL     1      -1.679   2.730   7.959  0.00  0.00    +0.021 A 
ATOM     33  C   UNL     1      -2.316   2.435   9.161  0.00  0.00    +0.013 A 
ATOM     34  N   UNL     1      -2.939   1.296   9.350  0.00  0.00    -0.358 N 
ATOM     35  C   UNL     1      -2.302   3.456  10.269  0.00  0.00    +0.063 C 
ATOM     36  H   UNL     1      -3.373   1.127  10.201  0.00  0.00    +0.166 HD
ENDBRANCH  23  25
ENDBRANCH   4  23
TORSDOF 5
