REMARK  Name = ZINC64166496
REMARK  7 active torsions:
REMARK  status: ('A' for Active; 'I' for Inactive)
REMARK    1  A    between atoms: C_1  and  O_2
REMARK    2  A    between atoms: O_2  and  C_3
REMARK    3  A    between atoms: C_7  and  C_11
REMARK    4  A    between atoms: C_8  and  O_9
REMARK    5  A    between atoms: O_9  and  C_10
REMARK    6  A    between atoms: N_25  and  C_26
REMARK    7  A    between atoms: C_26  and  C_27
REMARK                            x       y       z     vdW  Elec       q    Type
REMARK                         _______ _______ _______ _____ _____    ______ ____
ROOT
ATOM      1  C   UNL     1       1.341  -3.850   2.499  0.00  0.00    +0.117 C 
ATOM      2  C   UNL     1       0.104  -4.392   3.220  0.00  0.00    +0.128 C 
ATOM      3  C   UNL     1       0.185  -5.911   3.120  0.00  0.00    -0.035 C 
ATOM      4  C   UNL     1      -0.963  -6.314   2.594  0.00  0.00    -0.001 A 
ATOM      5  C   UNL     1      -1.507  -7.657   2.334  0.00  0.00    +0.010 A 
ATOM      6  C   UNL     1      -2.737  -7.705   1.757  0.00  0.00    +0.001 A 
ATOM      7  C   UNL     1      -3.472  -6.565   1.417  0.00  0.00    +0.002 A 
ATOM      8  C   UNL     1      -3.052  -5.292   1.624  0.00  0.00    +0.026 A 
ATOM      9  C   UNL     1      -1.775  -5.112   2.231  0.00  0.00    +0.043 A 
ATOM     10  N   UNL     1      -1.144  -4.003   2.567  0.00  0.00    -0.376 N 
ATOM     11  C   UNL     1       1.439  -6.664   3.493  0.00  0.00    +0.049 C 
ATOM     12  C   UNL     1       2.602  -5.933   2.797  0.00  0.00    +0.089 C 
ATOM     13  N   UNL     1       2.532  -4.495   3.073  0.00  0.00    -0.290 NA
ATOM     14  H   UNL     1      -1.443  -3.094   2.409  0.00  0.00    +0.160 HD
ENDROOT
BRANCH   1  19
ATOM     15  C   UNL     1       1.043  -0.126   1.890  0.00  0.00    +0.162 A 
ATOM     16  C   UNL     1       1.592   0.385   3.055  0.00  0.00    +0.049 A 
ATOM     17  C   UNL     1       2.056  -0.474   4.034  0.00  0.00    +0.004 A 
ATOM     18  C   UNL     1       1.974  -1.842   3.854  0.00  0.00    +0.009 A 
ATOM     19  C   UNL     1       1.428  -2.358   2.693  0.00  0.00    +0.017 A 
ATOM     20  C   UNL     1       0.955  -1.503   1.710  0.00  0.00    +0.166 A 
BRANCH  15  22
ATOM     21  C   UNL     1       0.708   2.119   1.179  0.00  0.00    +0.277 C 
ATOM     22  O   UNL     1       0.585   0.718   0.926  0.00  0.00    -0.491 OA
ENDBRANCH  15  22
BRANCH  20  23
ATOM     23  O   UNL     1       0.412  -2.008   0.571  0.00  0.00    -0.491 OA
ATOM     24  C   UNL     1       1.302  -2.251  -0.520  0.00  0.00    +0.277 C 
ENDBRANCH  20  23
ENDBRANCH   1  19
BRANCH  13  25
ATOM     25  C   UNL     1       3.760  -3.814   2.639  0.00  0.00    +0.118 C 
BRANCH  25  26
ATOM     26  C   UNL     1       4.905  -4.175   3.588  0.00  0.00    +0.166 C 
ATOM     27  C   UNL     1       6.188  -3.481   3.167  0.00  0.00    +0.024 C 
ATOM     28  C   UNL     1       7.022  -4.486   2.892  0.00  0.00    +0.132 C 
ATOM     29  N   UNL     1       6.417  -5.678   3.088  0.00  0.00    -0.162 NA
ATOM     30  N   UNL     1       5.244  -5.603   3.476  0.00  0.00    -0.179 NA
ENDBRANCH  25  26
ENDBRANCH  13  25
TORSDOF 5
