REMARK  Name = ZINC39687555
REMARK  7 active torsions:
REMARK  status: ('A' for Active; 'I' for Inactive)
REMARK    1  A    between atoms: C_1  and  C_2
REMARK    2  A    between atoms: C_7  and  N_8
REMARK    3  A    between atoms: C_11  and  N_14
REMARK    4  A    between atoms: C_15  and  C_17
REMARK    5  A    between atoms: C_28  and  C_30
REMARK    6  A    between atoms: C_30  and  C_31
REMARK    7  A    between atoms: C_30  and  C_32
REMARK                            x       y       z     vdW  Elec       q    Type
REMARK                         _______ _______ _______ _____ _____    ______ ____
ROOT
ATOM      1  N   UNL     1       2.565   0.185   5.863  0.00  0.00    -0.312 N 
ATOM      2  C   UNL     1       2.680   1.436   6.351  0.00  0.00    +0.218 C 
ATOM      3  O   UNL     1       1.766   2.224   6.222  0.00  0.00    -0.275 OA
ATOM      4  H   UNL     1       3.295  -0.445   5.966  0.00  0.00    +0.149 HD
ENDROOT
BRANCH   2   5
ATOM      5  C   UNL     1       3.943   1.857   7.056  0.00  0.00    +0.100 C 
ATOM      6  C   UNL     1       4.170   3.377   6.892  0.00  0.00    +0.121 C 
ATOM      7  N   UNL     1       3.585   3.977   8.114  0.00  0.00    -0.300 N 
ATOM      8  C   UNL     1       3.959   3.039   9.200  0.00  0.00    +0.115 C 
ATOM      9  C   UNL     1       3.808   1.639   8.572  0.00  0.00    -0.004 C 
ATOM     10  C   UNL     1       2.437   1.059   8.903  0.00  0.00    -0.010 C 
ATOM     11  C   UNL     1       2.348   0.798  10.409  0.00  0.00    -0.082 C 
ATOM     12  N   UNL     1       3.406  -0.137  10.809  0.00  0.00    +0.379 N 
ATOM     13  C   UNL     1       4.723   0.467  10.573  0.00  0.00    -0.082 C 
ATOM     14  C   UNL     1       4.913   0.714   9.074  0.00  0.00    -0.010 C 
ATOM     15  C   UNL     1       2.874   5.117   8.215  0.00  0.00    +0.218 C 
ATOM     16  O   UNL     1       2.460   5.479   9.296  0.00  0.00    -0.275 OA
ATOM     17  H   UNL     1       3.308  -0.354  11.790  0.00  0.00    -0.086 HD
ATOM     18  H   UNL     1       3.325  -0.986  10.269  0.00  0.00    -0.086 HD
BRANCH  15  19
ATOM     19  C   UNL     1       2.594   5.942   6.986  0.00  0.00    +0.069 C 
ATOM     20  C   UNL     1       1.776   7.175   7.375  0.00  0.00    +0.017 C 
ATOM     21  C   UNL     1       3.917   6.386   6.357  0.00  0.00    +0.017 C 
ENDBRANCH  15  19
ENDBRANCH   2   5
BRANCH   1  25
ATOM     22  N   UNL     1      -0.674  -2.082   4.465  0.00  0.00    -0.316 N 
ATOM     23  C   UNL     1       0.368  -1.774   3.475  0.00  0.00    +0.108 C 
ATOM     24  C   UNL     1       1.648  -1.372   4.215  0.00  0.00    +0.041 C 
ATOM     25  C   UNL     1       1.336  -0.224   5.178  0.00  0.00    +0.076 C 
ATOM     26  C   UNL     1       0.306  -0.687   6.211  0.00  0.00    +0.041 C 
ATOM     27  C   UNL     1      -0.993  -1.079   5.490  0.00  0.00    +0.108 C 
BRANCH  22  34
ATOM     28  C   UNL     1      -2.947  -2.289   2.767  0.00  0.00    +0.047 C 
ATOM     29  C   UNL     1      -2.465  -3.440   3.611  0.00  0.00    -0.012 A 
ATOM     30  C   UNL     1      -3.124  -4.656   3.580  0.00  0.00    +0.008 A 
ATOM     31  C   UNL     1      -2.645  -5.690   4.374  0.00  0.00    +0.018 A 
ATOM     32  C   UNL     1      -1.534  -5.476   5.165  0.00  0.00    +0.084 A 
ATOM     33  N   UNL     1      -0.926  -4.305   5.175  0.00  0.00    -0.349 N 
ATOM     34  C   UNL     1      -1.349  -3.297   4.428  0.00  0.00    +0.102 A 
ATOM     35  H   UNL     1      -0.148  -4.181   5.741  0.00  0.00    +0.167 HD
ENDBRANCH  22  34
ENDBRANCH   1  25
TORSDOF 4
