REMARK  Name = ZINC40158999
REMARK  9 active torsions:
REMARK  status: ('A' for Active; 'I' for Inactive)
REMARK    1  A    between atoms: C_1  and  C_2
REMARK    2  A    between atoms: C_8  and  C_12
REMARK    3  A    between atoms: C_12  and  O_14
REMARK    4  A    between atoms: O_14  and  C_15
REMARK    5  A    between atoms: C_15  and  C_16
REMARK    6  A    between atoms: C_19  and  C_32
REMARK    7  A    between atoms: C_22  and  C_24
REMARK    8  A    between atoms: C_27  and  O_30
REMARK    9  A    between atoms: O_30  and  C_31
REMARK                            x       y       z     vdW  Elec       q    Type
REMARK                         _______ _______ _______ _____ _____    ______ ____
ROOT
ATOM      1  C   UNL     1      -0.915   0.958   6.792  0.00  0.00    +0.273 C 
ATOM      2  O   UNL     1      -1.768   0.097   6.836  0.00  0.00    -0.270 OA
ATOM      3  N   UNL     1      -0.720   1.768   7.851  0.00  0.00    -0.179 N 
ATOM      4  C   UNL     1      -1.466   1.714   9.119  0.00  0.00    +0.173 C 
ATOM      5  C   UNL     1      -0.841   2.848   9.955  0.00  0.00    +0.090 C 
ATOM      6  C   UNL     1       0.215   3.433   9.044  0.00  0.00    +0.069 C 
ATOM      7  N   UNL     1       0.223   2.792   7.927  0.00  0.00    -0.181 NA
ENDROOT
BRANCH   6   8
ATOM      8  C   UNL     1       1.102   4.560   9.384  0.00  0.00    -0.002 A 
ATOM      9  C   UNL     1       1.009   5.172  10.637  0.00  0.00    +0.013 A 
ATOM     10  C   UNL     1       1.841   6.225  10.951  0.00  0.00    +0.046 A 
ATOM     11  C   UNL     1       2.771   6.678  10.024  0.00  0.00    +0.120 A 
ATOM     12  C   UNL     1       2.867   6.072   8.777  0.00  0.00    +0.046 A 
ATOM     13  C   UNL     1       2.043   5.015   8.457  0.00  0.00    +0.013 A 
BRANCH  11  14
ATOM     14  O   UNL     1       3.589   7.717  10.337  0.00  0.00    -0.495 OA
ATOM     15  C   UNL     1       4.522   8.132   9.338  0.00  0.00    +0.277 C 
ENDBRANCH  11  14
ENDBRANCH   6   8
BRANCH   4  16
ATOM     16  C   UNL     1      -2.932   1.969   8.884  0.00  0.00    +0.128 A 
ATOM     17  C   UNL     1      -3.949   1.352   9.512  0.00  0.00    +0.046 A 
ATOM     18  C   UNL     1      -5.144   1.895   8.988  0.00  0.00    +0.041 A 
ATOM     19  C   UNL     1      -4.786   2.812   8.071  0.00  0.00    +0.195 A 
ATOM     20  O   UNL     1      -3.445   2.857   8.016  0.00  0.00    -0.466 OA
ENDBRANCH   4  16
BRANCH   1  21
ATOM     21  C   UNL     1      -0.072   1.122   5.553  0.00  0.00    +0.329 C 
BRANCH  21  22
ATOM     22  O   UNL     1      -0.465   0.154   4.579  0.00  0.00    -0.454 OA
BRANCH  22  23
ATOM     23  C   UNL     1       0.193   0.165   3.409  0.00  0.00    +0.329 C 
ATOM     24  O   UNL     1       1.073   0.971   3.219  0.00  0.00    -0.249 OA
BRANCH  23  32
ATOM     25  C   UNL     1      -0.019   1.526   0.010  0.00  0.00    +0.044 C 
ATOM     26  C   UNL     1       0.002  -0.004   0.002  0.00  0.00    +0.082 C 
ATOM     27  C   UNL     1       0.727  -0.586  -1.221  0.00  0.00    +0.046 C 
ATOM     28  C   UNL     1       2.173  -0.676  -0.673  0.00  0.00    +0.099 C 
ATOM     29  C   UNL     1       1.998  -0.817   0.822  0.00  0.00    +0.217 C 
ATOM     30  O   UNL     1       2.886  -1.093   1.599  0.00  0.00    -0.276 OA
ATOM     31  N   UNL     1       0.703  -0.589   1.174  0.00  0.00    -0.273 N 
ATOM     32  C   UNL     1      -0.166  -0.826   2.332  0.00  0.00    +0.196 C 
ATOM     33  C   UNL     1      -1.681  -0.702   2.044  0.00  0.00    +0.105 C 
ATOM     34  S   UNL     1      -1.671  -0.749   0.195  0.00  0.00    -0.133 S 
ENDBRANCH  23  32
ENDBRANCH  22  23
ENDBRANCH  21  22
ENDBRANCH   1  21
TORSDOF 7
