REMARK  Name = ZINC43740139
REMARK  12 active torsions:
REMARK  status: ('A' for Active; 'I' for Inactive)
REMARK    1  A    between atoms: C_1  and  C_2
REMARK    2  A    between atoms: C_13  and  O_15
REMARK    3  A    between atoms: N_21  and  O_22
REMARK    4  A    between atoms: O_22  and  C_23
REMARK    5  A    between atoms: C_23  and  C_24
REMARK    6  A    between atoms: N_26  and  C_27
REMARK    7  A    between atoms: C_27  and  C_29
REMARK    8  A    between atoms: C_27  and  C_33
REMARK    9  A    between atoms: C_29  and  C_30
REMARK   10  A    between atoms: C_38  and  C_40
REMARK   11  A    between atoms: C_38  and  C_41
REMARK   12  A    between atoms: C_44  and  C_45
REMARK                            x       y       z     vdW  Elec       q    Type
REMARK                         _______ _______ _______ _____ _____    ______ ____
ROOT
ATOM      1  C   UNL     1      -0.529   1.314   1.717  0.00  0.00    +0.014 C 
ATOM      2  C   UNL     1      -0.448  -0.224   1.663  0.00  0.00    -0.003 C 
ATOM      3  C   UNL     1      -0.041  -0.604   0.263  0.00  0.00    +0.010 C 
ATOM      4  C   UNL     1       0.482  -2.017   0.103  0.00  0.00    +0.005 C 
ATOM      5  C   UNL     1       1.488  -2.428   1.167  0.00  0.00    +0.002 C 
ATOM      6  C   UNL     1       0.969  -2.124   2.557  0.00  0.00    -0.003 C 
ATOM      7  C   UNL     1       0.531  -0.678   2.753  0.00  0.00    +0.001 C 
ATOM      8  C   UNL     1      -0.347  -0.639   4.039  0.00  0.00    +0.007 C 
ATOM      9  C   UNL     1      -1.753  -1.065   3.571  0.00  0.00    +0.032 C 
ATOM     10  C   UNL     1      -1.823  -0.771   2.060  0.00  0.00    +0.121 C 
ATOM     11  C   UNL     1       1.949  -2.538   3.652  0.00  0.00    +0.008 C 
ATOM     12  C   UNL     1       3.318  -1.885   3.428  0.00  0.00    +0.031 C 
ATOM     13  C   UNL     1       3.790  -2.328   2.053  0.00  0.00    -0.062 C 
ATOM     14  C   UNL     1       4.947  -2.959   1.954  0.00  0.00    +0.026 C 
ATOM     15  C   UNL     1       5.395  -3.451   0.638  0.00  0.00    +0.080 C 
ATOM     16  N   UNL     1       6.638  -3.679   0.364  0.00  0.00    -0.089 NA
ATOM     17  C   UNL     1       4.288  -3.715  -0.367  0.00  0.00    +0.059 C 
ATOM     18  C   UNL     1       3.411  -2.472  -0.453  0.00  0.00    +0.017 C 
ATOM     19  C   UNL     1       2.907  -1.983   0.888  0.00  0.00    -0.007 C 
ATOM     20  C   UNL     1       2.960  -0.456   0.786  0.00  0.00    +0.016 C 
ENDROOT
BRANCH  10  21
ATOM     21  O   UNL     1      -2.134  -1.962   1.338  0.00  0.00    -0.391 OA
ATOM     22  H   UNL     1      -2.995  -2.342   1.558  0.00  0.00    +0.210 HD
ENDBRANCH  10  21
BRANCH  16  23
ATOM     23  O   UNL     1       7.005  -4.151  -0.919  0.00  0.00    -0.384 OA
BRANCH  23  24
ATOM     24  C   UNL     1       8.409  -4.360  -1.081  0.00  0.00    +0.358 C 
BRANCH  24  25
ATOM     25  C   UNL     1       8.685  -4.860  -2.476  0.00  0.00    +0.254 C 
ATOM     26  O   UNL     1       7.769  -5.022  -3.254  0.00  0.00    -0.272 OA
ATOM     27  N   UNL     1       9.950  -5.127  -2.859  0.00  0.00    -0.309 N 
ATOM     28  H   UNL     1      10.689  -4.922  -2.265  0.00  0.00    +0.149 HD
BRANCH  27  29
ATOM     29  C   UNL     1      10.207  -5.726  -4.170  0.00  0.00    +0.087 C 
BRANCH  29  30
ATOM     30  C   UNL     1      10.756  -7.142  -3.985  0.00  0.00    +0.015 C 
ATOM     31  C   UNL     1      11.022  -7.772  -5.356  0.00  0.00    +0.033 C 
ATOM     32  C   UNL     1      11.496  -9.214  -5.163  0.00  0.00    +0.161 C 
ATOM     33  O   UNL     1      10.510  -9.945  -4.431  0.00  0.00    -0.374 OA
ATOM     34  C   UNL     1      10.254  -9.429  -3.122  0.00  0.00    +0.064 C 
ATOM     35  C   UNL     1       9.731  -7.995  -3.232  0.00  0.00    +0.040 C 
ATOM     36  C   UNL     1      11.550  -9.437  -2.309  0.00  0.00    +0.041 C 
ATOM     37  C   UNL     1       9.209 -10.302  -2.425  0.00  0.00    +0.041 C 
ENDBRANCH  29  30
BRANCH  29  38
ATOM     38  C   UNL     1      11.230  -4.877  -4.927  0.00  0.00    +0.147 C 
BRANCH  38  39
ATOM     39  C   UNL     1      10.636  -3.525  -5.229  0.00  0.00    +0.358 C 
ATOM     40  O   UNL     1       9.466  -3.301  -4.968  0.00  0.00    -0.246 OA
ATOM     41  O   UNL     1      11.326  -2.655  -5.732  0.00  0.00    -0.246 OA
ENDBRANCH  38  39
ENDBRANCH  29  38
ENDBRANCH  27  29
ENDBRANCH  24  25
ENDBRANCH  23  24
ENDBRANCH  16  23
TORSDOF 8
