REMARK  Name = ZINC04525865
REMARK  7 active torsions:
REMARK  status: ('A' for Active; 'I' for Inactive)
REMARK    1  A    between atoms: C_3  and  O_14
REMARK    2  A    between atoms: C_6  and  C_7
REMARK    3  A    between atoms: N_8  and  N_9
REMARK    4  A    between atoms: C_10  and  C_12
REMARK    5  A    between atoms: C_12  and  O_13
REMARK    6  A    between atoms: O_14  and  C_15
REMARK    7  A    between atoms: C_18  and  N_22
REMARK                            x       y       z     vdW  Elec       q    Type
REMARK                         _______ _______ _______ _____ _____    ______ ____
ROOT
ATOM      1  C   UNL     1      -6.043   7.389   0.390  0.00  0.00    +0.013 A 
ATOM      2  C   UNL     1      -6.066   6.016   0.277  0.00  0.00    +0.047 A 
ATOM      3  C   UNL     1      -4.878   5.306   0.159  0.00  0.00    +0.129 A 
ATOM      4  C   UNL     1      -3.661   5.976   0.160  0.00  0.00    +0.047 A 
ATOM      5  C   UNL     1      -3.628   7.349   0.268  0.00  0.00    +0.013 A 
ATOM      6  C   UNL     1      -4.821   8.067   0.387  0.00  0.00    -0.005 A 
ENDROOT
BRANCH   6   7
ATOM      7  C   UNL     1      -4.790   9.536   0.507  0.00  0.00    +0.138 C 
ATOM      8  N   UNL     1      -3.655  10.164   0.503  0.00  0.00    -0.188 NA
BRANCH   8   9
ATOM      9  N   UNL     1      -3.626  11.560   0.617  0.00  0.00    -0.205 N 
ATOM     10  C   UNL     1      -2.446  12.213   0.613  0.00  0.00    +0.258 C 
ATOM     11  O   UNL     1      -1.410  11.591   0.511  0.00  0.00    -0.272 OA
ATOM     12  H   UNL     1      -4.455  12.057   0.699  0.00  0.00    +0.177 HD
BRANCH  10  13
ATOM     13  C   UNL     1      -2.415  13.714   0.736  0.00  0.00    +0.253 C 
BRANCH  13  14
ATOM     14  O   UNL     1      -1.060  14.167   0.707  0.00  0.00    -0.386 OA
ATOM     15  H   UNL     1      -0.964  15.126   0.782  0.00  0.00    +0.210 HD
ENDBRANCH  13  14
ENDBRANCH  10  13
ENDBRANCH   8   9
ENDBRANCH   6   7
BRANCH   3  16
ATOM     16  O   UNL     1      -4.906   3.953   0.047  0.00  0.00    -0.455 OA
BRANCH  16  17
ATOM     17  C   UNL     1      -3.721   3.287   0.052  0.00  0.00    +0.147 A 
ATOM     18  C   UNL     1      -3.146   2.885  -1.144  0.00  0.00    +0.050 A 
ATOM     19  C   UNL     1      -1.938   2.213  -1.137  0.00  0.00    +0.036 A 
ATOM     20  C   UNL     1      -1.308   1.932   0.062  0.00  0.00    +0.128 A 
ATOM     21  C   UNL     1      -1.879   2.332   1.256  0.00  0.00    +0.056 A 
ATOM     22  C   UNL     1      -3.085   3.009   1.254  0.00  0.00    +0.085 A 
ATOM     23 CL   UNL     1      -3.801   3.512   2.754  0.00  0.00    -0.080 Cl
BRANCH  20  24
ATOM     24  N   UNL     1      -0.018   1.208   0.066  0.00  0.00    +0.056 N 
ATOM     25  O   UNL     1       0.540   0.964   1.121  0.00  0.00    -0.126 OA
ATOM     26  O   UNL     1       0.484   0.851  -0.985  0.00  0.00    -0.126 OA
ENDBRANCH  20  24
ENDBRANCH  16  17
ENDBRANCH   3  16
TORSDOF 7
