REMARK  Name = ZINC14231941
REMARK  8 active torsions:
REMARK  status: ('A' for Active; 'I' for Inactive)
REMARK    1  A    between atoms: C_1  and  N_54
REMARK    2  A    between atoms: C_2  and  C_3
REMARK    3  A    between atoms: C_2  and  N_54
REMARK    4  A    between atoms: N_5  and  C_14
REMARK    5  A    between atoms: C_7  and  C_8
REMARK    6  A    between atoms: C_20  and  N_21
REMARK    7  A    between atoms: C_20  and  N_54
REMARK    8  A    between atoms: N_24  and  C_27
REMARK                            x       y       z     vdW  Elec       q    Type
REMARK                         _______ _______ _______ _____ _____    ______ ____
ROOT
ATOM      1  C   UNL     1       1.089   1.934  -0.062  0.00  0.00    -0.018 A 
ATOM      2  C   UNL     1       0.111   1.077   0.305  0.00  0.00    +0.116 A 
ATOM      3  N   UNL     1      -0.993   1.809   0.606  0.00  0.00    -0.239 N 
ATOM      4  N   UNL     1      -0.678   3.162   0.426  0.00  0.00    -0.166 NA
ATOM      5  C   UNL     1       0.572   3.242   0.021  0.00  0.00    +0.094 A 
ENDROOT
BRANCH   5   6
ATOM      6  C   UNL     1       1.308   4.492  -0.293  0.00  0.00    +0.002 A 
ATOM      7  C   UNL     1       2.630   4.646   0.118  0.00  0.00    +0.010 A 
ATOM      8  C   UNL     1       3.312   5.809  -0.181  0.00  0.00    +0.001 A 
ATOM      9  C   UNL     1       2.680   6.824  -0.877  0.00  0.00    +0.000 A 
ATOM     10  C   UNL     1       1.366   6.678  -1.282  0.00  0.00    +0.001 A 
ATOM     11  C   UNL     1       0.677   5.518  -0.994  0.00  0.00    +0.010 A 
ENDBRANCH   5   6
BRANCH   3  12
ATOM     12  C   UNL     1      -2.228   1.300   1.027  0.00  0.00    +0.065 A 
ATOM     13  C   UNL     1      -2.406  -0.071   1.163  0.00  0.00    +0.028 A 
ATOM     14  C   UNL     1      -3.624  -0.570   1.583  0.00  0.00    +0.002 A 
ATOM     15  C   UNL     1      -4.669   0.294   1.857  0.00  0.00    +0.000 A 
ATOM     16  C   UNL     1      -4.496   1.659   1.718  0.00  0.00    +0.002 A 
ATOM     17  C   UNL     1      -3.280   2.164   1.304  0.00  0.00    +0.028 A 
ENDBRANCH   3  12
BRANCH   1  18
ATOM     18  C   UNL     1       2.485   1.558  -0.486  0.00  0.00    -0.037 C 
BRANCH  18  20
ATOM     19  C   UNL     1       1.933  -0.386  -1.820  0.00  0.00    -0.093 C 
ATOM     20  N   UNL     1       2.573   0.085  -0.573  0.00  0.00    +0.394 N 
ATOM     21  H   UNL     1       2.083  -0.326   0.230  0.00  0.00    -0.079 HD
BRANCH  20  22
ATOM     22  C   UNL     1       3.989  -0.339  -0.540  0.00  0.00    +0.072 C 
BRANCH  22  23
ATOM     23  N   UNL     1       4.042  -1.779  -0.275  0.00  0.00    -0.258 N 
ATOM     24  C   UNL     1       3.990  -2.371   0.937  0.00  0.00    +0.176 A 
ATOM     25  S   UNL     1       3.850  -1.578   2.448  0.00  0.00    -0.011 S 
ATOM     26  N   UNL     1       4.066  -3.703   0.738  0.00  0.00    -0.306 N 
ATOM     27  C   UNL     1       4.175  -3.933  -0.611  0.00  0.00    +0.223 A 
ATOM     28  N   UNL     1       4.163  -2.797  -1.231  0.00  0.00    -0.161 NA
BRANCH  26  29
ATOM     29  C   UNL     1       4.042  -4.728   1.784  0.00  0.00    +0.091 C 
ATOM     30  C   UNL     1       4.348  -6.168   1.368  0.00  0.00    +0.027 C 
ATOM     31  C   UNL     1       2.918  -5.765   1.731  0.00  0.00    +0.027 C 
ENDBRANCH  26  29
ENDBRANCH  22  23
ENDBRANCH  20  22
ENDBRANCH  18  20
ENDBRANCH   1  18
TORSDOF 7
