REMARK  Name = ZINC57305342
REMARK  6 active torsions:
REMARK  status: ('A' for Active; 'I' for Inactive)
REMARK    1  A    between atoms: C_6  and  C_7
REMARK    2  A    between atoms: C_10  and  S_12
REMARK    3  A    between atoms: S_12  and  C_13
REMARK    4  A    between atoms: C_13  and  C_14
REMARK    5  A    between atoms: C_17  and  C_19
REMARK    6  A    between atoms: C_24  and  C_27
REMARK                            x       y       z     vdW  Elec       q    Type
REMARK                         _______ _______ _______ _____ _____    ______ ____
ROOT
ATOM      1  C   UNL     1      -7.814  -1.540   0.043  0.00  0.00    +0.116 A 
ATOM      2  C   UNL     1      -8.472  -1.037  -1.025  0.00  0.00    +0.046 A 
ATOM      3  C   UNL     1      -9.699  -0.540  -0.558  0.00  0.00    +0.055 A 
ATOM      4  C   UNL     1      -9.728  -0.768   0.788  0.00  0.00    +0.190 A 
ATOM      5  O   UNL     1      -8.576  -1.381   1.133  0.00  0.00    -0.454 OA
ENDROOT
BRANCH   4   6
ATOM      6  C   UNL     1     -10.821  -0.413   1.699  0.00  0.00    +0.282 C 
ATOM      7  O   UNL     1     -11.872   0.008   1.254  0.00  0.00    -0.267 OA
ATOM      8  N   UNL     1     -10.662  -0.554   3.030  0.00  0.00    -0.295 N 
ATOM      9  C   UNL     1      -9.350  -0.902   3.594  0.00  0.00    +0.109 C 
ATOM     10  C   UNL     1      -8.984   0.131   4.664  0.00  0.00    +0.032 C 
ATOM     11  C   UNL     1     -10.111   0.212   5.697  0.00  0.00    +0.078 C 
ATOM     12  C   UNL     1     -11.402   0.664   5.010  0.00  0.00    +0.032 C 
ATOM     13  C   UNL     1     -11.794  -0.357   3.945  0.00  0.00    +0.109 C 
BRANCH  11  14
ATOM     14  C   UNL     1      -9.739   1.203   6.769  0.00  0.00    +0.214 C 
ATOM     15  O   UNL     1      -8.677   1.787   6.713  0.00  0.00    -0.276 OA
ATOM     16  N   UNL     1     -10.586   1.441   7.790  0.00  0.00    -0.329 N 
ATOM     17  H   UNL     1     -11.435   0.974   7.835  0.00  0.00    +0.145 HD
ATOM     18  H   UNL     1     -10.347   2.079   8.480  0.00  0.00    +0.145 HD
ENDBRANCH  11  14
ENDBRANCH   4   6
BRANCH   1  19
ATOM     19  C   UNL     1      -6.451  -2.181   0.011  0.00  0.00    +0.150 C 
BRANCH  19  20
ATOM     20  S   UNL     1      -5.181  -0.913   0.280  0.00  0.00    -0.091 S 
BRANCH  20  24
ATOM     21  C   UNL     1      -1.389  -2.196   0.272  0.00  0.00    +0.079 A 
ATOM     22  C   UNL     1      -1.609  -3.525   0.047  0.00  0.00    +0.076 A 
ATOM     23  S   UNL     1      -3.394  -3.555  -0.051  0.00  0.00    -0.069 S 
ATOM     24  C   UNL     1      -3.665  -1.809   0.215  0.00  0.00    +0.136 A 
ATOM     25  N   UNL     1      -2.427  -1.368   0.356  0.00  0.00    -0.233 NA
BRANCH  21  31
ATOM     26  C   UNL     1       0.213  -0.325   0.661  0.00  0.00    +0.011 A 
ATOM     27  C   UNL     1       1.501   0.149   0.805  0.00  0.00    +0.020 A 
ATOM     28  C   UNL     1       2.575  -0.721   0.718  0.00  0.00    +0.041 A 
ATOM     29  C   UNL     1       2.362  -2.069   0.484  0.00  0.00    +0.020 A 
ATOM     30  C   UNL     1       1.078  -2.552   0.339  0.00  0.00    +0.011 A 
ATOM     31  C   UNL     1      -0.006  -1.681   0.427  0.00  0.00    +0.001 A 
ATOM     32 CL   UNL     1       4.193  -0.119   0.900  0.00  0.00    -0.084 Cl
ENDBRANCH  21  31
ENDBRANCH  20  24
ENDBRANCH  19  20
ENDBRANCH   1  19
TORSDOF 6
