REMARK  Name = ZINC04405247
REMARK  6 active torsions:
REMARK  status: ('A' for Active; 'I' for Inactive)
REMARK    1  A    between atoms: C_1  and  C_2
REMARK    2  A    between atoms: C_6  and  C_8
REMARK    3  A    between atoms: C_8  and  C_23
REMARK    4  A    between atoms: C_10  and  C_12
REMARK    5  A    between atoms: N_14  and  N_15
REMARK    6  A    between atoms: C_27  and  C_29
REMARK                            x       y       z     vdW  Elec       q    Type
REMARK                         _______ _______ _______ _____ _____    ______ ____
ROOT
ATOM      1  C   UNL     1      -0.001   0.005   0.001  0.00  0.00    +0.033 C 
ATOM      2  C   UNL     1      -0.621  -0.616  -1.251  0.00  0.00    +0.031 C 
ATOM      3  C   UNL     1      -1.329  -0.747   0.099  0.00  0.00    +0.093 C 
ENDROOT
BRANCH   1   9
ATOM      4  C   UNL     1      -0.211   4.114   2.851  0.00  0.00    +0.044 C 
ATOM      5  C   UNL     1      -0.140   3.472   1.489  0.00  0.00    -0.050 A 
ATOM      6  C   UNL     1      -0.112   4.261   0.354  0.00  0.00    +0.003 A 
ATOM      7  C   UNL     1      -0.047   3.672  -0.895  0.00  0.00    +0.001 A 
ATOM      8  C   UNL     1      -0.006   2.295  -1.009  0.00  0.00    +0.004 A 
ATOM      9  C   UNL     1      -0.040   1.506   0.126  0.00  0.00    -0.036 A 
ATOM     10  C   UNL     1      -0.104   2.095   1.375  0.00  0.00    +0.008 A 
ENDBRANCH   1   9
BRANCH   1  11
ATOM     11  C   UNL     1       1.221  -0.663   0.577  0.00  0.00    -0.036 A 
ATOM     12  C   UNL     1       1.132  -1.944   1.088  0.00  0.00    +0.004 A 
ATOM     13  C   UNL     1       2.254  -2.559   1.613  0.00  0.00    +0.001 A 
ATOM     14  C   UNL     1       3.463  -1.889   1.634  0.00  0.00    +0.003 A 
ATOM     15  C   UNL     1       3.551  -0.606   1.128  0.00  0.00    -0.050 A 
ATOM     16  C   UNL     1       2.430   0.007   0.599  0.00  0.00    +0.008 A 
ATOM     17  C   UNL     1       4.869   0.125   1.151  0.00  0.00    +0.044 C 
ENDBRANCH   1  11
BRANCH   3  18
ATOM     18  C   UNL     1      -2.577   0.070   0.314  0.00  0.00    +0.236 C 
ATOM     19  O   UNL     1      -2.523   1.281   0.274  0.00  0.00    -0.274 OA
ATOM     20  N   UNL     1      -3.753  -0.545   0.549  0.00  0.00    -0.207 N 
ATOM     21  H   UNL     1      -3.796  -1.513   0.581  0.00  0.00    +0.177 HD
BRANCH  20  22
ATOM     22  N   UNL     1      -4.913   0.215   0.749  0.00  0.00    -0.189 NA
ATOM     23  C   UNL     1      -6.045  -0.368   0.884  0.00  0.00    +0.037 C 
ATOM     24  C   UNL     1      -6.121  -1.889   0.976  0.00  0.00    +0.052 C 
ATOM     25  C   UNL     1      -7.153  -2.315   1.992  0.00  0.00    +0.006 C 
ATOM     26  C   UNL     1      -8.521  -2.462   1.312  0.00  0.00    +0.000 C 
ATOM     27  C   UNL     1      -9.204  -1.178   1.133  0.00  0.00    +0.000 C 
ATOM     28  C   UNL     1      -8.443  -0.228   0.197  0.00  0.00    +0.006 C 
ATOM     29  C   UNL     1      -7.330   0.451   0.949  0.00  0.00    +0.052 C 
ENDBRANCH  20  22
ENDBRANCH   3  18
TORSDOF 4
