REMARK  Name = ZINC39910671
REMARK  11 active torsions:
REMARK  status: ('A' for Active; 'I' for Inactive)
REMARK    1  A    between atoms: C_1  and  C_2
REMARK    2  A    between atoms: C_2  and  C_3
REMARK    3  A    between atoms: C_3  and  C_4
REMARK    4  A    between atoms: C_4  and  C_5
REMARK    5  A    between atoms: C_5  and  N_6
REMARK    6  A    between atoms: C_7  and  C_24
REMARK    7  A    between atoms: C_14  and  C_23
REMARK    8  A    between atoms: C_16  and  C_22
REMARK    9  A    between atoms: C_27  and  O_32
REMARK   10  A    between atoms: C_28  and  O_30
REMARK   11  A    between atoms: O_30  and  C_31
REMARK                            x       y       z     vdW  Elec       q    Type
REMARK                         _______ _______ _______ _____ _____    ______ ____
ROOT
ATOM      1  N   UNL     1       1.475  -3.986  -2.532  0.00  0.00    -0.284 N 
ATOM      2  C   UNL     1       2.521  -4.840  -1.946  0.00  0.00    +0.145 C 
ATOM      3  C   UNL     1       2.094  -6.246  -2.211  0.00  0.00    +0.072 A 
ATOM      4  C   UNL     1       2.727  -7.527  -1.878  0.00  0.00    +0.199 A 
ATOM      5  O   UNL     1       3.689  -7.623  -1.137  0.00  0.00    -0.287 OA
ATOM      6  C   UNL     1       2.083  -8.695  -2.530  0.00  0.00    +0.065 A 
ATOM      7  C   UNL     1       2.682  -9.953  -2.476  0.00  0.00    +0.018 A 
ATOM      8  C   UNL     1       2.079 -11.018  -3.086  0.00  0.00    -0.049 A 
ATOM      9  C   UNL     1       0.876 -10.849  -3.758  0.00  0.00    +0.010 A 
ATOM     10  C   UNL     1       0.270  -9.614  -3.820  0.00  0.00    -0.007 A 
ATOM     11  C   UNL     1       0.864  -8.513  -3.204  0.00  0.00    +0.142 A 
ATOM     12  O   UNL     1       0.247  -7.311  -3.269  0.00  0.00    -0.449 OA
ATOM     13  C   UNL     1       0.906  -6.201  -2.884  0.00  0.00    +0.199 A 
ATOM     14  C   UNL     1       0.535  -4.788  -3.073  0.00  0.00    +0.283 C 
ATOM     15  O   UNL     1      -0.470  -4.402  -3.635  0.00  0.00    -0.267 OA
ATOM     16  C   UNL     1      -1.036  -9.453  -4.554  0.00  0.00    +0.047 C 
ATOM     17  C   UNL     1       2.723 -12.379  -3.030  0.00  0.00    +0.044 C 
ENDROOT
BRANCH   2  18
ATOM     18  C   UNL     1       2.620  -4.596  -0.462  0.00  0.00    -0.019 A 
ATOM     19  C   UNL     1       1.471  -4.420   0.286  0.00  0.00    +0.009 A 
ATOM     20  C   UNL     1       1.557  -4.196   1.648  0.00  0.00    +0.049 A 
ATOM     21  C   UNL     1       2.797  -4.147   2.265  0.00  0.00    +0.158 A 
ATOM     22  C   UNL     1       3.953  -4.324   1.512  0.00  0.00    +0.162 A 
ATOM     23  C   UNL     1       3.860  -4.553   0.148  0.00  0.00    +0.055 A 
BRANCH  22  24
ATOM     24  O   UNL     1       5.172  -4.277   2.113  0.00  0.00    -0.491 OA
ATOM     25  C   UNL     1       6.315  -4.468   1.278  0.00  0.00    +0.277 C 
ENDBRANCH  22  24
BRANCH  21  26
ATOM     26  O   UNL     1       2.883  -3.927   3.604  0.00  0.00    -0.503 OA
ATOM     27  H   UNL     1       2.869  -4.733   4.138  0.00  0.00    +0.292 HD
ENDBRANCH  21  26
ENDBRANCH   2  18
BRANCH   1  28
ATOM     28  C   UNL     1       1.455  -2.521  -2.524  0.00  0.00    +0.109 C 
BRANCH  28  29
ATOM     29  C   UNL     1       0.739  -2.027  -1.265  0.00  0.00    +0.019 C 
BRANCH  29  30
ATOM     30  C   UNL     1       0.718  -0.497  -1.257  0.00  0.00    +0.001 C 
BRANCH  30  32
ATOM     31  C   UNL     1      -0.019   1.526   0.010  0.00  0.00    +0.004 C 
ATOM     32  C   UNL     1       0.002  -0.004   0.002  0.00  0.00    -0.003 C 
ENDBRANCH  30  32
ENDBRANCH  29  30
ENDBRANCH  28  29
ENDBRANCH   1  28
TORSDOF 7
