REMARK  Name = ZINC44854945
REMARK  9 active torsions:
REMARK  status: ('A' for Active; 'I' for Inactive)
REMARK    1  A    between atoms: C_1  and  C_2
REMARK    2  A    between atoms: C_5  and  C_8
REMARK    3  A    between atoms: C_8  and  N_9
REMARK    4  A    between atoms: C_12  and  C_15
REMARK    5  A    between atoms: N_17  and  C_18
REMARK    6  A    between atoms: C_18  and  C_20
REMARK    7  A    between atoms: C_18  and  C_21
REMARK    8  A    between atoms: C_24  and  N_27
REMARK    9  A    between atoms: C_31  and  C_34
REMARK                            x       y       z     vdW  Elec       q    Type
REMARK                         _______ _______ _______ _____ _____    ______ ____
ROOT
ATOM      1  C   UNL     1       5.106  -6.704   0.876  0.00  0.00    +0.216 C 
ATOM      2  O   UNL     1       5.976  -5.861   0.930  0.00  0.00    -0.276 OA
ATOM      3  N   UNL     1       5.434  -8.003   0.725  0.00  0.00    -0.309 N 
ATOM      4  H   UNL     1       4.738  -8.677   0.681  0.00  0.00    +0.149 HD
ENDROOT
BRANCH   1   8
ATOM      5  N   UNL     1       1.445  -4.768  -0.097  0.00  0.00    +0.382 N 
ATOM      6  C   UNL     1       2.086  -4.369   1.162  0.00  0.00    -0.078 C 
ATOM      7  C   UNL     1       3.560  -4.781   1.141  0.00  0.00    -0.006 C 
ATOM      8  C   UNL     1       3.657  -6.300   0.976  0.00  0.00    +0.071 C 
ATOM      9  C   UNL     1       2.921  -6.713  -0.302  0.00  0.00    -0.006 C 
ATOM     10  C   UNL     1       1.471  -6.230  -0.227  0.00  0.00    -0.078 C 
ATOM     11  H   UNL     1       1.941  -4.353  -0.871  0.00  0.00    -0.081 HD
BRANCH   5  12
ATOM     12  C   UNL     1       0.052  -4.302  -0.104  0.00  0.00    -0.043 C 
BRANCH  12  17
ATOM     13  C   UNL     1      -0.050   1.476  -0.065  0.00  0.00    +0.044 C 
ATOM     14  C   UNL     1      -0.023  -0.031  -0.075  0.00  0.00    -0.050 A 
ATOM     15  C   UNL     1      -0.001  -0.714  -1.277  0.00  0.00    +0.003 A 
ATOM     16  C   UNL     1       0.023  -2.096  -1.286  0.00  0.00    +0.002 A 
ATOM     17  C   UNL     1       0.026  -2.795  -0.094  0.00  0.00    -0.064 A 
ATOM     18  C   UNL     1       0.005  -2.112   1.108  0.00  0.00    +0.002 A 
ATOM     19  C   UNL     1      -0.015  -0.730   1.117  0.00  0.00    +0.003 A 
ENDBRANCH  12  17
ENDBRANCH   5  12
ENDBRANCH   1   8
BRANCH   3  20
ATOM     20  C   UNL     1       6.842  -8.396   0.628  0.00  0.00    +0.100 C 
ATOM     21  C   UNL     1       7.310  -8.261  -0.823  0.00  0.00    +0.033 C 
BRANCH  20  22
ATOM     22  C   UNL     1       6.996  -9.827   1.074  0.00  0.00    -0.027 A 
ATOM     23  C   UNL     1       6.050 -10.768   0.712  0.00  0.00    +0.007 A 
ATOM     24  C   UNL     1       6.189 -12.081   1.119  0.00  0.00    +0.023 A 
ATOM     25  C   UNL     1       7.279 -12.454   1.894  0.00  0.00    +0.030 A 
ATOM     26  C   UNL     1       8.227 -11.506   2.257  0.00  0.00    +0.023 A 
ATOM     27  C   UNL     1       8.086 -10.197   1.841  0.00  0.00    +0.007 A 
BRANCH  25  28
ATOM     28  N   UNL     1       7.422 -13.780   2.308  0.00  0.00    -0.330 N 
ATOM     29  C   UNL     1       8.628 -14.215   3.025  0.00  0.00    +0.105 C 
ATOM     30  C   UNL     1       8.207 -14.897   4.331  0.00  0.00    +0.019 C 
ATOM     31  C   UNL     1       7.222 -16.025   4.018  0.00  0.00    +0.006 C 
ATOM     32  C   UNL     1       5.972 -15.443   3.353  0.00  0.00    +0.003 C 
ATOM     33  C   UNL     1       6.365 -14.766   2.041  0.00  0.00    +0.108 C 
ATOM     34  C   UNL     1       4.973 -16.567   3.071  0.00  0.00    +0.009 C 
ENDBRANCH  25  28
ENDBRANCH  20  22
ENDBRANCH   3  20
TORSDOF 6
