REMARK  Name = ZINC01212202
REMARK  7 active torsions:
REMARK  status: ('A' for Active; 'I' for Inactive)
REMARK    1  A    between atoms: C_1  and  C_2
REMARK    2  A    between atoms: C_9  and  C_21
REMARK    3  A    between atoms: C_15  and  C_19
REMARK    4  A    between atoms: C_15  and  C_20
REMARK    5  A    between atoms: C_24  and  O_29
REMARK    6  A    between atoms: C_25  and  O_27
REMARK    7  A    between atoms: O_27  and  C_28
REMARK                            x       y       z     vdW  Elec       q    Type
REMARK                         _______ _______ _______ _____ _____    ______ ____
ROOT
ATOM      1  C   UNL     1       2.063   5.152   4.715  0.00  0.00    +0.044 C 
ATOM      2  C   UNL     1       3.300   4.536   4.113  0.00  0.00    -0.049 A 
ATOM      3  C   UNL     1       4.100   3.713   4.884  0.00  0.00    +0.005 A 
ATOM      4  C   UNL     1       5.252   3.160   4.348  0.00  0.00    +0.025 A 
ATOM      5  C   UNL     1       5.591   3.441   3.037  0.00  0.00    +0.052 A 
ATOM      6  C   UNL     1       4.768   4.231   2.249  0.00  0.00    +0.050 A 
ATOM      7  C   UNL     1       3.626   4.798   2.795  0.00  0.00    +0.028 A 
ATOM      8  N   UNL     1       5.107   4.428   0.913  0.00  0.00    -0.331 N 
ATOM      9  C   UNL     1       5.106   3.325  -0.024  0.00  0.00    +0.136 C 
ATOM     10  C   UNL     1       6.129   2.255   0.275  0.00  0.00    +0.036 C 
ATOM     11  C   UNL     1       6.847   2.140   1.401  0.00  0.00    +0.017 C 
ATOM     12  N   UNL     1       6.773   2.989   2.459  0.00  0.00    -0.316 N 
ATOM     13  C   UNL     1       7.851   1.011   1.566  0.00  0.00    +0.058 C 
ATOM     14  C   UNL     1       7.377  -0.224   0.815  0.00  0.00    -0.023 C 
ATOM     15  C   UNL     1       7.245   0.160  -0.664  0.00  0.00    +0.086 C 
ATOM     16  C   UNL     1       6.298   1.317  -0.771  0.00  0.00    +0.163 C 
ATOM     17  O   UNL     1       5.652   1.455  -1.792  0.00  0.00    -0.292 OA
ATOM     18  C   UNL     1       6.021  -0.679   1.356  0.00  0.00    +0.011 C 
ATOM     19  C   UNL     1       8.402  -1.349   0.969  0.00  0.00    +0.011 C 
ATOM     20  H   UNL     1       5.346   5.317   0.606  0.00  0.00    +0.147 HD
ATOM     21  H   UNL     1       7.608   3.304   2.841  0.00  0.00    +0.152 HD
ENDROOT
BRANCH   9  22
ATOM     22  C   UNL     1       3.738   2.693  -0.018  0.00  0.00    -0.019 A 
ATOM     23  C   UNL     1       3.224   2.174   1.155  0.00  0.00    +0.009 A 
ATOM     24  C   UNL     1       1.966   1.599   1.167  0.00  0.00    +0.049 A 
ATOM     25  C   UNL     1       1.224   1.532  -0.002  0.00  0.00    +0.158 A 
ATOM     26  C   UNL     1       1.742   2.055  -1.182  0.00  0.00    +0.162 A 
ATOM     27  C   UNL     1       3.001   2.635  -1.186  0.00  0.00    +0.055 A 
BRANCH  26  28
ATOM     28  O   UNL     1       1.015   1.997  -2.330  0.00  0.00    -0.491 OA
ATOM     29  C   UNL     1       1.611   2.554  -3.504  0.00  0.00    +0.277 C 
ENDBRANCH  26  28
BRANCH  25  30
ATOM     30  O   UNL     1      -0.010   0.961   0.007  0.00  0.00    -0.503 OA
ATOM     31  H   UNL     1      -0.006   0.012  -0.179  0.00  0.00    +0.292 HD
ENDBRANCH  25  30
ENDBRANCH   9  22
TORSDOF 3
