REMARK  Name = ZINC02247736
REMARK  10 active torsions:
REMARK  status: ('A' for Active; 'I' for Inactive)
REMARK    1  A    between atoms: C_1  and  C_2
REMARK    2  A    between atoms: C_2  and  O_3
REMARK    3  A    between atoms: O_3  and  C_4
REMARK    4  A    between atoms: C_7  and  C_10
REMARK    5  A    between atoms: N_11  and  N_12
REMARK    6  A    between atoms: C_13  and  N_36
REMARK    7  A    between atoms: C_14  and  C_25
REMARK    8  A    between atoms: N_27  and  C_28
REMARK    9  A    between atoms: C_28  and  C_29
REMARK   10  A    between atoms: C_29  and  C_30
REMARK                            x       y       z     vdW  Elec       q    Type
REMARK                         _______ _______ _______ _____ _____    ______ ____
ROOT
ATOM      1  N   UNL     1      -4.837   0.931   0.030  0.00  0.00    -0.198 N 
ATOM      2  C   UNL     1      -5.512   0.547  -1.090  0.00  0.00    +0.134 A 
ATOM      3  C   UNL     1      -6.668  -0.145  -0.747  0.00  0.00    +0.105 A 
ATOM      4  C   UNL     1      -6.712  -0.184   0.724  0.00  0.00    +0.124 A 
ATOM      5  C   UNL     1      -5.507   0.524   1.167  0.00  0.00    +0.183 A 
ATOM      6  N   UNL     1      -5.270   0.654   2.455  0.00  0.00    -0.224 NA
ATOM      7  C   UNL     1      -6.127   0.140   3.346  0.00  0.00    +0.092 A 
ATOM      8  C   UNL     1      -5.881   0.274   4.726  0.00  0.00    +0.030 A 
ATOM      9  C   UNL     1      -6.757  -0.253   5.624  0.00  0.00    +0.002 A 
ATOM     10  C   UNL     1      -7.902  -0.926   5.199  0.00  0.00    +0.002 A 
ATOM     11  C   UNL     1      -8.173  -1.075   3.875  0.00  0.00    +0.030 A 
ATOM     12  C   UNL     1      -7.291  -0.545   2.916  0.00  0.00    +0.090 A 
ATOM     13  N   UNL     1      -7.548  -0.687   1.609  0.00  0.00    -0.241 NA
ENDROOT
BRANCH   3  14
ATOM     14  C   UNL     1      -7.621  -0.701  -1.639  0.00  0.00    +0.250 C 
ATOM     15  O   UNL     1      -8.567  -0.032  -2.014  0.00  0.00    -0.270 OA
ATOM     16  N   UNL     1      -7.479  -1.970  -2.071  0.00  0.00    -0.311 N 
ATOM     17  H   UNL     1      -6.726  -2.503  -1.773  0.00  0.00    +0.149 HD
BRANCH  16  18
ATOM     18  C   UNL     1      -8.463  -2.543  -2.993  0.00  0.00    +0.109 C 
BRANCH  18  19
ATOM     19  C   UNL     1      -8.072  -3.985  -3.324  0.00  0.00    +0.054 C 
BRANCH  19  20
ATOM     20  C   UNL     1      -9.084  -4.575  -4.272  0.00  0.00    -0.046 A 
ATOM     21  C   UNL     1     -10.190  -5.240  -3.776  0.00  0.00    +0.004 A 
ATOM     22  C   UNL     1     -11.121  -5.777  -4.645  0.00  0.00    +0.000 A 
ATOM     23  C   UNL     1     -10.941  -5.659  -6.010  0.00  0.00    +0.000 A 
ATOM     24  C   UNL     1      -9.832  -4.999  -6.506  0.00  0.00    +0.000 A 
ATOM     25  C   UNL     1      -8.904  -4.457  -5.637  0.00  0.00    +0.004 A 
ENDBRANCH  19  20
ENDBRANCH  18  19
ENDBRANCH  16  18
ENDBRANCH   3  14
BRANCH   2  26
ATOM     26  N   UNL     1      -5.107   0.805  -2.375  0.00  0.00    -0.342 N 
ATOM     27  H   UNL     1      -4.284   1.294  -2.535  0.00  0.00    +0.144 HD
ATOM     28  H   UNL     1      -5.643   0.499  -3.123  0.00  0.00    +0.144 HD
ENDBRANCH   2  26
BRANCH   1  30
ATOM     29  C   UNL     1      -2.500   1.008   0.019  0.00  0.00    +0.141 C 
ATOM     30  N   UNL     1      -3.631   1.645   0.028  0.00  0.00    -0.171 NA
BRANCH  29  34
ATOM     31  C   UNL     1       1.153   3.171   0.008  0.00  0.00    +0.121 A 
ATOM     32  C   UNL     1       1.171   1.782   0.001  0.00  0.00    +0.046 A 
ATOM     33  C   UNL     1      -0.013   1.076   0.008  0.00  0.00    +0.013 A 
ATOM     34  C   UNL     1      -1.232   1.759   0.017  0.00  0.00    -0.005 A 
ATOM     35  C   UNL     1      -1.244   3.156   0.031  0.00  0.00    +0.013 A 
ATOM     36  C   UNL     1      -0.056   3.854   0.023  0.00  0.00    +0.046 A 
BRANCH  31  37
ATOM     37  O   UNL     1       2.322   3.863   0.000  0.00  0.00    -0.492 OA
BRANCH  37  39
ATOM     38  C   UNL     1       3.639   5.889  -0.002  0.00  0.00    +0.048 C 
ATOM     39  C   UNL     1       2.232   5.289   0.009  0.00  0.00    +0.225 C 
ENDBRANCH  37  39
ENDBRANCH  31  37
ENDBRANCH  29  34
ENDBRANCH   1  30
TORSDOF 9
