REMARK  Name = ZINC39736748
REMARK  9 active torsions:
REMARK  status: ('A' for Active; 'I' for Inactive)
REMARK    1  A    between atoms: C_1  and  C_2
REMARK    2  A    between atoms: C_4  and  S_24
REMARK    3  A    between atoms: C_5  and  C_23
REMARK    4  A    between atoms: N_7  and  C_8
REMARK    5  A    between atoms: C_8  and  C_9
REMARK    6  A    between atoms: N_11  and  C_12
REMARK    7  A    between atoms: C_12  and  C_13
REMARK    8  A    between atoms: C_13  and  C_14
REMARK    9  A    between atoms: S_24  and  N_27
REMARK                            x       y       z     vdW  Elec       q    Type
REMARK                         _______ _______ _______ _____ _____    ______ ____
ROOT
ATOM      1  C   UNL     1       0.388   2.165  -0.510  0.00  0.00    +0.032 C 
ATOM      2  C   UNL     1      -0.021   0.733  -0.158  0.00  0.00    +0.125 C 
ATOM      3  C   UNL     1       0.485  -0.235  -1.206  0.00  0.00    +0.122 C 
ATOM      4  C   UNL     1       1.303  -1.067  -0.593  0.00  0.00    +0.040 C 
ATOM      5  N   UNL     1       1.413  -0.776   0.753  0.00  0.00    -0.279 N 
ATOM      6  N   UNL     1       0.639   0.300   1.090  0.00  0.00    -0.212 NA
ATOM      7  C   UNL     1       2.029  -2.196  -1.277  0.00  0.00    +0.063 C 
ATOM      8  H   UNL     1       1.966  -1.272   1.377  0.00  0.00    +0.166 HD
ENDROOT
BRANCH   3   9
ATOM      9  S   UNL     1       0.060  -0.249  -2.916  0.00  0.00    +0.074 S 
ATOM     10  O   UNL     1      -0.144   1.106  -3.294  0.00  0.00    -0.150 OA
ATOM     11  O   UNL     1       1.009  -1.086  -3.563  0.00  0.00    -0.150 OA
BRANCH   9  12
ATOM     12  N   UNL     1      -1.407  -1.004  -3.050  0.00  0.00    -0.203 N 
ATOM     13  C   UNL     1      -1.595  -2.422  -3.369  0.00  0.00    +0.136 C 
ATOM     14  C   UNL     1      -3.118  -2.634  -3.378  0.00  0.00    +0.058 C 
ATOM     15  C   UNL     1      -3.693  -1.274  -3.051  0.00  0.00    -0.023 A 
ATOM     16  C   UNL     1      -2.645  -0.385  -2.869  0.00  0.00    +0.054 A 
ATOM     17  C   UNL     1      -2.931   0.944  -2.551  0.00  0.00    +0.025 A 
ATOM     18  C   UNL     1      -4.239   1.360  -2.416  0.00  0.00    +0.002 A 
ATOM     19  C   UNL     1      -5.277   0.465  -2.595  0.00  0.00    +0.000 A 
ATOM     20  C   UNL     1      -5.001  -0.851  -2.920  0.00  0.00    +0.005 A 
ENDBRANCH   9  12
ENDBRANCH   3   9
BRANCH   6  21
ATOM     21  C   UNL     1       1.457   1.381   1.656  0.00  0.00    +0.201 C 
BRANCH  21  22
ATOM     22  C   UNL     1       2.014   0.946   2.987  0.00  0.00    +0.229 C 
ATOM     23  O   UNL     1       1.755  -0.156   3.421  0.00  0.00    -0.274 OA
ATOM     24  N   UNL     1       2.800   1.782   3.694  0.00  0.00    -0.314 N 
ATOM     25  H   UNL     1       3.006   2.664   3.347  0.00  0.00    +0.149 HD
BRANCH  24  26
ATOM     26  C   UNL     1       3.341   1.359   4.988  0.00  0.00    +0.109 C 
BRANCH  26  27
ATOM     27  C   UNL     1       4.193   2.485   5.577  0.00  0.00    +0.056 C 
BRANCH  27  28
ATOM     28  C   UNL     1       4.750   2.050   6.908  0.00  0.00    -0.021 A 
ATOM     29  C   UNL     1       5.972   1.274   7.129  0.00  0.00    +0.003 A 
ATOM     30  C   UNL     1       6.940   0.726   6.285  0.00  0.00    +0.010 A 
ATOM     31  C   UNL     1       7.992   0.035   6.818  0.00  0.00    +0.001 A 
ATOM     32  C   UNL     1       8.106  -0.127   8.191  0.00  0.00    +0.002 A 
ATOM     33  C   UNL     1       7.162   0.405   9.043  0.00  0.00    +0.026 A 
ATOM     34  C   UNL     1       6.083   1.112   8.523  0.00  0.00    +0.047 A 
ATOM     35  N   UNL     1       5.003   1.748   9.093  0.00  0.00    -0.360 N 
ATOM     36  C   UNL     1       4.223   2.306   8.116  0.00  0.00    +0.087 A 
ATOM     37  H   UNL     1       4.824   1.797  10.045  0.00  0.00    +0.165 HD
ENDBRANCH  27  28
ENDBRANCH  26  27
ENDBRANCH  24  26
ENDBRANCH  21  22
ENDBRANCH   6  21
TORSDOF 7
