REMARK  Name = ZINC08914562
REMARK  7 active torsions:
REMARK  status: ('A' for Active; 'I' for Inactive)
REMARK    1  A    between atoms: C_1  and  C_2
REMARK    2  A    between atoms: C_2  and  O_3
REMARK    3  A    between atoms: O_3  and  C_4
REMARK    4  A    between atoms: C_9  and  N_10
REMARK    5  A    between atoms: C_13  and  C_19
REMARK    6  A    between atoms: C_14  and  O_18
REMARK    7  A    between atoms: C_16  and  O_17
REMARK                            x       y       z     vdW  Elec       q    Type
REMARK                         _______ _______ _______ _____ _____    ______ ____
ROOT
ATOM      1  N   UNL     1       3.595   2.117  -0.020  0.00  0.00    -0.227 N 
ATOM      2  C   UNL     1       4.165   2.466  -1.192  0.00  0.00    +0.267 A 
ATOM      3  O   UNL     1       3.639   2.167  -2.252  0.00  0.00    -0.267 OA
ATOM      4  C   UNL     1       5.371   3.177  -1.171  0.00  0.00    +0.069 A 
ATOM      5  C   UNL     1       5.934   3.496   0.052  0.00  0.00    +0.224 A 
ATOM      6  N   UNL     1       5.322   3.123   1.182  0.00  0.00    -0.161 NA
ATOM      7  C   UNL     1       4.188   2.460   1.155  0.00  0.00    +0.306 A 
ENDROOT
BRANCH   4   8
ATOM      8  C   UNL     1       6.044   3.587  -2.456  0.00  0.00    +0.001 C 
ATOM      9  C   UNL     1       6.489   2.356  -3.200  0.00  0.00    -0.054 A 
ATOM     10  C   UNL     1       7.072   1.324  -2.479  0.00  0.00    +0.002 A 
ATOM     11  C   UNL     1       7.497   0.178  -3.120  0.00  0.00    +0.000 A 
ATOM     12  C   UNL     1       7.342   0.057  -4.489  0.00  0.00    +0.000 A 
ATOM     13  C   UNL     1       6.761   1.082  -5.207  0.00  0.00    +0.004 A 
ATOM     14  C   UNL     1       6.332   2.233  -4.563  0.00  0.00    -0.047 A 
ATOM     15  C   UNL     1       5.694   3.322  -5.388  0.00  0.00    +0.016 C 
ATOM     16  C   UNL     1       5.675   4.631  -4.597  0.00  0.00    -0.077 C 
ATOM     17  N   UNL     1       5.097   4.366  -3.267  0.00  0.00    +0.387 N 
ATOM     18  H   UNL     1       4.901   5.258  -2.797  0.00  0.00    -0.085 HD
ATOM     19  H   UNL     1       4.224   3.837  -3.373  0.00  0.00    -0.085 HD
ENDBRANCH   4   8
BRANCH   1  25
ATOM     20  C   UNL     1       1.174   2.087   0.002  0.00  0.00    +0.144 A 
ATOM     21  C   UNL     1      -0.017   1.378   0.010  0.00  0.00    +0.048 A 
ATOM     22  C   UNL     1       0.002  -0.004   0.002  0.00  0.00    +0.004 A 
ATOM     23  C   UNL     1       1.207  -0.683  -0.014  0.00  0.00    +0.002 A 
ATOM     24  C   UNL     1       2.398   0.017  -0.021  0.00  0.00    +0.030 A 
ATOM     25  C   UNL     1       2.388   1.404  -0.013  0.00  0.00    +0.096 A 
BRANCH  20  26
ATOM     26  O   UNL     1       1.157   3.447   0.009  0.00  0.00    -0.490 OA
BRANCH  26  28
ATOM     27  C   UNL     1       0.058   5.599   0.030  0.00  0.00    +0.048 C 
ATOM     28  C   UNL     1      -0.124   4.080   0.024  0.00  0.00    +0.226 C 
ENDBRANCH  26  28
ENDBRANCH  20  26
ENDBRANCH   1  25
BRANCH   7  29
ATOM     29  O   UNL     1       3.602   2.107   2.318  0.00  0.00    -0.479 OA
ATOM     30  H   UNL     1       4.088   2.390   3.105  0.00  0.00    +0.295 HD
ENDBRANCH   7  29
BRANCH   5  31
ATOM     31  O   UNL     1       7.099   4.183   0.106  0.00  0.00    -0.492 OA
ATOM     32  H   UNL     1       7.411   4.357   1.004  0.00  0.00    +0.294 HD
ENDBRANCH   5  31
TORSDOF 6
