REMARK  Name = ZINC19114396
REMARK  7 active torsions:
REMARK  status: ('A' for Active; 'I' for Inactive)
REMARK    1  A    between atoms: C_1  and  O_2
REMARK    2  A    between atoms: O_2  and  C_3
REMARK    3  A    between atoms: C_3  and  C_5
REMARK    4  A    between atoms: N_7  and  C_10
REMARK    5  A    between atoms: C_13  and  C_24
REMARK    6  A    between atoms: C_16  and  N_67
REMARK    7  A    between atoms: N_26  and  C_27
REMARK                            x       y       z     vdW  Elec       q    Type
REMARK                         _______ _______ _______ _____ _____    ______ ____
ROOT
ATOM      1  C   UNL     1      -6.655   0.158  -1.267  0.00  0.00    +0.091 C 
ATOM      2  C   UNL     1      -5.132   0.091  -1.030  0.00  0.00    +0.019 C 
ATOM      3  C   UNL     1      -4.888   0.925   0.246  0.00  0.00    +0.022 C 
ATOM      4  C   UNL     1      -7.203   1.026  -0.114  0.00  0.00    -0.050 C 
ATOM      5  N   UNL     1      -6.048   1.822   0.297  0.00  0.00    +0.391 N 
ATOM      6  H   UNL     1      -5.914   2.607  -0.351  0.00  0.00    -0.080 HD
ENDROOT
BRANCH   5   7
ATOM      7  C   UNL     1      -6.235   2.357   1.684  0.00  0.00    -0.067 C 
ATOM      8  C   UNL     1      -6.614   1.196   2.606  0.00  0.00    -0.015 C 
ATOM      9  C   UNL     1      -6.424   1.621   4.064  0.00  0.00    -0.002 C 
ATOM     10  C   UNL     1      -5.098   2.368   4.210  0.00  0.00    -0.000 C 
ATOM     11  C   UNL     1      -5.373   3.833   4.554  0.00  0.00    -0.000 C 
ATOM     12  C   UNL     1      -5.836   4.573   3.297  0.00  0.00    -0.000 C 
ATOM     13  C   UNL     1      -7.289   4.204   2.994  0.00  0.00    -0.002 C 
ATOM     14  C   UNL     1      -7.352   3.402   1.693  0.00  0.00    -0.015 C 
ENDBRANCH   5   7
BRANCH   1  17
ATOM     15  C   UNL     1      -7.652  -3.265  -0.708  0.00  0.00    +0.189 A 
ATOM     16  C   UNL     1      -6.830  -2.208  -0.435  0.00  0.00    +0.145 A 
ATOM     17  N   UNL     1      -7.238  -1.185  -1.213  0.00  0.00    -0.250 N 
ATOM     18  N   UNL     1      -8.331  -1.652  -1.957  0.00  0.00    -0.065 NA
ATOM     19  N   UNL     1      -8.543  -2.882  -1.638  0.00  0.00    -0.123 NA
BRANCH  15  20
ATOM     20  C   UNL     1      -7.574  -4.599  -0.086  0.00  0.00    +0.361 C 
ATOM     21  O   UNL     1      -6.722  -4.832   0.748  0.00  0.00    -0.243 OA
BRANCH  20  23
ATOM     22  C   UNL     1      -8.313  -6.850   0.210  0.00  0.00    +0.280 C 
ATOM     23  O   UNL     1      -8.448  -5.561  -0.443  0.00  0.00    -0.463 OA
ENDBRANCH  20  23
ENDBRANCH  15  20
ENDBRANCH   1  17
BRANCH   3  24
ATOM     24  C   UNL     1      -3.600   1.698   0.131  0.00  0.00    +0.204 C 
ATOM     25  O   UNL     1      -3.618   2.911   0.137  0.00  0.00    -0.277 OA
ATOM     26  N   UNL     1      -2.428   1.042   0.020  0.00  0.00    -0.287 N 
ATOM     27  H   UNL     1      -2.419   0.075  -0.062  0.00  0.00    +0.155 HD
BRANCH  26  28
ATOM     28  C   UNL     1      -1.224   1.755   0.023  0.00  0.00    +0.034 A 
ATOM     29  C   UNL     1      -0.148   1.308  -0.733  0.00  0.00    +0.023 A 
ATOM     30  C   UNL     1       1.042   2.010  -0.724  0.00  0.00    +0.008 A 
ATOM     31  C   UNL     1       1.159   3.159   0.032  0.00  0.00    -0.016 A 
ATOM     32  C   UNL     1       0.085   3.611   0.783  0.00  0.00    -0.015 A 
ATOM     33  C   UNL     1      -1.104   2.915   0.779  0.00  0.00    +0.029 A 
ATOM     34  C   UNL     1       0.529   4.873   1.486  0.00  0.00    +0.196 C 
ATOM     35  O   UNL     1       1.968   4.867   1.439  0.00  0.00    -0.371 OA
ATOM     36  C   UNL     1       2.298   4.129   0.248  0.00  0.00    +0.195 C 
ENDBRANCH  26  28
ENDBRANCH   3  24
TORSDOF 6
