REMARK  Name = ZINC08754174
REMARK  9 active torsions:
REMARK  status: ('A' for Active; 'I' for Inactive)
REMARK    1  A    between atoms: C_1  and  C_2
REMARK    2  A    between atoms: C_14  and  C_15
REMARK    3  A    between atoms: C_15  and  O_17
REMARK    4  A    between atoms: O_17  and  C_18
REMARK    5  A    between atoms: C_18  and  C_20
REMARK    6  A    between atoms: C_18  and  C_21
REMARK    7  A    between atoms: N_23  and  C_24
REMARK    8  A    between atoms: C_27  and  N_30
REMARK    9  A    between atoms: C_31  and  C_33
REMARK                            x       y       z     vdW  Elec       q    Type
REMARK                         _______ _______ _______ _____ _____    ______ ____
ROOT
ATOM      1  O   UNL     1      -4.056   4.664  -0.075  0.00  0.00    -0.448 OA
ENDROOT
BRANCH   1   2
ATOM      2  C   UNL     1      -5.058   5.260  -0.755  0.00  0.00    +0.347 C 
ATOM      3  O   UNL     1      -5.879   4.584  -1.345  0.00  0.00    -0.244 OA
BRANCH   2  17
ATOM      4  C   UNL     1      -7.199   6.862  -2.197  0.00  0.00    +0.046 C 
ATOM      5  C   UNL     1      -6.088   7.501  -1.405  0.00  0.00    -0.015 A 
ATOM      6  C   UNL     1      -6.007   8.891  -1.307  0.00  0.00    +0.076 A 
ATOM      7  C   UNL     1      -4.929   9.393  -0.542  0.00  0.00    +0.116 A 
ATOM      8  N   UNL     1      -4.743  10.693  -0.375  0.00  0.00    -0.226 NA
ATOM      9  C   UNL     1      -5.541  11.589  -0.905  0.00  0.00    +0.114 A 
ATOM     10  N   UNL     1      -6.611  11.229  -1.658  0.00  0.00    -0.296 N 
ATOM     11  C   UNL     1      -6.889   9.924  -1.891  0.00  0.00    +0.263 A 
ATOM     12  O   UNL     1      -7.848   9.607  -2.571  0.00  0.00    -0.267 OA
ATOM     13  C   UNL     1      -7.345  12.418  -2.126  0.00  0.00    +0.127 C 
ATOM     14  C   UNL     1      -6.370  13.602  -1.958  0.00  0.00    +0.029 C 
ATOM     15  C   UNL     1      -5.462  13.102  -0.814  0.00  0.00    +0.076 C 
ATOM     16  S   UNL     1      -4.096   7.923   0.002  0.00  0.00    -0.062 S 
ATOM     17  C   UNL     1      -5.157   6.721  -0.781  0.00  0.00    +0.102 A 
ENDBRANCH   2  17
ENDBRANCH   1   2
BRANCH   1  18
ATOM     18  C   UNL     1      -4.021   3.212  -0.093  0.00  0.00    +0.259 C 
ATOM     19  C   UNL     1      -4.831   2.668   1.085  0.00  0.00    +0.062 C 
BRANCH  18  20
ATOM     20  C   UNL     1      -2.593   2.744   0.021  0.00  0.00    +0.258 C 
ATOM     21  O   UNL     1      -1.703   3.548   0.199  0.00  0.00    -0.271 OA
ATOM     22  N   UNL     1      -2.305   1.431  -0.076  0.00  0.00    -0.282 N 
ATOM     23  H   UNL     1      -3.022   0.780  -0.141  0.00  0.00    +0.155 HD
BRANCH  22  24
ATOM     24  C   UNL     1      -0.970   1.005  -0.083  0.00  0.00    +0.034 A 
ATOM     25  C   UNL     1       0.003   1.782  -0.696  0.00  0.00    +0.025 A 
ATOM     26  C   UNL     1       1.318   1.360  -0.707  0.00  0.00    +0.025 A 
ATOM     27  C   UNL     1       1.666   0.158  -0.105  0.00  0.00    +0.033 A 
ATOM     28  C   UNL     1       0.692  -0.620   0.508  0.00  0.00    +0.025 A 
ATOM     29  C   UNL     1      -0.622  -0.197   0.519  0.00  0.00    +0.025 A 
BRANCH  27  30
ATOM     30  N   UNL     1       2.999  -0.271  -0.117  0.00  0.00    -0.286 N 
ATOM     31  C   UNL     1       3.284  -1.585  -0.213  0.00  0.00    +0.214 C 
ATOM     32  O   UNL     1       2.392  -2.387  -0.387  0.00  0.00    -0.276 OA
ATOM     33  C   UNL     1       4.712  -2.056  -0.105  0.00  0.00    +0.109 C 
ATOM     34  H   UNL     1       3.718   0.378  -0.056  0.00  0.00    +0.155 HD
ENDBRANCH  27  30
ENDBRANCH  22  24
ENDBRANCH  18  20
ENDBRANCH   1  18
TORSDOF 6
