REMARK  Name = ZINC32622848
REMARK  12 active torsions:
REMARK  status: ('A' for Active; 'I' for Inactive)
REMARK    1  A    between atoms: C_1  and  C_2
REMARK    2  A    between atoms: C_2  and  C_3
REMARK    3  A    between atoms: C_3  and  C_4
REMARK    4  A    between atoms: C_4  and  O_5
REMARK    5  A    between atoms: O_5  and  C_6
REMARK    6  A    between atoms: C_10  and  C_12
REMARK    7  A    between atoms: N_27  and  C_28
REMARK    8  A    between atoms: C_28  and  C_29
REMARK    9  A    between atoms: C_29  and  C_30
REMARK   10  A    between atoms: C_30  and  N_31
REMARK   11  A    between atoms: N_31  and  C_32
REMARK   12  A    between atoms: N_31  and  C_33
REMARK                            x       y       z     vdW  Elec       q    Type
REMARK                         _______ _______ _______ _____ _____    ______ ____
ROOT
ATOM      1  C   UNL     1      -1.020  -0.878  -0.587  0.00  0.00    +0.145 C 
ATOM      2  C   UNL     1      -0.552  -2.289  -0.341  0.00  0.00    +0.072 A 
ATOM      3  C   UNL     1      -1.119  -3.597  -0.678  0.00  0.00    +0.199 A 
ATOM      4  O   UNL     1      -2.176  -3.700  -1.277  0.00  0.00    -0.287 OA
ATOM      5  C   UNL     1      -0.347  -4.783  -0.258  0.00  0.00    +0.066 A 
ATOM      6  C   UNL     1      -0.795  -6.075  -0.527  0.00  0.00    +0.035 A 
ATOM      7  C   UNL     1      -0.043  -7.154  -0.116  0.00  0.00    +0.042 A 
ATOM      8  C   UNL     1       1.153  -6.954   0.562  0.00  0.00    +0.023 A 
ATOM      9  C   UNL     1       1.605  -5.682   0.833  0.00  0.00    +0.048 A 
ATOM     10  C   UNL     1       0.862  -4.577   0.427  0.00  0.00    +0.140 A 
ATOM     11  O   UNL     1       1.294  -3.329   0.688  0.00  0.00    -0.450 OA
ATOM     12  C   UNL     1       0.627  -2.216   0.326  0.00  0.00    +0.199 A 
ATOM     13  C   UNL     1       0.962  -0.785   0.527  0.00  0.00    +0.283 C 
ATOM     14  O   UNL     1       1.960  -0.377   1.088  0.00  0.00    -0.267 OA
ATOM     15  N   UNL     1       0.002  -0.004   0.002  0.00  0.00    -0.284 N 
ATOM     16 CL   UNL     1      -0.591  -8.768  -0.447  0.00  0.00    -0.084 Cl
ENDROOT
BRANCH   1  21
ATOM     17  C   UNL     1      -4.732  -0.420  -0.047  0.00  0.00    +0.121 A 
ATOM     18  C   UNL     1      -4.788  -0.226   1.325  0.00  0.00    +0.045 A 
ATOM     19  C   UNL     1      -3.626  -0.243   2.072  0.00  0.00    +0.004 A 
ATOM     20  C   UNL     1      -2.408  -0.454   1.453  0.00  0.00    +0.006 A 
ATOM     21  C   UNL     1      -2.349  -0.648   0.085  0.00  0.00    -0.019 A 
ATOM     22  C   UNL     1      -3.508  -0.626  -0.667  0.00  0.00    +0.051 A 
BRANCH  17  23
ATOM     23  O   UNL     1      -5.874  -0.404  -0.784  0.00  0.00    -0.492 OA
BRANCH  23  24
ATOM     24  C   UNL     1      -7.097  -0.182  -0.080  0.00  0.00    +0.229 C 
BRANCH  24  25
ATOM     25  C   UNL     1      -8.265  -0.198  -1.068  0.00  0.00    +0.041 C 
BRANCH  25  27
ATOM     26  C   UNL     1     -10.742   0.024  -1.303  0.00  0.00    +0.004 C 
ATOM     27  C   UNL     1      -9.575   0.040  -0.314  0.00  0.00    -0.000 C 
ENDBRANCH  25  27
ENDBRANCH  24  25
ENDBRANCH  23  24
ENDBRANCH  17  23
ENDBRANCH   1  21
BRANCH  15  28
ATOM     28  C   UNL     1      -0.018   1.461   0.010  0.00  0.00    +0.107 C 
BRANCH  28  29
ATOM     29  C   UNL     1      -0.734   1.954   1.269  0.00  0.00    +0.000 C 
BRANCH  29  30
ATOM     30  C   UNL     1      -0.755   3.484   1.277  0.00  0.00    -0.078 C 
BRANCH  30  31
ATOM     31  N   UNL     1      -1.442   3.958   2.486  0.00  0.00    +0.376 N 
ATOM     32  C   UNL     1      -0.682   3.612   3.694  0.00  0.00    -0.097 C 
ATOM     33  C   UNL     1      -1.692   5.404   2.417  0.00  0.00    -0.097 C 
ATOM     34  H   UNL     1      -2.416   3.449   2.542  0.00  0.00    -0.083 HD
ENDBRANCH  30  31
ENDBRANCH  29  30
ENDBRANCH  28  29
ENDBRANCH  15  28
TORSDOF 9
