REMARK  Name = ZINC18013540
REMARK  11 active torsions:
REMARK  status: ('A' for Active; 'I' for Inactive)
REMARK    1  A    between atoms: C_1  and  C_2
REMARK    2  A    between atoms: C_3  and  C_34
REMARK    3  A    between atoms: C_4  and  C_33
REMARK    4  A    between atoms: C_5  and  S_10
REMARK    5  A    between atoms: C_6  and  C_9
REMARK    6  A    between atoms: C_7  and  C_8
REMARK    7  A    between atoms: S_10  and  N_13
REMARK    8  A    between atoms: C_19  and  C_21
REMARK    9  A    between atoms: C_21  and  N_22
REMARK   10  A    between atoms: C_25  and  C_29
REMARK   11  A    between atoms: C_25  and  C_30
REMARK                            x       y       z     vdW  Elec       q    Type
REMARK                         _______ _______ _______ _____ _____    ______ ____
ROOT
ATOM      1  N   UNL     1       5.823  -0.851  -2.007  0.00  0.00    -0.174 NA
ATOM      2  C   UNL     1       4.957  -1.000  -3.185  0.00  0.00    +0.128 C 
ATOM      3  C   UNL     1       4.534   0.394  -3.663  0.00  0.00    +0.125 C 
ATOM      4  N   UNL     1       4.035   1.154  -2.508  0.00  0.00    -0.298 N 
ATOM      5  C   UNL     1       4.903   1.309  -1.332  0.00  0.00    +0.125 C 
ATOM      6  C   UNL     1       5.324  -0.091  -0.853  0.00  0.00    +0.128 C 
ATOM      7  C   UNL     1       2.805   1.705  -2.530  0.00  0.00    +0.234 C 
ATOM      8  O   UNL     1       2.099   1.575  -3.508  0.00  0.00    -0.274 OA
ENDROOT
BRANCH   1   9
ATOM      9  S   UNL     1       7.335  -1.526  -1.981  0.00  0.00    +0.061 S 
ATOM     10  O   UNL     1       7.636  -1.797  -0.619  0.00  0.00    -0.153 OA
ATOM     11  O   UNL     1       7.345  -2.538  -2.979  0.00  0.00    -0.153 OA
BRANCH   9  16
ATOM     12  C   UNL     1      11.217   2.722  -3.793  0.00  0.00    +0.044 C 
ATOM     13  C   UNL     1      10.248   1.661  -3.340  0.00  0.00    -0.044 A 
ATOM     14  C   UNL     1       9.487   0.978  -4.271  0.00  0.00    -0.043 A 
ATOM     15  C   UNL     1       8.597   0.005  -3.855  0.00  0.00    -0.021 A 
ATOM     16  C   UNL     1       8.469  -0.286  -2.510  0.00  0.00    +0.112 A 
ATOM     17  C   UNL     1       9.226   0.401  -1.579  0.00  0.00    -0.021 A 
ATOM     18  C   UNL     1      10.119   1.371  -1.995  0.00  0.00    -0.043 A 
ATOM     19  C   UNL     1      10.949   2.115  -0.981  0.00  0.00    +0.044 C 
ATOM     20  C   UNL     1       9.082   0.088  -0.112  0.00  0.00    +0.046 C 
ATOM     21  C   UNL     1       7.767  -0.739  -4.870  0.00  0.00    +0.046 C 
ATOM     22  C   UNL     1       9.627   1.295  -5.737  0.00  0.00    +0.044 C 
ENDBRANCH   9  16
ENDBRANCH   1   9
BRANCH   7  23
ATOM     23  C   UNL     1       2.306   2.482  -1.339  0.00  0.00    +0.213 C 
BRANCH  23  24
ATOM     24  N   UNL     1       0.953   2.974  -1.608  0.00  0.00    -0.215 N 
ATOM     25  C   UNL     1       0.679   4.164  -2.179  0.00  0.00    +0.247 C 
ATOM     26  O   UNL     1       1.477   4.997  -2.553  0.00  0.00    -0.273 OA
ATOM     27  C   UNL     1      -0.832   4.243  -2.257  0.00  0.00    +0.113 C 
ATOM     28  N   UNL     1      -1.277   2.967  -1.671  0.00  0.00    -0.285 N 
ATOM     29  C   UNL     1      -0.165   2.297  -1.318  0.00  0.00    +0.310 C 
ATOM     30  O   UNL     1      -0.174   1.199  -0.798  0.00  0.00    -0.252 OA
ATOM     31  C   UNL     1      -1.291   4.354  -3.712  0.00  0.00    +0.042 C 
ATOM     32  H   UNL     1      -2.193   2.668  -1.559  0.00  0.00    +0.151 HD
BRANCH  27  33
ATOM     33  C   UNL     1      -1.352   5.427  -1.438  0.00  0.00    +0.021 C 
ATOM     34  C   UNL     1      -2.147   5.114  -0.170  0.00  0.00    +0.006 C 
ATOM     35  C   UNL     1      -2.864   5.655  -1.408  0.00  0.00    +0.006 C 
ENDBRANCH  27  33
ENDBRANCH  23  24
ENDBRANCH   7  23
TORSDOF 5
