REMARK  Name = ZINC20834750
REMARK  7 active torsions:
REMARK  status: ('A' for Active; 'I' for Inactive)
REMARK    1  A    between atoms: C_10  and  N_12
REMARK    2  A    between atoms: C_13  and  C_15
REMARK    3  A    between atoms: C_15  and  S_16
REMARK    4  A    between atoms: S_16  and  C_17
REMARK    5  A    between atoms: N_22  and  N_23
REMARK    6  A    between atoms: C_24  and  C_25
REMARK    7  A    between atoms: C_30  and  O_31
REMARK                            x       y       z     vdW  Elec       q    Type
REMARK                         _______ _______ _______ _____ _____    ______ ____
ROOT
ATOM      1  C   UNL     1       5.137  -6.472  -0.084  0.00  0.00    +0.211 A 
ATOM      2  N   UNL     1       3.796  -6.213  -0.069  0.00  0.00    -0.186 NA
ATOM      3  C   UNL     1       3.627  -4.856  -0.060  0.00  0.00    +0.232 A 
ATOM      4  N   UNL     1       4.815  -4.301  -0.073  0.00  0.00    -0.245 N 
ATOM      5  N   UNL     1       5.772  -5.324  -0.084  0.00  0.00    -0.144 NA
ATOM      6  N   UNL     1       2.413  -4.186  -0.044  0.00  0.00    -0.205 N 
ATOM      7  H   UNL     1       1.471  -4.753  -0.039  0.00  0.00    +0.177 HD
ATOM      8  H   UNL     1       4.909  -3.205  -0.075  0.00  0.00    +0.192 HD
ENDROOT
BRANCH   6   9
ATOM      9  N   UNL     1       2.387  -2.785  -0.036  0.00  0.00    -0.187 NA
ATOM     10  C   UNL     1       1.250  -2.157  -0.022  0.00  0.00    +0.142 C 
BRANCH  10  11
ATOM     11  C   UNL     1       1.222  -0.683  -0.013  0.00  0.00    +0.037 A 
ATOM     12  C   UNL     1       0.002  -0.004   0.002  0.00  0.00    +0.033 A 
ATOM     13  C   UNL     1      -0.017   1.376   0.010  0.00  0.00    +0.042 A 
ATOM     14  C   UNL     1       1.171   2.090   0.002  0.00  0.00    +0.023 A 
ATOM     15  C   UNL     1       2.384   1.428  -0.013  0.00  0.00    +0.047 A 
ATOM     16  C   UNL     1       2.421   0.044  -0.021  0.00  0.00    +0.126 A 
ATOM     17 CL   UNL     1      -1.534   2.220   0.021  0.00  0.00    -0.084 Cl
BRANCH  16  18
ATOM     18  O   UNL     1       3.613  -0.607  -0.035  0.00  0.00    -0.506 OA
ATOM     19  H   UNL     1       4.552  -0.034  -0.041  0.00  0.00    +0.292 HD
ENDBRANCH  16  18
ENDBRANCH  10  11
ENDBRANCH   6   9
BRANCH   1  20
ATOM     20  S   UNL     1       5.884  -8.068  -0.100  0.00  0.00    -0.075 S 
BRANCH  20  21
ATOM     21  C   UNL     1       7.664  -7.720  -0.116  0.00  0.00    +0.173 C 
BRANCH  21  23
ATOM     22  N   UNL     1       9.777  -9.004  -0.144  0.00  0.00    -0.308 N 
ATOM     23  C   UNL     1       8.430  -9.017  -0.131  0.00  0.00    +0.224 C 
ATOM     24  O   UNL     1       7.833 -10.073  -0.130  0.00  0.00    -0.275 OA
ATOM     25  H   UNL     1      10.318  -8.047  -0.145  0.00  0.00    +0.149 HD
BRANCH  22  35
ATOM     26  C   UNL     1      10.848 -11.658   3.873  0.00  0.00    +0.000 A 
ATOM     27  C   UNL     1       9.667 -11.111   3.406  0.00  0.00    +0.000 A 
ATOM     28  C   UNL     1       9.586 -10.667   2.102  0.00  0.00    +0.006 A 
ATOM     29  C   UNL     1      10.682 -10.764   1.254  0.00  0.00    -0.024 A 
ATOM     30  C   UNL     1      11.859 -11.304   1.721  0.00  0.00    -0.042 A 
ATOM     31  C   UNL     1      11.938 -11.753   3.033  0.00  0.00    +0.004 A 
ATOM     32  C   UNL     1      13.091 -11.426   0.863  0.00  0.00    +0.035 C 
ATOM     33  C   UNL     1      12.729 -11.305  -0.616  0.00  0.00    +0.007 C 
ATOM     34  C   UNL     1      11.886 -10.038  -0.806  0.00  0.00    +0.027 C 
ATOM     35  C   UNL     1      10.522 -10.266  -0.158  0.00  0.00    +0.103 C 
ENDBRANCH  22  35
ENDBRANCH  21  23
ENDBRANCH  20  21
ENDBRANCH   1  20
TORSDOF 7
