REMARK  Name = ZINC00832650
REMARK  10 active torsions:
REMARK  status: ('A' for Active; 'I' for Inactive)
REMARK    1  A    between atoms: C_1  and  C_2
REMARK    2  A    between atoms: C_2  and  O_3
REMARK    3  A    between atoms: O_3  and  C_4
REMARK    4  A    between atoms: C_4  and  C_6
REMARK    5  A    between atoms: C_10  and  N_11
REMARK    6  A    between atoms: N_11  and  C_12
REMARK    7  A    between atoms: C_12  and  N_14
REMARK    8  A    between atoms: C_15  and  C_17
REMARK    9  A    between atoms: N_21  and  C_22
REMARK   10  A    between atoms: C_25  and  C_29
REMARK                            x       y       z     vdW  Elec       q    Type
REMARK                         _______ _______ _______ _____ _____    ______ ____
ROOT
ATOM      1  C   UNL     1      -1.258  -0.746   0.010  0.00  0.00    +0.091 A 
ATOM      2  C   UNL     1      -1.897  -1.133   1.257  0.00  0.00    -0.021 A 
ATOM      3  C   UNL     1      -3.054  -1.815   1.122  0.00  0.00    -0.004 A 
ATOM      4  S   UNL     1      -3.302  -1.947  -0.626  0.00  0.00    -0.077 S 
ATOM      5  C   UNL     1      -1.892  -1.103  -1.173  0.00  0.00    +0.086 A 
ATOM      6  C   UNL     1      -3.927  -2.339   2.221  0.00  0.00    +0.046 C 
ATOM      7  C   UNL     1      -3.508  -1.664   3.535  0.00  0.00    -0.009 C 
ATOM      8  C   UNL     1      -1.984  -1.737   3.663  0.00  0.00    +0.008 C 
ATOM      9  C   UNL     1      -1.331  -0.812   2.635  0.00  0.00    +0.037 C 
ATOM     10  C   UNL     1      -4.160  -2.388   4.715  0.00  0.00    +0.008 C 
ENDROOT
BRANCH   1  11
ATOM     11  C   UNL     1       0.003  -0.002   0.002  0.00  0.00    +0.342 C 
ATOM     12  O   UNL     1       1.062  -0.600  -0.010  0.00  0.00    -0.245 OA
BRANCH  11  13
ATOM     13  O   UNL     1      -0.010   1.347   0.006  0.00  0.00    -0.461 OA
BRANCH  13  15
ATOM     14  C   UNL     1       1.062   3.534   0.004  0.00  0.00    +0.048 C 
ATOM     15  C   UNL     1       1.277   2.019  -0.003  0.00  0.00    +0.229 C 
ENDBRANCH  13  15
ENDBRANCH  11  13
ENDBRANCH   1  11
BRANCH   5  16
ATOM     16  N   UNL     1      -1.492  -0.849  -2.475  0.00  0.00    -0.290 N 
ATOM     17  H   UNL     1      -0.670  -0.362  -2.643  0.00  0.00    +0.154 HD
BRANCH  16  18
ATOM     18  C   UNL     1      -2.244  -1.279  -3.507  0.00  0.00    +0.141 C 
ATOM     19  S   UNL     1      -3.695  -2.139  -3.209  0.00  0.00    -0.018 S 
BRANCH  18  20
ATOM     20  N   UNL     1      -1.855  -1.032  -4.774  0.00  0.00    -0.262 N 
ATOM     21  C   UNL     1      -2.608  -1.461  -5.806  0.00  0.00    +0.269 C 
ATOM     22  O   UNL     1      -3.586  -2.153  -5.598  0.00  0.00    -0.268 OA
ATOM     23  H   UNL     1      -1.034  -0.544  -4.942  0.00  0.00    +0.157 HD
BRANCH  21  24
ATOM     24  C   UNL     1      -2.246  -1.094  -7.182  0.00  0.00    +0.136 A 
ATOM     25  C   UNL     1      -1.569  -1.878  -8.102  0.00  0.00    +0.063 A 
ATOM     26  C   UNL     1      -1.471  -1.094  -9.255  0.00  0.00    +0.149 A 
ATOM     27  N   UNL     1      -2.042   0.057  -9.007  0.00  0.00    -0.178 NA
ATOM     28  N   UNL     1      -2.505   0.093  -7.810  0.00  0.00    -0.261 N 
ATOM     29  C   UNL     1      -3.203   1.231  -7.208  0.00  0.00    +0.173 C 
ATOM     30  I   UNL     1      -0.850  -3.826  -7.825  0.00  0.00    -0.040 I 
ENDBRANCH  21  24
ENDBRANCH  18  20
ENDBRANCH  16  18
ENDBRANCH   5  16
TORSDOF 7
