REMARK  Name = ZINC38733265
REMARK  6 active torsions:
REMARK  status: ('A' for Active; 'I' for Inactive)
REMARK    1  A    between atoms: C_1  and  C_2
REMARK    2  A    between atoms: C_7  and  C_8
REMARK    3  A    between atoms: C_7  and  C_9
REMARK    4  A    between atoms: C_11  and  N_13
REMARK    5  A    between atoms: C_14  and  C_16
REMARK    6  A    between atoms: C_22  and  C_24
REMARK                            x       y       z     vdW  Elec       q    Type
REMARK                         _______ _______ _______ _____ _____    ______ ____
ROOT
ATOM      1  C   UNL     1      -4.117  -0.848  -2.755  0.00  0.00    +0.091 C 
ATOM      2  C   UNL     1      -3.808   0.440  -3.523  0.00  0.00    +0.040 C 
ATOM      3  C   UNL     1      -4.515   1.602  -2.889  0.00  0.00    -0.030 C 
ATOM      4  C   UNL     1      -5.505   1.485  -2.063  0.00  0.00    -0.030 C 
ATOM      5  C   UNL     1      -6.077   0.172  -1.616  0.00  0.00    +0.040 C 
ATOM      6  C   UNL     1      -5.635  -0.951  -2.563  0.00  0.00    +0.091 C 
ENDROOT
BRANCH   6   7
ATOM      7  C   UNL     1      -5.980  -2.292  -1.968  0.00  0.00    +0.220 C 
ATOM      8  O   UNL     1      -6.126  -2.404  -0.769  0.00  0.00    -0.275 OA
ATOM      9  N   UNL     1      -6.127  -3.366  -2.768  0.00  0.00    -0.298 N 
ATOM     10  C   UNL     1      -6.045  -3.228  -4.229  0.00  0.00    +0.126 C 
ATOM     11  C   UNL     1      -4.973  -4.192  -4.753  0.00  0.00    +0.125 C 
ATOM     12  N   UNL     1      -5.217  -5.523  -4.180  0.00  0.00    -0.314 N 
ATOM     13  C   UNL     1      -5.299  -5.661  -2.719  0.00  0.00    +0.125 C 
ATOM     14  C   UNL     1      -6.366  -4.698  -2.195  0.00  0.00    +0.126 C 
ATOM     15  C   UNL     1      -5.369  -6.631  -5.005  0.00  0.00    +0.099 A 
ATOM     16  C   UNL     1      -5.151  -6.507  -6.374  0.00  0.00    +0.042 A 
ATOM     17  C   UNL     1      -5.305  -7.618  -7.183  0.00  0.00    +0.005 A 
ATOM     18  C   UNL     1      -5.673  -8.820  -6.594  0.00  0.00    +0.018 A 
ATOM     19  C   UNL     1      -5.873  -8.872  -5.230  0.00  0.00    +0.084 A 
ATOM     20  N   UNL     1      -5.714  -7.797  -4.481  0.00  0.00    -0.350 N 
ATOM     21  H   UNL     1      -5.857  -7.862  -3.524  0.00  0.00    +0.166 HD
ENDBRANCH   6   7
BRANCH   1  23
ATOM     22  N   UNL     1      -2.977  -1.950  -0.857  0.00  0.00    -0.312 N 
ATOM     23  C   UNL     1      -3.437  -0.811  -1.411  0.00  0.00    +0.217 C 
ATOM     24  O   UNL     1      -3.304   0.244  -0.827  0.00  0.00    -0.275 OA
ATOM     25  H   UNL     1      -3.083  -2.794  -1.324  0.00  0.00    +0.149 HD
BRANCH  22  35
ATOM     26  C   UNL     1      -0.337  -0.247   0.053  0.00  0.00    +0.013 C 
ATOM     27  C   UNL     1      -0.783  -1.693   0.278  0.00  0.00    -0.008 C 
ATOM     28  C   UNL     1      -0.340  -2.720  -0.808  0.00  0.00    +0.009 C 
ATOM     29  C   UNL     1      -0.449  -4.096  -0.113  0.00  0.00    +0.005 C 
ATOM     30  C   UNL     1      -0.948  -3.771   1.328  0.00  0.00    -0.003 C 
ATOM     31  C   UNL     1      -0.242  -2.392   1.575  0.00  0.00    -0.025 C 
ATOM     32  C   UNL     1       1.283  -2.518   1.566  0.00  0.00    +0.012 C 
ATOM     33  C   UNL     1      -0.746  -1.709   2.848  0.00  0.00    +0.012 C 
ATOM     34  C   UNL     1      -2.431  -3.329   1.138  0.00  0.00    +0.027 C 
ATOM     35  C   UNL     1      -2.317  -1.914   0.450  0.00  0.00    +0.080 C 
ENDBRANCH  22  35
ENDBRANCH   1  23
TORSDOF 3
