REMARK  Name = ZINC53044222
REMARK  9 active torsions:
REMARK  status: ('A' for Active; 'I' for Inactive)
REMARK    1  A    between atoms: C_1  and  C_2
REMARK    2  A    between atoms: C_2  and  C_3
REMARK    3  A    between atoms: C_3  and  C_4
REMARK    4  A    between atoms: C_3  and  C_6
REMARK    5  A    between atoms: C_3  and  N_8
REMARK    6  A    between atoms: C_4  and  C_5
REMARK    7  A    between atoms: C_6  and  O_7
REMARK    8  A    between atoms: C_9  and  C_11
REMARK    9  A    between atoms: C_13  and  N_19
REMARK                            x       y       z     vdW  Elec       q    Type
REMARK                         _______ _______ _______ _____ _____    ______ ____
ROOT
ATOM      1  N   UNL     1      -2.142  -0.048  -1.174  0.00  0.00    -0.304 N 
ATOM      2  C   UNL     1      -1.689  -0.361  -2.404  0.00  0.00    +0.245 C 
ATOM      3  O   UNL     1      -0.692  -1.046  -2.529  0.00  0.00    -0.270 OA
ATOM      4  H   UNL     1      -2.937   0.498  -1.075  0.00  0.00    +0.150 HD
ENDROOT
BRANCH   2   5
ATOM      5  C   UNL     1      -2.404   0.129  -3.602  0.00  0.00    +0.040 A 
ATOM      6  C   UNL     1      -1.939  -0.199  -4.876  0.00  0.00    +0.037 A 
ATOM      7  C   UNL     1      -2.614   0.263  -5.995  0.00  0.00    +0.045 A 
ATOM      8  C   UNL     1      -3.751   1.052  -5.845  0.00  0.00    +0.080 A 
ATOM      9  C   UNL     1      -4.211   1.377  -4.581  0.00  0.00    +0.062 A 
ATOM     10  C   UNL     1      -3.548   0.915  -3.461  0.00  0.00    +0.034 A 
ATOM     11 CL   UNL     1      -5.629   2.362  -4.403  0.00  0.00    -0.082 Cl
ATOM     12 CL   UNL     1      -4.593   1.630  -7.248  0.00  0.00    -0.080 Cl
BRANCH   7  13
ATOM     13  N   UNL     1      -2.152  -0.062  -7.274  0.00  0.00    -0.357 N 
ATOM     14  H   UNL     1      -1.360  -0.612  -7.378  0.00  0.00    +0.142 HD
ATOM     15  H   UNL     1      -2.625   0.261  -8.057  0.00  0.00    +0.142 HD
ENDBRANCH   7  13
ENDBRANCH   2   5
BRANCH   1  16
ATOM     16  C   UNL     1      -1.433  -0.534   0.013  0.00  0.00    +0.057 C 
BRANCH  16  18
ATOM     17  C   UNL     1      -0.019   1.526   0.010  0.00  0.00    +0.006 C 
ATOM     18  C   UNL     1       0.002  -0.004   0.002  0.00  0.00    +0.024 C 
ENDBRANCH  16  18
BRANCH  16  19
ATOM     19  C   UNL     1      -1.413  -2.063   0.004  0.00  0.00    +0.024 C 
ATOM     20  C   UNL     1      -2.844  -2.592  -0.110  0.00  0.00    +0.006 C 
ENDBRANCH  16  19
BRANCH  16  21
ATOM     21  C   UNL     1      -2.149  -0.040   1.272  0.00  0.00    +0.181 C 
BRANCH  21  22
ATOM     22  O   UNL     1      -1.458  -0.514   2.429  0.00  0.00    -0.393 OA
ATOM     23  H   UNL     1      -1.858  -0.238   3.266  0.00  0.00    +0.209 HD
ENDBRANCH  21  22
ENDBRANCH  16  21
ENDBRANCH   1  16
TORSDOF 7
