REMARK  Name = ZINC10001137
REMARK  11 active torsions:
REMARK  status: ('A' for Active; 'I' for Inactive)
REMARK    1  A    between atoms: C_1  and  C_2
REMARK    2  A    between atoms: C_2  and  C_3
REMARK    3  A    between atoms: C_2  and  C_4
REMARK    4  A    between atoms: C_4  and  C_6
REMARK    5  A    between atoms: C_4  and  N_22
REMARK    6  A    between atoms: N_8  and  N_9
REMARK    7  A    between atoms: C_10  and  C_11
REMARK    8  A    between atoms: C_14  and  O_18
REMARK    9  A    between atoms: O_18  and  C_19
REMARK   10  A    between atoms: C_19  and  C_20
REMARK   11  A    between atoms: C_23  and  C_25
REMARK                            x       y       z     vdW  Elec       q    Type
REMARK                         _______ _______ _______ _____ _____    ______ ____
ROOT
ATOM      1  C   UNL     1      -1.251  -0.616   0.385  0.00  0.00    +0.163 C 
ENDROOT
BRANCH   1   2
ATOM      2  C   UNL     1      -1.113  -2.006   0.948  0.00  0.00    +0.253 C 
ATOM      3  O   UNL     1      -0.066  -2.356   1.452  0.00  0.00    -0.272 OA
ATOM      4  N   UNL     1      -2.153  -2.862   0.893  0.00  0.00    -0.205 N 
ATOM      5  H   UNL     1      -3.011  -2.561   0.556  0.00  0.00    +0.177 HD
BRANCH   4   6
ATOM      6  N   UNL     1      -1.994  -4.186   1.321  0.00  0.00    -0.188 NA
ATOM      7  C   UNL     1      -2.995  -5.011   1.268  0.00  0.00    +0.138 C 
BRANCH   7   8
ATOM      8  C   UNL     1      -2.827  -6.404   1.719  0.00  0.00    -0.004 A 
ATOM      9  C   UNL     1      -1.590  -6.841   2.199  0.00  0.00    +0.013 A 
ATOM     10  C   UNL     1      -1.438  -8.144   2.624  0.00  0.00    +0.047 A 
ATOM     11  C   UNL     1      -2.511  -9.024   2.566  0.00  0.00    +0.135 A 
ATOM     12  C   UNL     1      -3.742  -8.596   2.085  0.00  0.00    +0.060 A 
ATOM     13  C   UNL     1      -3.904  -7.293   1.662  0.00  0.00    +0.028 A 
ATOM     14 BR   UNL     1      -5.198  -9.801   2.009  0.00  0.00    -0.046 Br
BRANCH  11  15
ATOM     15  O   UNL     1      -2.356 -10.309   2.981  0.00  0.00    -0.487 OA
BRANCH  15  16
ATOM     16  C   UNL     1      -1.064 -10.683   3.464  0.00  0.00    +0.256 C 
BRANCH  16  17
ATOM     17  C   UNL     1      -1.082 -12.132   3.877  0.00  0.00    +0.006 C 
ATOM     18  C   UNL     1      -0.102 -12.926   3.523  0.00  0.00    +0.007 C 
ENDBRANCH  16  17
ENDBRANCH  15  16
ENDBRANCH  11  15
ENDBRANCH   7   8
ENDBRANCH   4   6
ENDBRANCH   1   2
BRANCH   1  19
ATOM     19  N   UNL     1      -0.203   0.243   0.941  0.00  0.00    -0.300 N 
ATOM     20  C   UNL     1      -0.389   1.576   1.009  0.00  0.00    +0.245 C 
ATOM     21  O   UNL     1      -1.425   2.067   0.604  0.00  0.00    -0.270 OA
ATOM     22  H   UNL     1       0.625  -0.148   1.261  0.00  0.00    +0.150 HD
BRANCH  20  23
ATOM     23  C   UNL     1       0.667   2.442   1.570  0.00  0.00    +0.040 A 
ATOM     24  C   UNL     1       1.858   1.880   2.036  0.00  0.00    +0.017 A 
ATOM     25  C   UNL     1       2.845   2.690   2.553  0.00  0.00    +0.050 A 
ATOM     26  C   UNL     1       2.656   4.064   2.625  0.00  0.00    +0.166 A 
ATOM     27  C   UNL     1       1.466   4.630   2.167  0.00  0.00    +0.167 A 
ATOM     28  C   UNL     1       0.475   3.824   1.641  0.00  0.00    +0.062 A 
ATOM     29  O   UNL     1       1.530   5.982   2.347  0.00  0.00    -0.453 OA
ATOM     30  C   UNL     1       2.595   6.193   3.292  0.00  0.00    +0.466 C 
ATOM     31  O   UNL     1       3.461   5.061   3.091  0.00  0.00    -0.453 OA
ENDBRANCH  20  23
ENDBRANCH   1  19
BRANCH   1  33
ATOM     32  C   UNL     1      -1.368   0.725  -1.720  0.00  0.00    +0.009 C 
ATOM     33  C   UNL     1      -1.113  -0.666  -1.138  0.00  0.00    +0.012 C 
ATOM     34  C   UNL     1       0.299  -1.123  -1.508  0.00  0.00    +0.009 C 
ENDBRANCH   1  33
TORSDOF 9
