REMARK  Name = ZINC36937496
REMARK  6 active torsions:
REMARK  status: ('A' for Active; 'I' for Inactive)
REMARK    1  A    between atoms: C_1  and  C_2
REMARK    2  A    between atoms: C_7  and  C_8
REMARK    3  A    between atoms: C_9  and  C_15
REMARK    4  A    between atoms: N_11  and  C_14
REMARK    5  A    between atoms: C_12  and  N_13
REMARK    6  A    between atoms: C_18  and  C_20
REMARK                            x       y       z     vdW  Elec       q    Type
REMARK                         _______ _______ _______ _____ _____    ______ ____
ROOT
ATOM      1  C   UNL     1       0.026   0.021   2.495  0.00  0.00    +0.045 A 
ATOM      2  C   UNL     1      -1.106   0.413   3.236  0.00  0.00    +0.076 A 
ATOM      3  N   UNL     1      -0.698   1.031   4.312  0.00  0.00    -0.174 NA
ATOM      4  N   UNL     1       0.701   1.066   4.313  0.00  0.00    -0.253 N 
ATOM      5  C   UNL     1       1.142   0.440   3.199  0.00  0.00    +0.122 A 
ATOM      6  C   UNL     1       1.543   1.671   5.348  0.00  0.00    +0.174 C 
ENDROOT
BRANCH   1  13
ATOM      7  C   UNL     1      -0.018   1.503   0.010  0.00  0.00    +0.044 C 
ATOM      8  C   UNL     1       0.002  -0.004   0.002  0.00  0.00    -0.043 A 
ATOM      9  C   UNL     1       0.006  -0.689  -1.196  0.00  0.00    +0.004 A 
ATOM     10  C   UNL     1       0.024  -2.072  -1.205  0.00  0.00    +0.000 A 
ATOM     11  C   UNL     1       0.039  -2.777  -0.015  0.00  0.00    +0.001 A 
ATOM     12  C   UNL     1       0.036  -2.103   1.189  0.00  0.00    +0.009 A 
ATOM     13  C   UNL     1       0.023  -0.709   1.204  0.00  0.00    -0.010 A 
ENDBRANCH   1  13
BRANCH   2  14
ATOM     14  C   UNL     1      -2.542   0.162   2.853  0.00  0.00    +0.043 C 
ATOM     15  C   UNL     1      -3.626   0.846   3.689  0.00  0.00    +0.014 C 
ATOM     16  C   UNL     1      -3.397  -0.662   3.817  0.00  0.00    -0.004 C 
ATOM     17  C   UNL     1      -2.729  -1.170   5.096  0.00  0.00    +0.008 C 
ENDBRANCH   2  14
BRANCH   5  18
ATOM     18  N   UNL     1       2.467   0.255   2.828  0.00  0.00    -0.343 N 
ATOM     19  H   UNL     1       2.679  -0.208   2.002  0.00  0.00    +0.144 HD
ATOM     20  H   UNL     1       3.180   0.588   3.394  0.00  0.00    +0.144 HD
ENDBRANCH   5  18
TORSDOF 3
