REMARK  Name = ZINC21659003
REMARK  7 active torsions:
REMARK  status: ('A' for Active; 'I' for Inactive)
REMARK    1  A    between atoms: C_1  and  C_2
REMARK    2  A    between atoms: C_5  and  C_8
REMARK    3  A    between atoms: C_20  and  C_22
REMARK    4  A    between atoms: C_26  and  O_29
REMARK    5  A    between atoms: C_27  and  O_28
REMARK    6  A    between atoms: N_30  and  C_37
REMARK    7  A    between atoms: N_33  and  C_36
REMARK                            x       y       z     vdW  Elec       q    Type
REMARK                         _______ _______ _______ _____ _____    ______ ____
ROOT
ATOM      1  C   UNL     1      -0.807   3.037  -3.046  0.00  0.00    +0.069 A 
ATOM      2  C   UNL     1      -1.765   2.061  -3.164  0.00  0.00    +0.089 A 
ATOM      3  C   UNL     1      -1.615   1.176  -1.982  0.00  0.00    +0.082 A 
ATOM      4  C   UNL     1      -0.613   1.666  -1.266  0.00  0.00    +0.073 A 
ATOM      5  N   UNL     1      -0.101   2.783  -1.912  0.00  0.00    -0.306 N 
ATOM      6  C   UNL     1       0.986   3.493  -1.380  0.00  0.00    +0.068 A 
ATOM      7  C   UNL     1       1.340   4.740  -1.858  0.00  0.00    +0.028 A 
ATOM      8  C   UNL     1       2.402   5.418  -1.286  0.00  0.00    +0.002 A 
ATOM      9  C   UNL     1       3.106   4.850  -0.239  0.00  0.00    +0.002 A 
ATOM     10  C   UNL     1       2.761   3.600   0.239  0.00  0.00    +0.025 A 
ATOM     11  C   UNL     1       1.703   2.909  -0.331  0.00  0.00    +0.052 A 
ATOM     12  N   UNL     1       1.353   1.636   0.133  0.00  0.00    -0.330 N 
ATOM     13  C   UNL     1      -0.042   1.178   0.047  0.00  0.00    +0.154 C 
ATOM     14  N   UNL     1      -2.479   0.080  -1.844  0.00  0.00    -0.294 N 
ATOM     15  C   UNL     1      -3.408  -0.102  -2.809  0.00  0.00    +0.332 A 
ATOM     16  O   UNL     1      -4.157  -1.052  -2.689  0.00  0.00    -0.246 OA
ATOM     17  N   UNL     1      -3.572   0.675  -3.884  0.00  0.00    -0.263 N 
ATOM     18  C   UNL     1      -2.811   1.768  -4.149  0.00  0.00    +0.266 A 
ATOM     19  O   UNL     1      -2.985   2.457  -5.137  0.00  0.00    -0.267 OA
ATOM     20  C   UNL     1      -4.635   0.327  -4.831  0.00  0.00    +0.157 C 
ATOM     21  C   UNL     1      -2.379  -0.832  -0.701  0.00  0.00    +0.154 C 
ATOM     22  H   UNL     1       2.123   0.977   0.561  0.00  0.00    +0.147 HD
ENDROOT
BRANCH   1  27
ATOM     23  C   UNL     1       0.061   7.406  -6.686  0.00  0.00    +0.044 C 
ATOM     24  C   UNL     1      -0.166   6.261  -5.732  0.00  0.00    -0.050 A 
ATOM     25  C   UNL     1       0.862   5.375  -5.463  0.00  0.00    +0.004 A 
ATOM     26  C   UNL     1       0.661   4.325  -4.591  0.00  0.00    +0.010 A 
ATOM     27  C   UNL     1      -0.584   4.157  -3.980  0.00  0.00    -0.000 A 
ATOM     28  C   UNL     1      -1.619   5.053  -4.261  0.00  0.00    +0.010 A 
ATOM     29  C   UNL     1      -1.402   6.102  -5.130  0.00  0.00    +0.004 A 
ENDBRANCH   1  27
BRANCH  13  30
ATOM     30  C   UNL     1      -0.837   1.749   1.193  0.00  0.00    +0.024 A 
ATOM     31  C   UNL     1      -1.700   2.807   0.977  0.00  0.00    +0.009 A 
ATOM     32  C   UNL     1      -2.431   3.333   2.026  0.00  0.00    +0.004 A 
ATOM     33  C   UNL     1      -2.302   2.802   3.296  0.00  0.00    +0.049 A 
ATOM     34  C   UNL     1      -1.439   1.742   3.520  0.00  0.00    +0.159 A 
ATOM     35  C   UNL     1      -0.707   1.209   2.463  0.00  0.00    +0.164 A 
BRANCH  35  36
ATOM     36  O   UNL     1       0.137   0.165   2.676  0.00  0.00    -0.503 OA
ATOM     37  H   UNL     1       0.239  -0.263   3.684  0.00  0.00    +0.292 HD
ENDBRANCH  35  36
BRANCH  34  38
ATOM     38  O   UNL     1      -1.312   1.218   4.769  0.00  0.00    -0.503 OA
ATOM     39  H   UNL     1      -0.626   0.377   4.945  0.00  0.00    +0.292 HD
ENDBRANCH  34  38
ENDBRANCH  13  30
TORSDOF 4
