REMARK  Name = ZINC15935198
REMARK  6 active torsions:
REMARK  status: ('A' for Active; 'I' for Inactive)
REMARK    1  A    between atoms: C_1  and  O_2
REMARK    2  A    between atoms: O_2  and  C_3
REMARK    3  A    between atoms: C_5  and  C_13
REMARK    4  A    between atoms: C_7  and  N_10
REMARK    5  A    between atoms: C_8  and  O_9
REMARK    6  A    between atoms: N_18  and  C_21
REMARK                            x       y       z     vdW  Elec       q    Type
REMARK                         _______ _______ _______ _____ _____    ______ ____
ROOT
ATOM      1  C   UNL     1      -4.849   0.215   0.038  0.00  0.00    +0.026 C 
ATOM      2  C   UNL     1      -6.064  -0.430  -0.059  0.00  0.00    +0.102 C 
ATOM      3  C   UNL     1      -7.401   0.185  -0.173  0.00  0.00    +0.266 C 
ATOM      4  O   UNL     1      -7.651   1.375  -0.201  0.00  0.00    -0.268 OA
ATOM      5  N   UNL     1      -8.291  -0.823  -0.240  0.00  0.00    -0.223 N 
ATOM      6  N   UNL     1      -7.641  -2.056  -0.179  0.00  0.00    -0.184 N 
ATOM      7  C   UNL     1      -6.309  -1.885  -0.076  0.00  0.00    +0.272 C 
ATOM      8  O   UNL     1      -5.469  -2.763  -0.009  0.00  0.00    -0.268 OA
ATOM      9  H   UNL     1      -9.251  -0.708  -0.320  0.00  0.00    +0.174 HD
ENDROOT
BRANCH   6  10
ATOM     10  C   UNL     1      -8.284  -3.297  -0.224  0.00  0.00    +0.058 A 
ATOM     11  C   UNL     1      -7.540  -4.469  -0.149  0.00  0.00    +0.027 A 
ATOM     12  C   UNL     1      -8.177  -5.694  -0.194  0.00  0.00    +0.023 A 
ATOM     13  C   UNL     1      -9.554  -5.755  -0.313  0.00  0.00    +0.059 A 
ATOM     14  C   UNL     1     -10.298  -4.590  -0.388  0.00  0.00    +0.061 A 
ATOM     15  C   UNL     1      -9.666  -3.361  -0.339  0.00  0.00    +0.046 A 
ATOM     16 CL   UNL     1     -12.025  -4.671  -0.538  0.00  0.00    -0.082 Cl
ATOM     17 CL   UNL     1     -10.350  -7.297  -0.369  0.00  0.00    -0.082 Cl
ENDBRANCH   6  10
BRANCH   1  20
ATOM     18  C   UNL     1      -1.343  -0.939   0.681  0.00  0.00    +0.164 A 
ATOM     19  C   UNL     1      -2.512  -0.211   0.765  0.00  0.00    +0.057 A 
ATOM     20  C   UNL     1      -3.605  -0.552  -0.046  0.00  0.00    -0.018 A 
ATOM     21  C   UNL     1      -3.501  -1.630  -0.937  0.00  0.00    +0.044 A 
ATOM     22  C   UNL     1      -2.330  -2.349  -1.013  0.00  0.00    +0.172 A 
ATOM     23  C   UNL     1      -1.247  -2.006  -0.212  0.00  0.00    +0.189 A 
BRANCH  22  24
ATOM     24  N   UNL     1      -2.222  -3.486  -1.954  0.00  0.00    +0.060 N 
ATOM     25  O   UNL     1      -3.162  -3.783  -2.655  0.00  0.00    -0.126 OA
ATOM     26  O   UNL     1      -1.194  -4.119  -2.022  0.00  0.00    -0.126 OA
ENDBRANCH  22  24
BRANCH  18  28
ATOM     27  C   UNL     1      -0.450   0.493   2.357  0.00  0.00    +0.277 C 
ATOM     28  O   UNL     1      -0.281  -0.611   1.465  0.00  0.00    -0.491 OA
ENDBRANCH  18  28
BRANCH  23  29
ATOM     29  O   UNL     1      -0.093  -2.716  -0.296  0.00  0.00    -0.502 OA
ATOM     30  H   UNL     1      -0.052  -3.472   0.306  0.00  0.00    +0.292 HD
ENDBRANCH  23  29
ENDBRANCH   1  20
TORSDOF 5
