REMARK  Name = ZINC10066638
REMARK  12 active torsions:
REMARK  status: ('A' for Active; 'I' for Inactive)
REMARK    1  A    between atoms: C_1  and  C_2
REMARK    2  A    between atoms: C_2  and  C_3
REMARK    3  A    between atoms: N_12  and  C_13
REMARK    4  A    between atoms: C_13  and  C_14
REMARK    5  A    between atoms: C_14  and  N_57
REMARK    6  A    between atoms: C_15  and  C_16
REMARK    7  A    between atoms: C_15  and  N_57
REMARK    8  A    between atoms: C_17  and  C_18
REMARK    9  A    between atoms: C_17  and  N_57
REMARK   10  A    between atoms: C_19  and  C_21
REMARK   11  A    between atoms: C_22  and  C_23
REMARK   12  A    between atoms: C_26  and  N_28
REMARK                            x       y       z     vdW  Elec       q    Type
REMARK                         _______ _______ _______ _____ _____    ______ ____
ROOT
ATOM      1  C   UNL     1      -0.624  -2.728  -6.160  0.00  0.00    -0.046 A 
ATOM      2  C   UNL     1      -1.530  -2.883  -5.121  0.00  0.00    +0.006 A 
ATOM      3  C   UNL     1      -1.599  -1.982  -4.091  0.00  0.00    +0.029 A 
ATOM      4  C   UNL     1      -0.742  -0.858  -4.055  0.00  0.00    +0.080 A 
ATOM      5  C   UNL     1       0.168  -0.733  -5.130  0.00  0.00    +0.041 A 
ATOM      6  C   UNL     1       0.230  -1.640  -6.158  0.00  0.00    +0.021 A 
ATOM      7  S   UNL     1       1.028   0.768  -4.724  0.00  0.00    -0.052 S 
ATOM      8  C   UNL     1       0.164   1.117  -3.200  0.00  0.00    +0.168 A 
ATOM      9  N   UNL     1      -0.682   0.116  -3.121  0.00  0.00    -0.224 NA
ATOM     10  N   UNL     1       0.337   2.177  -2.327  0.00  0.00    -0.249 N 
ATOM     11  C   UNL     1       1.269   3.116  -2.584  0.00  0.00    +0.245 C 
ATOM     12  O   UNL     1       1.958   3.033  -3.585  0.00  0.00    -0.270 OA
ENDROOT
BRANCH   1  14
ATOM     13  C   UNL     1       0.423  -4.842  -6.924  0.00  0.00    +0.009 C 
ATOM     14  C   UNL     1      -0.571  -3.735  -7.280  0.00  0.00    +0.032 C 
ENDBRANCH   1  14
BRANCH  11  15
ATOM     15  C   UNL     1       1.446   4.199  -1.692  0.00  0.00    +0.069 C 
ATOM     16  C   UNL     1       2.384   5.145  -1.952  0.00  0.00    +0.020 C 
BRANCH  16  17
ATOM     17  C   UNL     1       2.561   6.229  -1.059  0.00  0.00    +0.015 A 
ATOM     18  C   UNL     1       3.458   7.289  -1.134  0.00  0.00    +0.018 A 
ATOM     19  C   UNL     1       3.414   8.215  -0.123  0.00  0.00    +0.041 A 
ATOM     20  C   UNL     1       2.522   8.051   0.890  0.00  0.00    +0.164 A 
ATOM     21  S   UNL     1       1.698   6.587   0.461  0.00  0.00    -0.065 S 
BRANCH  20  22
ATOM     22  N   UNL     1       2.307   8.913   2.074  0.00  0.00    +0.063 N 
ATOM     23  O   UNL     1       2.980   9.917   2.227  0.00  0.00    -0.126 OA
ATOM     24  O   UNL     1       1.458   8.618   2.896  0.00  0.00    -0.126 OA
ENDBRANCH  20  22
ENDBRANCH  16  17
ENDBRANCH  11  15
BRANCH  10  25
ATOM     25  C   UNL     1      -0.491   2.277  -1.123  0.00  0.00    +0.097 C 
BRANCH  25  26
ATOM     26  C   UNL     1       0.196   1.546   0.032  0.00  0.00    -0.059 C 
BRANCH  26  27
ATOM     27  N   UNL     1      -0.641   1.675   1.243  0.00  0.00    +0.380 N 
ATOM     28  H   UNL     1      -0.864   2.666   1.391  0.00  0.00    -0.082 HD
BRANCH  27  29
ATOM     29  C   UNL     1      -1.900   0.920   1.069  0.00  0.00    -0.082 C 
ATOM     30  C   UNL     1      -1.608  -0.561   0.824  0.00  0.00    -0.017 C 
ENDBRANCH  27  29
BRANCH  27  31
ATOM     31  C   UNL     1       0.094   1.167   2.421  0.00  0.00    -0.082 C 
ATOM     32  C   UNL     1      -0.624   1.637   3.688  0.00  0.00    -0.017 C 
ENDBRANCH  27  31
ENDBRANCH  26  27
ENDBRANCH  25  26
ENDBRANCH  10  25
TORSDOF 9
