REMARK  Name = ZINC59810480
REMARK  8 active torsions:
REMARK  status: ('A' for Active; 'I' for Inactive)
REMARK    1  A    between atoms: C_1  and  N_2
REMARK    2  A    between atoms: N_2  and  C_3
REMARK    3  A    between atoms: C_4  and  C_6
REMARK    4  A    between atoms: C_6  and  C_7
REMARK    5  A    between atoms: C_7  and  S_8
REMARK    6  A    between atoms: S_8  and  C_9
REMARK    7  A    between atoms: C_12  and  C_15
REMARK    8  A    between atoms: N_13  and  N_14
REMARK                            x       y       z     vdW  Elec       q    Type
REMARK                         _______ _______ _______ _____ _____    ______ ____
ROOT
ATOM      1  C   UNL     1      -4.250  -4.994   0.016  0.00  0.00    +0.209 A 
ATOM      2  N   UNL     1      -5.274  -4.169   0.024  0.00  0.00    -0.121 NA
ATOM      3  N   UNL     1      -6.374  -4.833   0.032  0.00  0.00    -0.127 NA
ATOM      4  C   UNL     1      -6.121  -6.121   0.030  0.00  0.00    +0.182 A 
ATOM      5  N   UNL     1      -4.753  -6.263   0.014  0.00  0.00    -0.224 N 
ENDROOT
BRANCH   4   6
ATOM      6  C   UNL     1      -7.118  -7.212   0.037  0.00  0.00    +0.022 A 
ATOM      7  C   UNL     1      -6.729  -8.515   0.352  0.00  0.00    +0.012 A 
ATOM      8  C   UNL     1      -7.664  -9.529   0.358  0.00  0.00    +0.002 A 
ATOM      9  C   UNL     1      -8.985  -9.258   0.052  0.00  0.00    +0.015 A 
ATOM     10  C   UNL     1      -9.379  -7.968  -0.262  0.00  0.00    +0.019 A 
ATOM     11  C   UNL     1      -8.454  -6.943  -0.265  0.00  0.00    +0.027 A 
ATOM     12 BR   UNL     1     -11.188  -7.608  -0.678  0.00  0.00    -0.050 Br
ENDBRANCH   4   6
BRANCH   5  13
ATOM     13  N   UNL     1      -4.045  -7.431   0.001  0.00  0.00    -0.295 N 
ATOM     14  H   UNL     1      -3.849  -7.746   0.939  0.00  0.00    +0.163 HD
ATOM     15  H   UNL     1      -4.530  -8.143  -0.525  0.00  0.00    +0.163 HD
ENDBRANCH   5  13
BRANCH   1  16
ATOM     16  S   UNL     1      -2.546  -4.544   0.002  0.00  0.00    -0.084 S 
BRANCH  16  17
ATOM     17  C   UNL     1      -2.571  -2.730   0.012  0.00  0.00    +0.086 C 
BRANCH  17  18
ATOM     18  C   UNL     1      -1.135  -2.201   0.001  0.00  0.00    +0.107 C 
BRANCH  18  22
ATOM     19  C   UNL     1      -0.018   1.461   0.010  0.00  0.00    +0.131 C 
ATOM     20  N   UNL     1       0.002  -0.004   0.002  0.00  0.00    -0.308 N 
ATOM     21  C   UNL     1       1.281  -0.719  -0.014  0.00  0.00    +0.131 C 
ATOM     22  C   UNL     1      -1.156  -0.694   0.009  0.00  0.00    +0.216 C 
ATOM     23  O   UNL     1      -2.214  -0.102   0.023  0.00  0.00    -0.276 OA
ENDBRANCH  18  22
ENDBRANCH  17  18
ENDBRANCH  16  17
ENDBRANCH   1  16
TORSDOF 6
