REMARK  Name = ZINC12559945
REMARK  7 active torsions:
REMARK  status: ('A' for Active; 'I' for Inactive)
REMARK    1  A    between atoms: C_4  and  C_7
REMARK    2  A    between atoms: C_7  and  C_8
REMARK    3  A    between atoms: C_8  and  C_10
REMARK    4  A    between atoms: C_8  and  N_24
REMARK    5  A    between atoms: N_12  and  C_13
REMARK    6  A    between atoms: C_13  and  C_14
REMARK    7  A    between atoms: C_14  and  C_15
REMARK                            x       y       z     vdW  Elec       q    Type
REMARK                         _______ _______ _______ _____ _____    ______ ____
ROOT
ATOM      1  C   UNL     1       2.983  10.966  -2.109  0.00  0.00    +0.175 C 
ENDROOT
BRANCH   1   2
ATOM      2  N   UNL     1       2.894  11.572  -3.440  0.00  0.00    -0.222 N 
ATOM      3  C   UNL     1       1.741  11.896  -4.053  0.00  0.00    +0.255 C 
ATOM      4  O   UNL     1       0.626  11.734  -3.598  0.00  0.00    -0.270 OA
ATOM      5  C   UNL     1       2.058  12.484  -5.372  0.00  0.00    +0.049 A 
ATOM      6  C   UNL     1       1.297  12.989  -6.414  0.00  0.00    +0.014 A 
ATOM      7  C   UNL     1       1.925  13.475  -7.550  0.00  0.00    +0.001 A 
ATOM      8  C   UNL     1       3.303  13.459  -7.650  0.00  0.00    +0.001 A 
ATOM      9  C   UNL     1       4.077  12.956  -6.616  0.00  0.00    +0.014 A 
ATOM     10  C   UNL     1       3.463  12.467  -5.474  0.00  0.00    +0.049 A 
ATOM     11  C   UNL     1       3.953  11.874  -4.212  0.00  0.00    +0.255 C 
ATOM     12  O   UNL     1       5.118  11.691  -3.920  0.00  0.00    -0.270 OA
ENDBRANCH   1   2
BRANCH   1  13
ATOM     13  C   UNL     1       2.255   9.646  -2.109  0.00  0.00    +0.234 C 
ATOM     14  O   UNL     1       1.426   9.411  -2.963  0.00  0.00    -0.274 OA
ATOM     15  N   UNL     1       2.524   8.728  -1.160  0.00  0.00    -0.313 N 
ATOM     16  H   UNL     1       3.186   8.917  -0.477  0.00  0.00    +0.149 HD
BRANCH  15  17
ATOM     17  C   UNL     1       1.816   7.446  -1.159  0.00  0.00    +0.110 C 
BRANCH  17  18
ATOM     18  C   UNL     1       2.304   6.594   0.014  0.00  0.00    +0.075 C 
BRANCH  18  19
ATOM     19  C   UNL     1       1.576   5.274   0.014  0.00  0.00    +0.062 A 
ATOM     20  C   UNL     1       2.156   4.054   0.002  0.00  0.00    +0.116 A 
ATOM     21  N   UNL     1       1.148   3.128   0.007  0.00  0.00    -0.306 N 
ATOM     22  C   UNL     1       1.149   1.763   0.001  0.00  0.00    +0.092 A 
ATOM     23  C   UNL     1      -0.013   1.076   0.008  0.00  0.00    +0.018 A 
ATOM     24  C   UNL     1      -1.240   1.758   0.018  0.00  0.00    +0.005 A 
ATOM     25  C   UNL     1      -1.255   3.119   0.031  0.00  0.00    +0.047 A 
ATOM     26  C   UNL     1      -0.034   3.822   0.022  0.00  0.00    +0.138 A 
ATOM     27  N   UNL     1       0.250   5.117   0.026  0.00  0.00    -0.233 NA
ENDBRANCH  18  19
ENDBRANCH  17  18
ENDBRANCH  15  17
ENDBRANCH   1  13
BRANCH   1  28
ATOM     28  C   UNL     1       2.346  11.900  -1.079  0.00  0.00    +0.067 C 
BRANCH  28  32
ATOM     29  C   UNL     1       4.620  15.508  -0.830  0.00  0.00    +0.000 A 
ATOM     30  C   UNL     1       3.575  15.410  -1.730  0.00  0.00    +0.000 A 
ATOM     31  C   UNL     1       2.839  14.243  -1.810  0.00  0.00    +0.004 A 
ATOM     32  C   UNL     1       3.148  13.173  -0.991  0.00  0.00    -0.045 A 
ATOM     33  C   UNL     1       4.190  13.273  -0.088  0.00  0.00    +0.004 A 
ATOM     34  C   UNL     1       4.929  14.438  -0.011  0.00  0.00    +0.000 A 
ENDBRANCH  28  32
ENDBRANCH   1  28
TORSDOF 7
