REMARK  Name = ZINC22441681
REMARK  5 active torsions:
REMARK  status: ('A' for Active; 'I' for Inactive)
REMARK    1  A    between atoms: C_1  and  C_2
REMARK    2  A    between atoms: C_2  and  N_3
REMARK    3  A    between atoms: C_13  and  N_15
REMARK    4  A    between atoms: N_15  and  C_16
REMARK    5  A    between atoms: C_25  and  C_28
REMARK                            x       y       z     vdW  Elec       q    Type
REMARK                         _______ _______ _______ _____ _____    ______ ____
ROOT
ATOM      1  N   UNL     1      -0.143   5.645  -2.512  0.00  0.00    +0.382 N 
ATOM      2  C   UNL     1      -1.062   4.628  -3.042  0.00  0.00    -0.060 C 
ATOM      3  C   UNL     1      -0.856   3.313  -2.286  0.00  0.00    +0.089 C 
ATOM      4  N   UNL     1       0.541   2.882  -2.431  0.00  0.00    -0.303 N 
ATOM      5  C   UNL     1       1.461   3.899  -1.901  0.00  0.00    +0.089 C 
ATOM      6  C   UNL     1       1.254   5.213  -2.657  0.00  0.00    -0.060 C 
ATOM      7  C   UNL     1       0.748   1.663  -1.821  0.00  0.00    +0.220 A 
ATOM      8  N   UNL     1       1.963   1.127  -1.859  0.00  0.00    -0.218 NA
ATOM      9  C   UNL     1       2.211  -0.039  -1.289  0.00  0.00    +0.059 A 
ATOM     10  C   UNL     1       1.166  -0.702  -0.638  0.00  0.00    +0.079 A 
ATOM     11  C   UNL     1      -0.113  -0.105  -0.618  0.00  0.00    +0.139 A 
ATOM     12  N   UNL     1      -0.272   1.070  -1.219  0.00  0.00    -0.199 NA
ATOM     13  C   UNL     1       1.398  -1.992   0.015  0.00  0.00    +0.169 C 
ATOM     14  O   UNL     1       0.570  -2.480   0.755  0.00  0.00    -0.292 OA
ATOM     15  C   UNL     1       2.712  -2.693  -0.265  0.00  0.00    +0.091 C 
ATOM     16  C   UNL     1       3.819  -1.632  -0.228  0.00  0.00    +0.068 C 
ATOM     17  C   UNL     1       3.594  -0.623  -1.353  0.00  0.00    +0.068 C 
ATOM     18  H   UNL     1      -0.351   5.765  -1.439  0.00  0.00    -0.082 HD
ENDROOT
BRANCH  16  19
ATOM     19  C   UNL     1       5.159  -2.296  -0.409  0.00  0.00    +0.109 A 
ATOM     20  C   UNL     1       6.179  -2.262   0.467  0.00  0.00    +0.045 A 
ATOM     21  C   UNL     1       7.232  -3.014  -0.101  0.00  0.00    +0.041 A 
ATOM     22  C   UNL     1       6.796  -3.457  -1.294  0.00  0.00    +0.195 A 
ATOM     23  O   UNL     1       5.540  -3.019  -1.475  0.00  0.00    -0.468 OA
ENDBRANCH  16  19
BRANCH   1  25
ATOM     24  C   UNL     1       0.427   8.025  -2.422  0.00  0.00    -0.017 C 
ATOM     25  C   UNL     1      -0.363   6.944  -3.162  0.00  0.00    -0.082 C 
ENDBRANCH   1  25
BRANCH  11  26
ATOM     26  N   UNL     1      -1.172  -0.726   0.009  0.00  0.00    -0.299 N 
ATOM     27  H   UNL     1      -1.053  -1.742   0.414  0.00  0.00    +0.154 HD
BRANCH  26  28
ATOM     28  C   UNL     1      -2.398  -0.065   0.129  0.00  0.00    +0.032 A 
ATOM     29  C   UNL     1      -2.443   1.323   0.143  0.00  0.00    +0.023 A 
ATOM     30  C   UNL     1      -3.656   1.972   0.256  0.00  0.00    +0.002 A 
ATOM     31  C   UNL     1      -4.825   1.242   0.367  0.00  0.00    +0.000 A 
ATOM     32  C   UNL     1      -4.784  -0.140   0.359  0.00  0.00    +0.002 A 
ATOM     33  C   UNL     1      -3.575  -0.796   0.240  0.00  0.00    +0.023 A 
ENDBRANCH  26  28
ENDBRANCH  11  26
TORSDOF 4
