REMARK  Name = ZINC12057202
REMARK  4 active torsions:
REMARK  status: ('A' for Active; 'I' for Inactive)
REMARK    1  A    between atoms: C_4  and  N_7
REMARK    2  A    between atoms: C_13  and  C_15
REMARK    3  A    between atoms: C_15  and  C_16
REMARK    4  A    between atoms: C_23  and  N_55
REMARK                            x       y       z     vdW  Elec       q    Type
REMARK                         _______ _______ _______ _____ _____    ______ ____
ROOT
ATOM      1  C   UNL     1      -0.033   1.215   0.207  0.00  0.00    +0.090 C 
ENDROOT
BRANCH   1   2
ATOM      2  C   UNL     1      -0.838   1.624  -1.028  0.00  0.00    +0.028 C 
ATOM      3  C   UNL     1      -2.228   1.061  -0.926  0.00  0.00    +0.200 C 
ATOM      4  O   UNL     1      -2.365  -0.079  -0.537  0.00  0.00    -0.278 OA
ATOM      5  N   UNL     1      -3.318   1.765  -1.246  0.00  0.00    -0.318 N 
ATOM      6  C   UNL     1      -3.264   3.155  -1.688  0.00  0.00    +0.085 C 
ATOM      7  C   UNL     1      -1.849   3.503  -2.152  0.00  0.00    -0.058 C 
ATOM      8  H   UNL     1      -4.184   1.333  -1.180  0.00  0.00    +0.149 HD
ATOM      9  N   UNL     1      -0.907   3.096  -1.090  0.00  0.00    +0.390 N 
ATOM     10  H   UNL     1      -1.242   3.455  -0.188  0.00  0.00    -0.080 HD
BRANCH   9  11
ATOM     11  C   UNL     1       0.437   3.655  -1.360  0.00  0.00    -0.067 C 
ATOM     12  C   UNL     1       0.389   5.193  -1.248  0.00  0.00    -0.015 C 
ATOM     13  C   UNL     1       1.355   5.686  -2.353  0.00  0.00    -0.002 C 
ATOM     14  C   UNL     1       1.091   4.687  -3.507  0.00  0.00    -0.002 C 
ATOM     15  C   UNL     1       0.884   3.334  -2.797  0.00  0.00    -0.015 C 
ENDBRANCH   9  11
ENDBRANCH   1   2
BRANCH   1  22
ATOM     16  N   UNL     1       1.587   2.173   4.821  0.00  0.00    -0.311 N 
ATOM     17  C   UNL     1       0.423   3.039   4.589  0.00  0.00    +0.125 C 
ATOM     18  C   UNL     1      -0.661   2.245   3.853  0.00  0.00    +0.126 C 
ATOM     19  N   UNL     1      -0.070   1.660   2.640  0.00  0.00    -0.299 N 
ATOM     20  C   UNL     1       1.173   0.886   2.776  0.00  0.00    +0.126 C 
ATOM     21  C   UNL     1       2.189   1.739   3.553  0.00  0.00    +0.125 C 
ATOM     22  C   UNL     1      -0.656   1.823   1.437  0.00  0.00    +0.215 C 
ATOM     23  O   UNL     1      -1.684   2.460   1.345  0.00  0.00    -0.276 OA
BRANCH  16  27
ATOM     24  C   UNL     1       4.366   3.981   7.177  0.00  0.00    +0.130 A 
ATOM     25  C   UNL     1       3.195   4.633   6.841  0.00  0.00    +0.132 A 
ATOM     26  N   UNL     1       2.299   4.034   6.074  0.00  0.00    -0.237 NA
ATOM     27  C   UNL     1       2.526   2.806   5.627  0.00  0.00    +0.140 A 
ATOM     28  C   UNL     1       3.706   2.151   5.972  0.00  0.00    +0.154 A 
ATOM     29  N   UNL     1       4.597   2.757   6.733  0.00  0.00    -0.258 NA
ENDBRANCH  16  27
ENDBRANCH   1  22
TORSDOF 4
