REMARK  Name = ZINC67535960
REMARK  9 active torsions:
REMARK  status: ('A' for Active; 'I' for Inactive)
REMARK    1  A    between atoms: C_1  and  C_2
REMARK    2  A    between atoms: C_3  and  C_9
REMARK    3  A    between atoms: C_4  and  C_8
REMARK    4  A    between atoms: N_5  and  C_7
REMARK    5  A    between atoms: C_9  and  C_11
REMARK    6  A    between atoms: C_9  and  N_12
REMARK    7  A    between atoms: N_15  and  C_16
REMARK    8  A    between atoms: C_16  and  C_18
REMARK    9  A    between atoms: C_16  and  C_19
REMARK                            x       y       z     vdW  Elec       q    Type
REMARK                         _______ _______ _______ _____ _____    ______ ____
ROOT
ATOM      1  N   UNL     1      -0.060   1.011  -3.132  0.00  0.00    -0.293 N 
ATOM      2  C   UNL     1      -0.831   1.217  -4.218  0.00  0.00    +0.301 C 
ATOM      3  O   UNL     1      -0.744   0.472  -5.175  0.00  0.00    -0.253 OA
ATOM      4  N   UNL     1      -1.698   2.249  -4.244  0.00  0.00    -0.293 N 
ATOM      5  H   UNL     1      -0.130   1.606  -2.368  0.00  0.00    +0.151 HD
ATOM      6  H   UNL     1      -1.767   2.843  -3.480  0.00  0.00    +0.151 HD
ENDROOT
BRANCH   1   7
ATOM      7  C   UNL     1       0.882  -0.110  -3.104  0.00  0.00    +0.105 C 
ATOM      8  C   UNL     1       2.168   0.287  -3.831  0.00  0.00    +0.033 C 
BRANCH   7  11
ATOM      9  C   UNL     1       0.961  -3.031  -1.877  0.00  0.00    +0.068 C 
ATOM     10  C   UNL     1       1.238  -1.751  -1.132  0.00  0.00    +0.065 A 
ATOM     11  C   UNL     1       1.202  -0.462  -1.674  0.00  0.00    +0.016 A 
ATOM     12  C   UNL     1       1.506   0.413  -0.687  0.00  0.00    +0.041 A 
ATOM     13  N   UNL     1       1.726  -0.297   0.439  0.00  0.00    -0.271 N 
ATOM     14  N   UNL     1       1.547  -1.653   0.136  0.00  0.00    -0.176 NA
ATOM     15  C   UNL     1       2.085   0.254   1.748  0.00  0.00    +0.172 C 
ATOM     16  C   UNL     1       1.585   1.912  -0.823  0.00  0.00    +0.065 C 
ENDBRANCH   7  11
ENDBRANCH   1   7
BRANCH   4  17
ATOM     17  C   UNL     1      -2.535   2.473  -5.425  0.00  0.00    +0.103 C 
ATOM     18  C   UNL     1      -3.806   1.626  -5.317  0.00  0.00    +0.033 C 
BRANCH  17  19
ATOM     19  C   UNL     1      -2.909   3.930  -5.507  0.00  0.00    -0.014 A 
ATOM     20  C   UNL     1      -2.958   4.697  -4.358  0.00  0.00    +0.006 A 
ATOM     21  C   UNL     1      -3.300   6.034  -4.433  0.00  0.00    +0.000 A 
ATOM     22  C   UNL     1      -3.592   6.606  -5.658  0.00  0.00    +0.001 A 
ATOM     23  C   UNL     1      -3.543   5.840  -6.807  0.00  0.00    +0.015 A 
ATOM     24  C   UNL     1      -3.196   4.503  -6.733  0.00  0.00    +0.023 A 
ATOM     25 BR   UNL     1      -3.121   3.456  -8.306  0.00  0.00    -0.050 Br
ENDBRANCH  17  19
ENDBRANCH   4  17
TORSDOF 4
