REMARK  Name = ZINC12586200
REMARK  8 active torsions:
REMARK  status: ('A' for Active; 'I' for Inactive)
REMARK    1  A    between atoms: C_1  and  C_2
REMARK    2  A    between atoms: N_4  and  C_5
REMARK    3  A    between atoms: C_8  and  C_11
REMARK    4  A    between atoms: N_12  and  N_13
REMARK    5  A    between atoms: C_14  and  C_16
REMARK    6  A    between atoms: C_19  and  N_22
REMARK    7  A    between atoms: N_22  and  S_23
REMARK    8  A    between atoms: S_23  and  C_26
REMARK                            x       y       z     vdW  Elec       q    Type
REMARK                         _______ _______ _______ _____ _____    ______ ____
ROOT
ATOM      1  C   UNL     1       4.064  -1.928  -4.335  0.00  0.00    +0.038 A 
ATOM      2  C   UNL     1       3.402  -3.157  -4.422  0.00  0.00    +0.015 A 
ATOM      3  C   UNL     1       2.407  -3.466  -3.524  0.00  0.00    +0.025 A 
ATOM      4  C   UNL     1       2.059  -2.557  -2.529  0.00  0.00    +0.048 A 
ATOM      5  C   UNL     1       2.712  -1.331  -2.442  0.00  0.00    +0.025 A 
ATOM      6  C   UNL     1       3.712  -1.018  -3.334  0.00  0.00    +0.015 A 
ENDROOT
BRANCH   1   8
ATOM      7  N   UNL     1       5.769  -0.409  -5.210  0.00  0.00    -0.203 N 
ATOM      8  C   UNL     1       5.132  -1.594  -5.296  0.00  0.00    +0.263 C 
ATOM      9  O   UNL     1       5.437  -2.388  -6.166  0.00  0.00    -0.268 OA
ATOM     10  H   UNL     1       5.525   0.223  -4.517  0.00  0.00    +0.178 HD
BRANCH   7  12
ATOM     11  C   UNL     1       7.397   1.049  -6.041  0.00  0.00    +0.138 C 
ATOM     12  N   UNL     1       6.783  -0.092  -6.123  0.00  0.00    -0.187 NA
BRANCH  11  16
ATOM     13  C   UNL     1      10.470   2.011  -8.807  0.00  0.00    +0.033 A 
ATOM     14  C   UNL     1      10.122   2.920  -7.814  0.00  0.00    +0.024 A 
ATOM     15  C   UNL     1       9.126   2.611  -6.914  0.00  0.00    +0.011 A 
ATOM     16  C   UNL     1       8.464   1.383  -7.001  0.00  0.00    -0.005 A 
ATOM     17  C   UNL     1       8.820   0.470  -7.998  0.00  0.00    +0.011 A 
ATOM     18  C   UNL     1       9.814   0.788  -8.897  0.00  0.00    +0.024 A 
BRANCH  13  22
ATOM     19  C   UNL     1      13.462   1.721 -11.070  0.00  0.00    +0.109 C 
ATOM     20  C   UNL     1      12.307   1.363 -10.171  0.00  0.00    +0.214 C 
ATOM     21  O   UNL     1      12.120   0.207  -9.854  0.00  0.00    -0.276 OA
ATOM     22  N   UNL     1      11.482   2.328  -9.718  0.00  0.00    -0.286 N 
ATOM     23  H   UNL     1      11.590   3.242 -10.024  0.00  0.00    +0.155 HD
ENDBRANCH  13  22
ENDBRANCH  11  16
ENDBRANCH   7  12
ENDBRANCH   1   8
BRANCH   4  24
ATOM     24  N   UNL     1       1.052  -2.872  -1.622  0.00  0.00    -0.216 N 
ATOM     25  H   UNL     1       0.183  -2.448  -1.696  0.00  0.00    +0.174 HD
BRANCH  24  26
ATOM     26  S   UNL     1       1.338  -3.970  -0.416  0.00  0.00    +0.072 S 
ATOM     27  O   UNL     1       1.899  -5.118  -1.038  0.00  0.00    -0.150 OA
ATOM     28  O   UNL     1       0.153  -4.031   0.367  0.00  0.00    -0.150 OA
BRANCH  26  29
ATOM     29  C   UNL     1       2.592  -3.293   0.619  0.00  0.00    +0.109 A 
ATOM     30  C   UNL     1       2.252  -2.420   1.635  0.00  0.00    +0.030 A 
ATOM     31  C   UNL     1       3.236  -1.889   2.448  0.00  0.00    +0.017 A 
ATOM     32  C   UNL     1       4.561  -2.231   2.244  0.00  0.00    +0.018 A 
ATOM     33  C   UNL     1       4.901  -3.104   1.226  0.00  0.00    +0.017 A 
ATOM     34  C   UNL     1       3.916  -3.635   0.414  0.00  0.00    +0.030 A 
ATOM     35 BR   UNL     1       5.907  -1.504   3.355  0.00  0.00    -0.050 Br
ENDBRANCH  26  29
ENDBRANCH  24  26
ENDBRANCH   4  24
TORSDOF 7
