REMARK  Name = ZINC18142307
REMARK  7 active torsions:
REMARK  status: ('A' for Active; 'I' for Inactive)
REMARK    1  A    between atoms: C_1  and  C_2
REMARK    2  A    between atoms: C_2  and  N_3
REMARK    3  A    between atoms: N_3  and  C_4
REMARK    4  A    between atoms: N_3  and  C_6
REMARK    5  A    between atoms: C_4  and  C_5
REMARK    6  A    between atoms: C_11  and  C_24
REMARK    7  A    between atoms: N_13  and  C_14
REMARK                            x       y       z     vdW  Elec       q    Type
REMARK                         _______ _______ _______ _____ _____    ______ ____
ROOT
ATOM      1  C   UNL     1       2.885  -0.713   0.097  0.00  0.00    +0.033 A 
ATOM      2  C   UNL     1       3.897  -0.501  -0.842  0.00  0.00    +0.024 A 
ATOM      3  C   UNL     1       5.199  -0.742  -0.520  0.00  0.00    +0.013 A 
ATOM      4  C   UNL     1       5.528  -1.216   0.759  0.00  0.00    +0.018 A 
ATOM      5  C   UNL     1       6.875  -1.504   1.093  0.00  0.00    +0.030 A 
ATOM      6  C   UNL     1       7.129  -2.156   2.292  0.00  0.00    +0.097 A 
ATOM      7  C   UNL     1       5.966  -2.531   3.119  0.00  0.00    +0.212 A 
ATOM      8  N   UNL     1       6.029  -3.536   3.966  0.00  0.00    -0.325 N 
ATOM      9  O   UNL     1       4.830  -1.802   2.975  0.00  0.00    -0.438 OA
ATOM     10  C   UNL     1       4.513  -1.402   1.719  0.00  0.00    +0.139 A 
ATOM     11  C   UNL     1       3.195  -1.155   1.377  0.00  0.00    +0.070 A 
ATOM     12  H   UNL     1       6.817  -4.101   3.991  0.00  0.00    +0.169 HD
ENDROOT
BRANCH   8  13
ATOM     13  C   UNL     1       4.982  -3.785   4.811  0.00  0.00    +0.042 A 
ATOM     14  C   UNL     1       4.368  -2.733   5.495  0.00  0.00    +0.027 A 
ATOM     15  C   UNL     1       3.313  -2.990   6.345  0.00  0.00    +0.022 A 
ATOM     16  C   UNL     1       2.862  -4.287   6.522  0.00  0.00    +0.041 A 
ATOM     17  C   UNL     1       3.467  -5.335   5.847  0.00  0.00    +0.022 A 
ATOM     18  C   UNL     1       4.519  -5.091   4.989  0.00  0.00    +0.027 A 
ATOM     19 CL   UNL     1       1.535  -4.603   7.595  0.00  0.00    -0.084 Cl
ENDBRANCH   8  13
BRANCH   6  20
ATOM     20  C   UNL     1       8.504  -2.462   2.720  0.00  0.00    +0.247 C 
ATOM     21  O   UNL     1       8.707  -2.923   3.827  0.00  0.00    -0.270 OA
ATOM     22  N   UNL     1       9.537  -2.230   1.886  0.00  0.00    -0.325 N 
ATOM     23  H   UNL     1       9.383  -1.797   1.032  0.00  0.00    +0.145 HD
ATOM     24  H   UNL     1      10.434  -2.497   2.140  0.00  0.00    +0.145 HD
ENDBRANCH   6  20
BRANCH   1  25
ATOM     25  N   UNL     1       1.560  -0.475  -0.249  0.00  0.00    -0.330 N 
BRANCH  25  27
ATOM     26  C   UNL     1       1.243   1.521  -1.626  0.00  0.00    +0.024 C 
ATOM     27  C   UNL     1       1.228  -0.009  -1.597  0.00  0.00    +0.102 C 
ENDBRANCH  25  27
BRANCH  25  28
ATOM     28  C   UNL     1       0.496  -0.691   0.734  0.00  0.00    +0.102 C 
ATOM     29  C   UNL     1      -0.005  -2.133   0.636  0.00  0.00    +0.024 C 
ENDBRANCH  25  28
ENDBRANCH   1  25
TORSDOF 5
