REMARK  Name = ZINC46633744
REMARK  4 active torsions:
REMARK  status: ('A' for Active; 'I' for Inactive)
REMARK    1  A    between atoms: C_1  and  C_2
REMARK    2  A    between atoms: N_11  and  C_15
REMARK    3  A    between atoms: C_15  and  C_16
REMARK    4  A    between atoms: C_22  and  C_25
REMARK                            x       y       z     vdW  Elec       q    Type
REMARK                         _______ _______ _______ _____ _____    ______ ____
ROOT
ATOM      1  C   UNL     1       0.904   1.505   4.347  0.00  0.00    +0.213 C 
ENDROOT
BRANCH   1  11
ATOM      2  C   UNL     1      -0.019   1.526   0.010  0.00  0.00    +0.010 C 
ATOM      3  C   UNL     1       0.002  -0.004   0.002  0.00  0.00    +0.018 C 
ATOM      4  C   UNL     1      -1.434  -0.533   0.012  0.00  0.00    +0.006 C 
ATOM      5  C   UNL     1      -1.413  -2.063   0.024  0.00  0.00    +0.000 C 
ATOM      6  C   UNL     1      -0.690  -2.554   1.280  0.00  0.00    +0.003 C 
ATOM      7  C   UNL     1       0.749  -2.033   1.276  0.00  0.00    +0.035 C 
ATOM      8  C   UNL     1       0.741  -0.509   1.237  0.00  0.00    +0.115 C 
ATOM      9  C   UNL     1       0.111   0.049   2.493  0.00  0.00    +0.247 C 
ATOM     10  O   UNL     1      -1.023  -0.123   2.884  0.00  0.00    -0.273 OA
ATOM     11  N   UNL     1       1.078   0.778   3.087  0.00  0.00    -0.215 N 
ATOM     12  C   UNL     1       2.217   0.755   2.383  0.00  0.00    +0.310 C 
ATOM     13  O   UNL     1       3.230   1.337   2.717  0.00  0.00    -0.252 OA
ATOM     14  N   UNL     1       2.113   0.013   1.264  0.00  0.00    -0.285 N 
ATOM     15  H   UNL     1       2.808  -0.145   0.606  0.00  0.00    +0.151 HD
ENDBRANCH   1  11
BRANCH   1  16
ATOM     16  C   UNL     1       1.267   0.606   5.501  0.00  0.00    +0.234 C 
ATOM     17  O   UNL     1       1.635  -0.530   5.291  0.00  0.00    -0.274 OA
ATOM     18  N   UNL     1       1.182   1.065   6.765  0.00  0.00    -0.295 N 
ATOM     19  C   UNL     1       0.733   2.438   7.044  0.00  0.00    +0.136 C 
ATOM     20  C   UNL     1      -0.376   2.379   8.102  0.00  0.00    +0.179 C 
ATOM     21  O   UNL     1       0.084   1.621   9.223  0.00  0.00    -0.369 OA
ATOM     22  C   UNL     1       0.389   0.257   8.923  0.00  0.00    +0.166 C 
ATOM     23  C   UNL     1       1.531   0.206   7.908  0.00  0.00    +0.144 C 
BRANCH  22  24
ATOM     24  C   UNL     1       0.801  -0.457  10.184  0.00  0.00    -0.017 A 
ATOM     25  C   UNL     1       1.513   0.218  11.159  0.00  0.00    +0.009 A 
ATOM     26  C   UNL     1       1.891  -0.435  12.316  0.00  0.00    +0.039 A 
ATOM     27  C   UNL     1       1.557  -1.766  12.501  0.00  0.00    +0.123 A 
ATOM     28  C   UNL     1       0.844  -2.441  11.524  0.00  0.00    +0.039 A 
ATOM     29  C   UNL     1       0.462  -1.784  10.370  0.00  0.00    +0.009 A 
ATOM     30  F   UNL     1       1.926  -2.405  13.632  0.00  0.00    -0.205 F 
ENDBRANCH  22  24
ENDBRANCH   1  16
TORSDOF 3
