REMARK  Name = ZINC01003037
REMARK  12 active torsions:
REMARK  status: ('A' for Active; 'I' for Inactive)
REMARK    1  A    between atoms: C_1  and  C_2
REMARK    2  A    between atoms: C_2  and  C_3
REMARK    3  A    between atoms: C_3  and  C_4
REMARK    4  A    between atoms: C_3  and  C_5
REMARK    5  A    between atoms: C_3  and  C_6
REMARK    6  A    between atoms: C_13  and  N_19
REMARK    7  A    between atoms: C_14  and  C_15
REMARK    8  A    between atoms: C_15  and  O_17
REMARK    9  A    between atoms: O_17  and  C_18
REMARK   10  A    between atoms: C_20  and  C_22
REMARK   11  A    between atoms: C_26  and  C_34
REMARK   12  A    between atoms: C_28  and  C_31
REMARK                            x       y       z     vdW  Elec       q    Type
REMARK                         _______ _______ _______ _____ _____    ______ ____
ROOT
ATOM      1  C   UNL     1      -0.055   6.378  -0.344  0.00  0.00    -0.000 C 
ATOM      2  C   UNL     1       1.202   6.081   0.479  0.00  0.00    +0.009 C 
ATOM      3  C   UNL     1       1.833   4.768   0.011  0.00  0.00    +0.037 C 
ATOM      4  C   UNL     1       0.765   3.682   0.015  0.00  0.00    -0.021 A 
ATOM      5  C   UNL     1      -0.548   3.997   0.029  0.00  0.00    -0.004 A 
ATOM      6  S   UNL     1      -1.389   2.439   0.021  0.00  0.00    -0.077 S 
ATOM      7  C   UNL     1      -0.017   1.381   0.010  0.00  0.00    +0.087 A 
ATOM      8  C   UNL     1       1.060   2.259   0.004  0.00  0.00    +0.091 A 
ATOM      9  C   UNL     1      -1.147   5.370   0.040  0.00  0.00    +0.046 C 
ENDROOT
BRANCH   7  10
ATOM     10  N   UNL     1       0.002  -0.004   0.002  0.00  0.00    -0.273 N 
ATOM     11  C   UNL     1      -1.156  -0.694   0.009  0.00  0.00    +0.288 C 
ATOM     12  O   UNL     1      -2.216  -0.101   0.023  0.00  0.00    -0.266 OA
ATOM     13  H   UNL     1       0.849  -0.478  -0.009  0.00  0.00    +0.156 HD
BRANCH  11  14
ATOM     14  C   UNL     1      -1.136  -2.174   0.001  0.00  0.00    +0.239 A 
ATOM     15  N   UNL     1      -0.036  -2.931  -0.019  0.00  0.00    -0.185 NA
ATOM     16  C   UNL     1      -0.375  -4.212  -0.018  0.00  0.00    +0.254 A 
ATOM     17  N   UNL     1       0.352  -5.338  -0.032  0.00  0.00    -0.216 NA
ATOM     18  C   UNL     1      -0.228  -6.515  -0.033  0.00  0.00    +0.044 A 
ATOM     19  C   UNL     1      -1.626  -6.615  -0.021  0.00  0.00    +0.052 A 
ATOM     20  C   UNL     1      -2.373  -5.482  -0.006  0.00  0.00    +0.113 A 
ATOM     21  N   UNL     1      -1.742  -4.275  -0.005  0.00  0.00    -0.195 N 
ATOM     22  N   UNL     1      -2.202  -2.952   0.007  0.00  0.00    -0.138 NA
ATOM     23  C   UNL     1       0.613  -7.765  -0.049  0.00  0.00    +0.066 C 
BRANCH  20  24
ATOM     24  C   UNL     1      -3.878  -5.558   0.009  0.00  0.00    +0.390 C 
ATOM     25  F   UNL     1      -4.365  -4.930   1.160  0.00  0.00    -0.202 F 
ATOM     26  F   UNL     1      -4.388  -4.916  -1.124  0.00  0.00    -0.202 F 
ENDBRANCH  20  24
ENDBRANCH  11  14
ENDBRANCH   7  10
BRANCH   1  27
ATOM     27  C   UNL     1      -0.539   7.798  -0.046  0.00  0.00    -0.032 C 
ATOM     28  C   UNL     1      -0.850   7.928   1.446  0.00  0.00    +0.011 C 
ATOM     29  C   UNL     1       0.551   8.800  -0.430  0.00  0.00    +0.011 C 
BRANCH  27  31
ATOM     30  C   UNL     1      -2.289   9.506  -0.560  0.00  0.00    +0.004 C 
ATOM     31  C   UNL     1      -1.804   8.085  -0.858  0.00  0.00    +0.003 C 
ENDBRANCH  27  31
ENDBRANCH   1  27
BRANCH   8  32
ATOM     32  C   UNL     1       2.440   1.769  -0.012  0.00  0.00    +0.342 C 
ATOM     33  O   UNL     1       3.002   1.571  -1.072  0.00  0.00    -0.245 OA
BRANCH  32  34
ATOM     34  O   UNL     1       3.087   1.537   1.148  0.00  0.00    -0.464 OA
ATOM     35  C   UNL     1       4.452   1.052   1.056  0.00  0.00    +0.280 C 
ENDBRANCH  32  34
ENDBRANCH   8  32
TORSDOF 7
