REMARK  Name = ZINC04115946
REMARK  7 active torsions:
REMARK  status: ('A' for Active; 'I' for Inactive)
REMARK    1  A    between atoms: C_1  and  C_2
REMARK    2  A    between atoms: C_2  and  C_3
REMARK    3  A    between atoms: C_8  and  N_9
REMARK    4  A    between atoms: C_10  and  C_12
REMARK    5  A    between atoms: C_12  and  C_13
REMARK    6  A    between atoms: C_20  and  C_26
REMARK    7  A    between atoms: C_21  and  C_25
REMARK                            x       y       z     vdW  Elec       q    Type
REMARK                         _______ _______ _______ _____ _____    ______ ____
ROOT
ATOM      1  C   UNL     1      -1.464   6.145  -0.270  0.00  0.00    +0.166 C 
ATOM      2  C   UNL     1      -1.483   7.653  -0.257  0.00  0.00    +0.238 C 
ATOM      3  O   UNL     1      -1.572   8.243   0.799  0.00  0.00    -0.273 OA
ATOM      4  N   UNL     1      -1.401   8.351  -1.404  0.00  0.00    -0.282 N 
ATOM      5  C   UNL     1      -1.431   7.702  -2.643  0.00  0.00    +0.055 A 
ATOM      6  C   UNL     1      -1.156   8.395  -3.811  0.00  0.00    +0.028 A 
ATOM      7  C   UNL     1      -1.186   7.737  -5.027  0.00  0.00    -0.046 A 
ATOM      8  C   UNL     1      -1.495   6.391  -5.085  0.00  0.00    -0.046 A 
ATOM      9  C   UNL     1      -1.783   5.693  -3.926  0.00  0.00    +0.028 A 
ATOM     10  C   UNL     1      -1.759   6.347  -2.707  0.00  0.00    +0.049 A 
ATOM     11  N   UNL     1      -2.075   5.668  -1.519  0.00  0.00    -0.331 N 
ATOM     12  C   UNL     1      -1.517   5.681  -6.415  0.00  0.00    +0.044 C 
ATOM     13  C   UNL     1      -0.879   8.492  -6.295  0.00  0.00    +0.044 C 
ATOM     14  H   UNL     1      -1.319   9.317  -1.371  0.00  0.00    +0.155 HD
ATOM     15  H   UNL     1      -2.678   4.908  -1.521  0.00  0.00    +0.147 HD
ENDROOT
BRANCH   1  16
ATOM     16  C   UNL     1      -0.019   5.650  -0.184  0.00  0.00    +0.127 C 
BRANCH  16  18
ATOM     17  N   UNL     1       1.162   3.485   0.009  0.00  0.00    -0.285 N 
ATOM     18  C   UNL     1      -0.009   4.146  -0.078  0.00  0.00    +0.219 C 
ATOM     19  O   UNL     1      -1.055   3.532  -0.072  0.00  0.00    -0.275 OA
ATOM     20  H   UNL     1       1.995   3.979   0.070  0.00  0.00    +0.155 HD
BRANCH  17  26
ATOM     21  C   UNL     1       2.219   1.400  -0.596  0.00  0.00    -0.026 A 
ATOM     22  C   UNL     1       2.230   0.018  -0.591  0.00  0.00    +0.005 A 
ATOM     23  C   UNL     1       1.205  -0.681   0.018  0.00  0.00    +0.000 A 
ATOM     24  C   UNL     1       0.166  -0.000   0.626  0.00  0.00    +0.002 A 
ATOM     25  C   UNL     1       0.148   1.381   0.624  0.00  0.00    +0.023 A 
ATOM     26  C   UNL     1       1.177   2.086   0.013  0.00  0.00    +0.037 A 
BRANCH  21  28
ATOM     27  C   UNL     1       4.389   2.537  -0.216  0.00  0.00    +0.009 C 
ATOM     28  C   UNL     1       3.337   2.161  -1.260  0.00  0.00    +0.033 C 
ENDBRANCH  21  28
ENDBRANCH  17  26
ENDBRANCH  16  18
ENDBRANCH   1  16
TORSDOF 4
