REMARK  Name = ZINC63159520
REMARK  7 active torsions:
REMARK  status: ('A' for Active; 'I' for Inactive)
REMARK    1  A    between atoms: C_7  and  C_10
REMARK    2  A    between atoms: C_10  and  C_11
REMARK    3  A    between atoms: C_11  and  C_12
REMARK    4  A    between atoms: N_14  and  C_15
REMARK    5  A    between atoms: C_20  and  C_21
REMARK    6  A    between atoms: N_23  and  C_24
REMARK    7  A    between atoms: C_24  and  C_25
REMARK                            x       y       z     vdW  Elec       q    Type
REMARK                         _______ _______ _______ _____ _____    ______ ____
ROOT
ATOM      1  C   UNL     1      -0.935  -4.471  -1.665  0.00  0.00    +0.218 C 
ATOM      2  O   UNL     1      -1.788  -4.564  -0.808  0.00  0.00    -0.275 OA
ATOM      3  N   UNL     1      -0.836  -5.414  -2.623  0.00  0.00    -0.285 N 
ATOM      4  H   UNL     1      -0.208  -5.300  -3.353  0.00  0.00    +0.155 HD
ENDROOT
BRANCH   3   5
ATOM      5  C   UNL     1      -1.635  -6.553  -2.564  0.00  0.00    +0.046 A 
ATOM      6  C   UNL     1      -2.126  -6.998  -1.344  0.00  0.00    +0.024 A 
ATOM      7  C   UNL     1      -2.918  -8.127  -1.287  0.00  0.00    +0.002 A 
ATOM      8  C   UNL     1      -3.228  -8.825  -2.444  0.00  0.00    +0.001 A 
ATOM      9  C   UNL     1      -2.750  -8.398  -3.663  0.00  0.00    +0.015 A 
ATOM     10  C   UNL     1      -1.952  -7.253  -3.737  0.00  0.00    +0.058 A 
BRANCH  10  11
ATOM     11  C   UNL     1      -1.442  -6.787  -5.040  0.00  0.00    +0.246 C 
ATOM     12  O   UNL     1      -0.671  -5.848  -5.091  0.00  0.00    -0.270 OA
ATOM     13  N   UNL     1      -1.829  -7.403  -6.175  0.00  0.00    -0.309 N 
ATOM     14  H   UNL     1      -2.444  -8.152  -6.135  0.00  0.00    +0.149 HD
BRANCH  13  15
ATOM     15  C   UNL     1      -1.323  -6.940  -7.469  0.00  0.00    +0.136 C 
BRANCH  15  16
ATOM     16  C   UNL     1      -1.913  -7.802  -8.586  0.00  0.00    +0.135 C 
ATOM     17  C   UNL     1      -1.362  -7.351  -9.963  0.00  0.00    +0.035 C 
ATOM     18  C   UNL     1      -1.527  -8.657 -10.788  0.00  0.00    +0.031 C 
ATOM     19  C   UNL     1      -1.263  -9.749  -9.730  0.00  0.00    +0.160 C 
ATOM     20  O   UNL     1      -1.490  -9.167  -8.439  0.00  0.00    -0.375 OA
ENDBRANCH  15  16
ENDBRANCH  13  15
ENDBRANCH  10  11
ENDBRANCH   3   5
BRANCH   1  21
ATOM     21  C   UNL     1       0.015  -3.300  -1.660  0.00  0.00    +0.100 C 
BRANCH  21  22
ATOM     22  C   UNL     1      -0.311  -2.385  -0.477  0.00  0.00    +0.042 C 
BRANCH  22  29
ATOM     23  C   UNL     1      -0.627   1.871  -2.163  0.00  0.00    +0.001 A 
ATOM     24  C   UNL     1       0.513   2.653  -1.932  0.00  0.00    +0.002 A 
ATOM     25  C   UNL     1       1.595   2.188  -1.273  0.00  0.00    +0.026 A 
ATOM     26  C   UNL     1       1.617   0.854  -0.779  0.00  0.00    +0.043 A 
ATOM     27  N   UNL     1       2.531   0.182  -0.122  0.00  0.00    -0.380 N 
ATOM     28  C   UNL     1       2.022  -1.169   0.138  0.00  0.00    +0.144 C 
ATOM     29  C   UNL     1       0.638  -1.215  -0.472  0.00  0.00    -0.041 C 
ATOM     30  C   UNL     1       0.426   0.007  -1.011  0.00  0.00    -0.001 A 
ATOM     31  C   UNL     1      -0.710   0.590  -1.736  0.00  0.00    +0.010 A 
ATOM     32  H   UNL     1       3.399   0.521   0.147  0.00  0.00    +0.160 HD
ENDBRANCH  22  29
ENDBRANCH  21  22
ENDBRANCH   1  21
TORSDOF 7
