REMARK  Name = ZINC39387798
REMARK  11 active torsions:
REMARK  status: ('A' for Active; 'I' for Inactive)
REMARK    1  A    between atoms: C_1  and  C_2
REMARK    2  A    between atoms: C_2  and  C_3
REMARK    3  A    between atoms: C_2  and  C_4
REMARK    4  A    between atoms: C_4  and  C_5
REMARK    5  A    between atoms: C_7  and  C_11
REMARK    6  A    between atoms: C_11  and  N_12
REMARK    7  A    between atoms: C_16  and  N_19
REMARK    8  A    between atoms: C_24  and  O_31
REMARK    9  A    between atoms: C_25  and  O_29
REMARK   10  A    between atoms: O_29  and  C_30
REMARK   11  A    between atoms: O_31  and  C_32
REMARK                            x       y       z     vdW  Elec       q    Type
REMARK                         _______ _______ _______ _____ _____    ______ ____
ROOT
ATOM      1  N   UNL     1      -2.559  -6.289  -0.210  0.00  0.00    -0.301 NA
ATOM      2  C   UNL     1      -2.520  -6.009  -1.651  0.00  0.00    +0.084 C 
ATOM      3  C   UNL     1      -2.237  -7.304  -2.416  0.00  0.00    +0.014 C 
ATOM      4  C   UNL     1      -3.336  -8.325  -2.105  0.00  0.00    -0.013 C 
ATOM      5  C   UNL     1      -3.388  -8.562  -0.593  0.00  0.00    -0.054 C 
ATOM      6  C   UNL     1      -3.637  -7.231   0.119  0.00  0.00    +0.069 C 
ENDROOT
BRANCH   5   7
ATOM      7  N   UNL     1      -4.477  -9.498  -0.281  0.00  0.00    +0.385 N 
ATOM      8  C   UNL     1      -4.520  -9.735   1.170  0.00  0.00    -0.073 C 
ATOM      9  C   UNL     1      -5.828 -10.452   1.508  0.00  0.00    +0.017 C 
ATOM     10  C   UNL     1      -5.998 -11.653   0.612  0.00  0.00    -0.044 A 
ATOM     11  C   UNL     1      -6.920 -12.623   0.972  0.00  0.00    +0.053 A 
ATOM     12  C   UNL     1      -7.108 -13.739   0.175  0.00  0.00    +0.162 A 
ATOM     13  C   UNL     1      -6.366 -13.884  -0.993  0.00  0.00    +0.162 A 
ATOM     14  C   UNL     1      -5.446 -12.913  -1.347  0.00  0.00    +0.051 A 
ATOM     15  C   UNL     1      -5.260 -11.797  -0.544  0.00  0.00    -0.057 A 
ATOM     16  C   UNL     1      -4.241 -10.771  -0.966  0.00  0.00    -0.042 C 
ATOM     17  H   UNL     1      -5.355  -9.107  -0.587  0.00  0.00    -0.081 HD
BRANCH  13  18
ATOM     18  O   UNL     1      -6.543 -14.976  -1.784  0.00  0.00    -0.491 OA
ATOM     19  C   UNL     1      -5.747 -15.057  -2.967  0.00  0.00    +0.277 C 
ENDBRANCH  13  18
BRANCH  12  20
ATOM     20  O   UNL     1      -8.013 -14.689   0.533  0.00  0.00    -0.491 OA
ATOM     21  C   UNL     1      -8.737 -14.472   1.745  0.00  0.00    +0.277 C 
ENDBRANCH  12  20
ENDBRANCH   5   7
BRANCH   1  22
ATOM     22  C   UNL     1      -2.690  -5.047   0.564  0.00  0.00    +0.117 C 
BRANCH  22  25
ATOM     23  C   UNL     1      -0.981  -3.834   3.166  0.00  0.00    +0.062 C 
ATOM     24  C   UNL     1      -2.254  -4.002   2.801  0.00  0.00    +0.027 C 
ATOM     25  C   UNL     1      -2.239  -5.294   2.005  0.00  0.00    +0.166 C 
ATOM     26  N   UNL     1      -0.822  -5.694   2.049  0.00  0.00    -0.179 NA
ATOM     27  N   UNL     1      -0.210  -4.840   2.696  0.00  0.00    -0.159 NA
BRANCH  23  28
ATOM     28  C   UNL     1      -0.471  -2.678   3.987  0.00  0.00    +0.060 C 
BRANCH  28  30
ATOM     29  C   UNL     1       0.211  -1.952   6.279  0.00  0.00    +0.007 C 
ATOM     30  C   UNL     1      -0.423  -3.081   5.462  0.00  0.00    -0.011 C 
ATOM     31  C   UNL     1      -1.844  -3.339   5.966  0.00  0.00    +0.007 C 
ENDBRANCH  28  30
ENDBRANCH  23  28
ENDBRANCH  22  25
ENDBRANCH   1  22
TORSDOF 7
