REMARK  Name = ZINC13684681
REMARK  7 active torsions:
REMARK  status: ('A' for Active; 'I' for Inactive)
REMARK    1  A    between atoms: C_1  and  C_2
REMARK    2  A    between atoms: C_2  and  C_3
REMARK    3  A    between atoms: C_2  and  N_4
REMARK    4  A    between atoms: N_6  and  N_7
REMARK    5  A    between atoms: C_8  and  C_9
REMARK    6  A    between atoms: C_8  and  C_10
REMARK    7  A    between atoms: C_14  and  N_16
REMARK                            x       y       z     vdW  Elec       q    Type
REMARK                         _______ _______ _______ _____ _____    ______ ____
ROOT
ATOM      1  N   UNL     1       0.018  -1.238   4.693  0.00  0.00    -0.185 NA
ATOM      2  C   UNL     1       0.645  -1.668   5.745  0.00  0.00    +0.063 C 
ATOM      3  C   UNL     1       2.112  -2.006   5.661  0.00  0.00    +0.068 C 
ENDROOT
BRANCH   2   4
ATOM      4  C   UNL     1      -0.076  -1.826   7.021  0.00  0.00    -0.000 A 
ATOM      5  C   UNL     1       0.598  -2.283   8.156  0.00  0.00    +0.011 A 
ATOM      6  C   UNL     1      -0.083  -2.428   9.347  0.00  0.00    +0.023 A 
ATOM      7  C   UNL     1      -1.431  -2.123   9.418  0.00  0.00    +0.071 A 
ATOM      8  C   UNL     1      -2.106  -1.670   8.297  0.00  0.00    +0.145 A 
ATOM      9  C   UNL     1      -1.435  -1.514   7.102  0.00  0.00    +0.044 A 
ATOM     10 CL   UNL     1      -2.281  -2.309  10.921  0.00  0.00    -0.081 Cl
BRANCH   8  11
ATOM     11  N   UNL     1      -3.547  -1.346   8.383  0.00  0.00    +0.058 N 
ATOM     12  O   UNL     1      -4.137  -0.950   7.404  0.00  0.00    -0.126 OA
ATOM     13  O   UNL     1      -4.135  -1.477   9.431  0.00  0.00    -0.126 OA
ENDBRANCH   8  11
ENDBRANCH   2   4
BRANCH   1  16
ATOM     14  N   UNL     1       0.711  -0.489   1.189  0.00  0.00    -0.364 N 
ATOM     15  C   UNL     1       0.042  -0.635   2.372  0.00  0.00    +0.159 C 
ATOM     16  N   UNL     1       0.703  -1.089   3.481  0.00  0.00    -0.216 N 
ATOM     17  S   UNL     1      -1.573  -0.263   2.464  0.00  0.00    -0.015 SA
ATOM     18  H   UNL     1       1.647  -1.306   3.427  0.00  0.00    +0.176 HD
ATOM     19  H   UNL     1       1.654  -0.707   1.135  0.00  0.00    +0.162 HD
BRANCH  14  21
ATOM     20  C   UNL     1      -0.019   1.526   0.010  0.00  0.00    +0.030 C 
ATOM     21  C   UNL     1       0.002  -0.004   0.002  0.00  0.00    +0.075 C 
ATOM     22  C   UNL     1       0.718  -0.497  -1.257  0.00  0.00    +0.030 C 
ENDBRANCH  14  21
ENDBRANCH   1  16
TORSDOF 4
