REMARK  Name = ZINC59408639
REMARK  10 active torsions:
REMARK  status: ('A' for Active; 'I' for Inactive)
REMARK    1  A    between atoms: C_1  and  C_2
REMARK    2  A    between atoms: C_5  and  C_32
REMARK    3  A    between atoms: N_8  and  C_10
REMARK    4  A    between atoms: C_10  and  C_11
REMARK    5  A    between atoms: C_14  and  C_17
REMARK    6  A    between atoms: C_17  and  N_18
REMARK    7  A    between atoms: C_19  and  C_21
REMARK    8  A    between atoms: C_21  and  O_22
REMARK    9  A    between atoms: O_22  and  C_23
REMARK   10  A    between atoms: C_26  and  N_29
REMARK                            x       y       z     vdW  Elec       q    Type
REMARK                         _______ _______ _______ _____ _____    ______ ____
ROOT
ATOM      1  C   UNL     1       2.154   0.211   3.646  0.00  0.00    -0.064 A 
ATOM      2  C   UNL     1       3.232  -0.391   3.024  0.00  0.00    +0.002 A 
ATOM      3  C   UNL     1       4.468   0.229   3.031  0.00  0.00    +0.005 A 
ATOM      4  C   UNL     1       4.625   1.450   3.658  0.00  0.00    -0.030 A 
ATOM      5  C   UNL     1       3.547   2.053   4.279  0.00  0.00    +0.005 A 
ATOM      6  C   UNL     1       2.310   1.435   4.269  0.00  0.00    +0.002 A 
ENDROOT
BRANCH   1   7
ATOM      7  C   UNL     1       0.807  -0.464   3.639  0.00  0.00    -0.043 C 
BRANCH   7  13
ATOM      8  C   UNL     1      -0.019   1.526   0.010  0.00  0.00    +0.005 C 
ATOM      9  C   UNL     1       0.002  -0.004   0.002  0.00  0.00    -0.031 C 
ATOM     10  C   UNL     1      -1.434  -0.535   0.015  0.00  0.00    +0.003 C 
ATOM     11  C   UNL     1      -2.117  -0.099   1.315  0.00  0.00    -0.031 C 
ATOM     12  C   UNL     1      -1.302  -0.604   2.507  0.00  0.00    -0.075 C 
ATOM     13  N   UNL     1       0.052  -0.040   2.452  0.00  0.00    +0.383 N 
ATOM     14  C   UNL     1       0.740  -0.512   1.242  0.00  0.00    -0.075 C 
ATOM     15  C   UNL     1      -3.528  -0.689   1.373  0.00  0.00    +0.005 C 
ATOM     16  H   UNL     1      -0.004   0.967   2.434  0.00  0.00    -0.081 HD
ENDBRANCH   7  13
ENDBRANCH   1   7
BRANCH   4  17
ATOM     17  C   UNL     1       5.973   2.125   3.666  0.00  0.00    +0.139 C 
BRANCH  17  18
ATOM     18  N   UNL     1       6.092   2.991   2.490  0.00  0.00    -0.308 N 
ATOM     19  C   UNL     1       7.220   3.699   2.287  0.00  0.00    +0.251 C 
ATOM     20  O   UNL     1       8.137   3.621   3.078  0.00  0.00    -0.272 OA
ATOM     21  H   UNL     1       5.359   3.054   1.858  0.00  0.00    +0.149 HD
BRANCH  19  22
ATOM     22  C   UNL     1       7.343   4.590   1.077  0.00  0.00    +0.324 C 
BRANCH  22  23
ATOM     23  O   UNL     1       8.621   5.230   1.085  0.00  0.00    -0.483 OA
BRANCH  23  24
ATOM     24  C   UNL     1       8.895   6.073   0.055  0.00  0.00    +0.121 A 
ATOM     25  C   UNL     1       7.951   6.284  -0.940  0.00  0.00    +0.048 A 
ATOM     26  C   UNL     1       8.231   7.142  -1.986  0.00  0.00    +0.036 A 
ATOM     27  C   UNL     1       9.452   7.790  -2.042  0.00  0.00    +0.126 A 
ATOM     28  C   UNL     1      10.394   7.580  -1.052  0.00  0.00    +0.036 A 
ATOM     29  C   UNL     1      10.116   6.728  -0.001  0.00  0.00    +0.048 A 
BRANCH  27  30
ATOM     30  N   UNL     1       9.750   8.709  -3.163  0.00  0.00    +0.056 N 
ATOM     31  O   UNL     1       8.926   8.892  -4.029  0.00  0.00    -0.126 OA
ATOM     32  O   UNL     1      10.816   9.275  -3.213  0.00  0.00    -0.126 OA
ENDBRANCH  27  30
ENDBRANCH  23  24
ENDBRANCH  22  23
ENDBRANCH  19  22
ENDBRANCH  17  18
ENDBRANCH   4  17
TORSDOF 8
