REMARK  Name = ZINC21988550
REMARK  11 active torsions:
REMARK  status: ('A' for Active; 'I' for Inactive)
REMARK    1  A    between atoms: C_1  and  C_2
REMARK    2  A    between atoms: C_2  and  C_3
REMARK    3  A    between atoms: C_2  and  C_4
REMARK    4  A    between atoms: C_4  and  C_5
REMARK    5  A    between atoms: C_5  and  C_7
REMARK    6  A    between atoms: C_5  and  N_13
REMARK    7  A    between atoms: C_14  and  C_16
REMARK    8  A    between atoms: C_16  and  S_17
REMARK    9  A    between atoms: S_17  and  C_18
REMARK   10  A    between atoms: C_21  and  C_24
REMARK   11  A    between atoms: N_22  and  N_23
REMARK                            x       y       z     vdW  Elec       q    Type
REMARK                         _______ _______ _______ _____ _____    ______ ____
ROOT
ATOM      1  C   UNL     1      -3.564   1.279  -2.162  0.00  0.00    +0.173 C 
ENDROOT
BRANCH   1   3
ATOM      2  N   UNL     1      -2.961   1.517   0.226  0.00  0.00    -0.308 N 
ATOM      3  C   UNL     1      -2.873   0.799  -0.911  0.00  0.00    +0.224 C 
ATOM      4  O   UNL     1      -2.237  -0.233  -0.928  0.00  0.00    -0.275 OA
ATOM      5  H   UNL     1      -3.603   2.410   0.264  0.00  0.00    +0.149 HD
BRANCH   2   6
ATOM      6  C   UNL     1      -2.203   1.109   1.411  0.00  0.00    +0.103 C 
BRANCH   6   7
ATOM      7  C   UNL     1      -2.840   1.699   2.643  0.00  0.00    -0.027 A 
ATOM      8  C   UNL     1      -3.323   2.994   2.618  0.00  0.00    +0.005 A 
ATOM      9  C   UNL     1      -3.911   3.534   3.747  0.00  0.00    +0.000 A 
ATOM     10  C   UNL     1      -4.008   2.782   4.902  0.00  0.00    +0.000 A 
ATOM     11  C   UNL     1      -3.520   1.489   4.929  0.00  0.00    +0.000 A 
ATOM     12  C   UNL     1      -2.936   0.948   3.799  0.00  0.00    +0.005 A 
ENDBRANCH   6   7
BRANCH   6  13
ATOM     13  C   UNL     1      -0.762   1.611   1.292  0.00  0.00    +0.030 C 
BRANCH  13  15
ATOM     14  C   UNL     1       1.471   1.667   2.410  0.00  0.00    +0.007 C 
ATOM     15  C   UNL     1       0.067   1.060   2.454  0.00  0.00    -0.015 C 
ATOM     16  C   UNL     1       0.165  -0.462   2.334  0.00  0.00    +0.007 C 
ENDBRANCH  13  15
ENDBRANCH   6  13
ENDBRANCH   2   6
ENDBRANCH   1   3
BRANCH   1  17
ATOM     17  S   UNL     1      -3.259   0.108  -3.507  0.00  0.00    -0.075 S 
BRANCH  17  18
ATOM     18  C   UNL     1      -4.155   0.893  -4.805  0.00  0.00    +0.209 A 
ATOM     19  N   UNL     1      -4.832   2.016  -4.717  0.00  0.00    -0.121 NA
ATOM     20  N   UNL     1      -5.361   2.303  -5.853  0.00  0.00    -0.127 NA
ATOM     21  C   UNL     1      -5.062   1.377  -6.733  0.00  0.00    +0.183 A 
ATOM     22  N   UNL     1      -4.281   0.445  -6.089  0.00  0.00    -0.224 N 
BRANCH  21  23
ATOM     23  C   UNL     1      -5.485   1.341  -8.149  0.00  0.00    +0.039 A 
ATOM     24  C   UNL     1      -6.005   0.167  -8.696  0.00  0.00    +0.013 A 
ATOM     25  C   UNL     1      -6.399   0.140 -10.017  0.00  0.00    +0.001 A 
ATOM     26  C   UNL     1      -6.280   1.274 -10.802  0.00  0.00    +0.001 A 
ATOM     27  C   UNL     1      -5.765   2.441 -10.267  0.00  0.00    +0.021 A 
ATOM     28  C   UNL     1      -5.372   2.483  -8.944  0.00  0.00    +0.052 A 
ATOM     29 CL   UNL     1      -4.733   3.951  -8.273  0.00  0.00    -0.083 Cl
ENDBRANCH  21  23
BRANCH  22  30
ATOM     30  N   UNL     1      -3.743  -0.692  -6.623  0.00  0.00    -0.295 N 
ATOM     31  H   UNL     1      -3.921  -0.941  -7.680  0.00  0.00    +0.163 HD
ATOM     32  H   UNL     1      -3.133  -1.359  -5.996  0.00  0.00    +0.163 HD
ENDBRANCH  22  30
ENDBRANCH  17  18
ENDBRANCH   1  17
TORSDOF 9
