REMARK  Name = ZINC13598632
REMARK  9 active torsions:
REMARK  status: ('A' for Active; 'I' for Inactive)
REMARK    1  A    between atoms: C_1  and  C_2
REMARK    2  A    between atoms: C_2  and  C_3
REMARK    3  A    between atoms: C_3  and  C_4
REMARK    4  A    between atoms: C_4  and  C_5
REMARK    5  A    between atoms: C_5  and  O_30
REMARK    6  A    between atoms: C_6  and  C_29
REMARK    7  A    between atoms: C_8  and  C_22
REMARK    8  A    between atoms: C_10  and  C_15
REMARK    9  A    between atoms: C_12  and  C_14
REMARK                            x       y       z     vdW  Elec       q    Type
REMARK                         _______ _______ _______ _____ _____    ______ ____
ROOT
ATOM      1  C   UNL     1       2.555  -1.743  -1.635  0.00  0.00    +0.069 C 
ATOM      2  C   UNL     1       3.701  -2.290  -0.779  0.00  0.00    +0.008 C 
ATOM      3  C   UNL     1       3.253  -2.353   0.683  0.00  0.00    -0.034 C 
ATOM      4  C   UNL     1       0.946  -2.692   0.023  0.00  0.00    -0.034 C 
ATOM      5  C   UNL     1       1.325  -2.638  -1.459  0.00  0.00    +0.008 C 
ATOM      6  C   UNL     1       0.157  -2.065  -2.264  0.00  0.00    +0.009 C 
ATOM      7  C   UNL     1       4.915  -1.368  -0.902  0.00  0.00    +0.009 C 
ATOM      8  N   UNL     1       2.074  -3.232   0.805  0.00  0.00    +0.389 N 
ATOM      9  H   UNL     1       1.801  -3.296   1.793  0.00  0.00    -0.084 HD
ATOM     10  H   UNL     1       2.312  -4.167   0.454  0.00  0.00    -0.084 HD
ENDROOT
BRANCH   4  11
ATOM     11  C   UNL     1       0.613  -1.304   0.506  0.00  0.00    -0.061 A 
ATOM     12  C   UNL     1      -0.289  -0.526  -0.196  0.00  0.00    +0.003 A 
ATOM     13  C   UNL     1      -0.595   0.747   0.247  0.00  0.00    +0.020 A 
ATOM     14  C   UNL     1       0.000   1.242   1.393  0.00  0.00    +0.041 A 
ATOM     15  C   UNL     1       0.902   0.463   2.096  0.00  0.00    +0.020 A 
ATOM     16  C   UNL     1       1.208  -0.810   1.652  0.00  0.00    +0.003 A 
ATOM     17 CL   UNL     1      -0.384   2.841   1.950  0.00  0.00    -0.084 Cl
ENDBRANCH   4  11
BRANCH   3  18
ATOM     18  C   UNL     1       4.372  -2.910   1.527  0.00  0.00    -0.061 A 
ATOM     19  C   UNL     1       4.587  -4.275   1.575  0.00  0.00    +0.003 A 
ATOM     20  C   UNL     1       5.616  -4.785   2.344  0.00  0.00    +0.020 A 
ATOM     21  C   UNL     1       6.423  -3.931   3.074  0.00  0.00    +0.041 A 
ATOM     22  C   UNL     1       6.204  -2.566   3.029  0.00  0.00    +0.020 A 
ATOM     23  C   UNL     1       5.178  -2.056   2.256  0.00  0.00    +0.003 A 
ATOM     24 CL   UNL     1       7.711  -4.572   4.046  0.00  0.00    -0.084 Cl
ENDBRANCH   3  18
BRANCH   1  25
ATOM     25  O   UNL     1       2.242  -0.412  -1.219  0.00  0.00    -0.388 OA
ATOM     26  H   UNL     1       1.523  -0.003  -1.720  0.00  0.00    +0.210 HD
ENDBRANCH   1  25
BRANCH   1  27
ATOM     27  C   UNL     1       2.975  -1.734  -3.106  0.00  0.00    +0.035 C 
BRANCH  27  28
ATOM     28  C   UNL     1       3.248  -3.167  -3.567  0.00  0.00    +0.003 C 
BRANCH  28  30
ATOM     29  C   UNL     1       4.073  -4.581  -5.455  0.00  0.00    +0.004 C 
ATOM     30  C   UNL     1       3.800  -3.148  -4.994  0.00  0.00    -0.003 C 
ENDBRANCH  28  30
ENDBRANCH  27  28
ENDBRANCH   1  27
TORSDOF 6
