REMARK  Name = ZINC16742771
REMARK  7 active torsions:
REMARK  status: ('A' for Active; 'I' for Inactive)
REMARK    1  A    between atoms: C_3  and  C_13
REMARK    2  A    between atoms: C_4  and  N_10
REMARK    3  A    between atoms: C_6  and  C_7
REMARK    4  A    between atoms: C_13  and  O_14
REMARK    5  A    between atoms: O_14  and  C_15
REMARK    6  A    between atoms: C_15  and  C_17
REMARK    7  A    between atoms: C_22  and  N_23
REMARK                            x       y       z     vdW  Elec       q    Type
REMARK                         _______ _______ _______ _____ _____    ______ ____
ROOT
ATOM      1  C   UNL     1       1.580  -1.979  -0.198  0.00  0.00    +0.270 C 
ENDROOT
BRANCH   1   4
ATOM      2  C   UNL     1       5.330  -1.817  -0.585  0.00  0.00    +0.013 A 
ATOM      3  C   UNL     1       4.011  -1.439  -0.445  0.00  0.00    +0.010 A 
ATOM      4  C   UNL     1       3.019  -2.399  -0.351  0.00  0.00    +0.020 A 
ATOM      5  C   UNL     1       3.344  -3.744  -0.393  0.00  0.00    +0.133 A 
ATOM      6  C   UNL     1       4.658  -4.135  -0.538  0.00  0.00    +0.046 A 
ATOM      7  C   UNL     1       5.664  -3.171  -0.632  0.00  0.00    +0.039 A 
BRANCH   7   8
ATOM      8  C   UNL     1       7.075  -3.583  -0.782  0.00  0.00    +0.242 C 
ATOM      9  O   UNL     1       7.363  -4.764  -0.823  0.00  0.00    -0.270 OA
ATOM     10  N   UNL     1       8.044  -2.651  -0.874  0.00  0.00    -0.325 N 
ATOM     11  H   UNL     1       7.815  -1.709  -0.841  0.00  0.00    +0.145 HD
ATOM     12  H   UNL     1       8.970  -2.921  -0.972  0.00  0.00    +0.145 HD
ENDBRANCH   7   8
BRANCH   5  13
ATOM     13  N   UNL     1       2.277  -4.764  -0.286  0.00  0.00    +0.057 N 
ATOM     14  O   UNL     1       2.561  -5.948  -0.323  0.00  0.00    -0.126 OA
ATOM     15  O   UNL     1       1.115  -4.420  -0.163  0.00  0.00    -0.126 OA
ENDBRANCH   5  13
ENDBRANCH   1   4
BRANCH   1  16
ATOM     16  O   UNL     1       1.499  -0.529  -0.175  0.00  0.00    -0.456 OA
BRANCH  16  17
ATOM     17  C   UNL     1       0.272   0.013  -0.043  0.00  0.00    +0.341 C 
ATOM     18  O   UNL     1      -0.703  -0.706   0.051  0.00  0.00    -0.245 OA
BRANCH  17  19
ATOM     19  C   UNL     1       0.114   1.477  -0.012  0.00  0.00    +0.082 A 
ATOM     20  C   UNL     1       1.239   2.306   0.005  0.00  0.00    +0.037 A 
ATOM     21  C   UNL     1       1.084   3.675   0.034  0.00  0.00    +0.043 A 
ATOM     22  C   UNL     1      -0.184   4.237   0.046  0.00  0.00    +0.042 A 
ATOM     23  C   UNL     1      -1.305   3.432   0.031  0.00  0.00    +0.064 A 
ATOM     24  C   UNL     1      -1.168   2.048  -0.004  0.00  0.00    +0.057 A 
ATOM     25 CL   UNL     1      -2.887   4.146   0.047  0.00  0.00    -0.082 Cl
ATOM     26 CL   UNL     1       2.483   4.703   0.054  0.00  0.00    -0.083 Cl
BRANCH  24  27
ATOM     27  N   UNL     1      -2.295   1.235  -0.027  0.00  0.00    -0.356 N 
ATOM     28  H   UNL     1      -2.200   0.272   0.033  0.00  0.00    +0.142 HD
ATOM     29  H   UNL     1      -3.177   1.631  -0.103  0.00  0.00    +0.142 HD
ENDBRANCH  24  27
ENDBRANCH  17  19
ENDBRANCH  16  17
ENDBRANCH   1  16
TORSDOF 7
