REMARK  Name = ZINC64636459
REMARK  5 active torsions:
REMARK  status: ('A' for Active; 'I' for Inactive)
REMARK    1  A    between atoms: C_1  and  C_2
REMARK    2  A    between atoms: C_5  and  C_19
REMARK    3  A    between atoms: C_10  and  C_12
REMARK    4  A    between atoms: C_19  and  N_20
REMARK    5  A    between atoms: C_21  and  C_23
REMARK                            x       y       z     vdW  Elec       q    Type
REMARK                         _______ _______ _______ _____ _____    ______ ____
ROOT
ATOM      1  C   UNL     1      -0.020   1.501   0.009  0.00  0.00    +0.042 C 
ATOM      2  C   UNL     1       0.002  -0.006   0.002  0.00  0.00    -0.037 C 
ATOM      3  C   UNL     1       0.009  -0.814  -1.083  0.00  0.00    -0.000 A 
ATOM      4  C   UNL     1      -0.001  -0.542  -2.525  0.00  0.00    +0.015 A 
ATOM      5  C   UNL     1       0.010  -1.582  -3.389  0.00  0.00    -0.030 A 
ATOM      6  C   UNL     1       0.031  -2.911  -2.943  0.00  0.00    +0.007 A 
ATOM      7  C   UNL     1       0.042  -3.240  -1.634  0.00  0.00    +0.026 A 
ATOM      8  C   UNL     1       0.032  -2.225  -0.637  0.00  0.00    +0.043 A 
ATOM      9  N   UNL     1       0.038  -2.288   0.672  0.00  0.00    -0.373 N 
ATOM     10  C   UNL     1       0.027  -0.921   1.206  0.00  0.00    +0.139 C 
ATOM     11  H   UNL     1       0.053  -3.102   1.200  0.00  0.00    +0.161 HD
ENDROOT
BRANCH  10  12
ATOM     12  C   UNL     1       1.267  -0.669   2.024  0.00  0.00    +0.014 A 
ATOM     13  C   UNL     1       2.394  -1.444   1.828  0.00  0.00    +0.009 A 
ATOM     14  C   UNL     1       3.531  -1.214   2.579  0.00  0.00    +0.001 A 
ATOM     15  C   UNL     1       3.543  -0.207   3.527  0.00  0.00    +0.003 A 
ATOM     16  C   UNL     1       2.417   0.569   3.725  0.00  0.00    +0.039 A 
ATOM     17  C   UNL     1       1.279   0.342   2.970  0.00  0.00    +0.129 A 
ATOM     18  F   UNL     1       0.179   1.104   3.159  0.00  0.00    -0.205 F 
ENDBRANCH  10  12
BRANCH   5  19
ATOM     19  C   UNL     1      -0.001  -1.306  -4.871  0.00  0.00    +0.139 C 
BRANCH  19  20
ATOM     20  N   UNL     1       1.376  -1.197  -5.357  0.00  0.00    -0.311 N 
ATOM     21  C   UNL     1       1.613  -0.950  -6.661  0.00  0.00    +0.218 C 
ATOM     22  O   UNL     1       0.686  -0.819  -7.431  0.00  0.00    -0.275 OA
ATOM     23  H   UNL     1       2.118  -1.301  -4.741  0.00  0.00    +0.149 HD
BRANCH  21  24
ATOM     24  C   UNL     1       3.030  -0.838  -7.161  0.00  0.00    +0.092 C 
ATOM     25  C   UNL     1       3.020  -0.555  -8.666  0.00  0.00    +0.016 C 
ATOM     26  C   UNL     1       4.458  -0.473  -9.181  0.00  0.00    +0.020 C 
ATOM     27  C   UNL     1       5.183   0.679  -8.478  0.00  0.00    +0.109 C 
ATOM     28  N   UNL     1       5.073   0.491  -7.025  0.00  0.00    -0.285 N 
ATOM     29  C   UNL     1       3.739   0.310  -6.435  0.00  0.00    +0.122 C 
ATOM     30  C   UNL     1       6.173   0.483  -6.248  0.00  0.00    +0.300 C 
ATOM     31  O   UNL     1       6.064   0.419  -5.038  0.00  0.00    -0.253 OA
ATOM     32  N   UNL     1       7.396   0.548  -6.811  0.00  0.00    -0.313 N 
ATOM     33  H   UNL     1       7.483   0.673  -7.769  0.00  0.00    +0.146 HD
ATOM     34  H   UNL     1       8.190   0.469  -6.258  0.00  0.00    +0.146 HD
ENDBRANCH  21  24
ENDBRANCH  19  20
ENDBRANCH   5  19
TORSDOF 4
