REMARK  Name = ZINC39480984
REMARK  6 active torsions:
REMARK  status: ('A' for Active; 'I' for Inactive)
REMARK    1  A    between atoms: C_1  and  C_2
REMARK    2  A    between atoms: C_5  and  N_16
REMARK    3  A    between atoms: C_6  and  N_8
REMARK    4  A    between atoms: N_16  and  S_17
REMARK    5  A    between atoms: S_17  and  C_20
REMARK    6  A    between atoms: C_25  and  O_26
REMARK                            x       y       z     vdW  Elec       q    Type
REMARK                         _______ _______ _______ _____ _____    ______ ____
ROOT
ATOM      1  C   UNL     1       1.548   1.142   0.357  0.00  0.00    +0.044 C 
ATOM      2  C   UNL     1       1.217  -0.324   0.240  0.00  0.00    -0.049 A 
ATOM      3  C   UNL     1       0.967  -0.876  -1.002  0.00  0.00    +0.005 A 
ATOM      4  C   UNL     1       0.663  -2.220  -1.117  0.00  0.00    +0.026 A 
ATOM      5  C   UNL     1       0.609  -3.018   0.016  0.00  0.00    +0.069 A 
ATOM      6  C   UNL     1       0.862  -2.461   1.269  0.00  0.00    +0.053 A 
ATOM      7  C   UNL     1       1.171  -1.113   1.374  0.00  0.00    +0.028 A 
ENDROOT
BRANCH   6   8
ATOM      8  N   UNL     1       0.809  -3.261   2.417  0.00  0.00    -0.325 N 
ATOM      9  C   UNL     1       2.009  -3.954   2.910  0.00  0.00    +0.120 C 
ATOM     10  C   UNL     1       2.179  -3.634   4.399  0.00  0.00    +0.101 C 
ATOM     11  N   UNL     1       0.936  -3.960   5.112  0.00  0.00    -0.302 NA
ATOM     12  C   UNL     1      -0.181  -3.130   4.641  0.00  0.00    +0.135 C 
ATOM     13  C   UNL     1      -0.446  -3.425   3.166  0.00  0.00    +0.134 C 
ATOM     14  I   UNL     1      -1.951  -3.579   5.799  0.00  0.00    -0.063 I 
ATOM     15  H   UNL     1       0.718  -4.941   5.028  0.00  0.00    +0.123 HD
ENDBRANCH   6   8
BRANCH   5  16
ATOM     16  N   UNL     1       0.301  -4.379  -0.098  0.00  0.00    -0.214 N 
ATOM     17  H   UNL     1      -0.220  -4.818   0.593  0.00  0.00    +0.174 HD
BRANCH  16  18
ATOM     18  S   UNL     1       0.826  -5.240  -1.411  0.00  0.00    +0.076 S 
ATOM     19  O   UNL     1       2.194  -4.903  -1.597  0.00  0.00    -0.150 OA
ATOM     20  O   UNL     1       0.391  -6.579  -1.220  0.00  0.00    -0.150 OA
BRANCH  18  21
ATOM     21  C   UNL     1      -0.040  -4.625  -2.817  0.00  0.00    +0.150 A 
ATOM     22  C   UNL     1       0.653  -4.013  -3.843  0.00  0.00    +0.032 A 
ATOM     23  C   UNL     1      -0.026  -3.530  -4.946  0.00  0.00    +0.002 A 
ATOM     24  C   UNL     1      -1.401  -3.659  -5.026  0.00  0.00    +0.004 A 
ATOM     25  C   UNL     1      -2.099  -4.270  -4.003  0.00  0.00    +0.047 A 
ATOM     26  C   UNL     1      -1.419  -4.761  -2.897  0.00  0.00    +0.143 A 
BRANCH  26  27
ATOM     27  O   UNL     1      -2.102  -5.368  -1.891  0.00  0.00    -0.505 OA
ATOM     28  H   UNL     1      -2.414  -4.761  -1.206  0.00  0.00    +0.292 HD
ENDBRANCH  26  27
ENDBRANCH  18  21
ENDBRANCH  16  18
ENDBRANCH   5  16
TORSDOF 5
