REMARK  Name = ZINC16487006
REMARK  10 active torsions:
REMARK  status: ('A' for Active; 'I' for Inactive)
REMARK    1  A    between atoms: C_1  and  C_2
REMARK    2  A    between atoms: C_2  and  O_3
REMARK    3  A    between atoms: O_3  and  C_4
REMARK    4  A    between atoms: C_4  and  C_5
REMARK    5  A    between atoms: C_5  and  C_6
REMARK    6  A    between atoms: C_6  and  N_7
REMARK    7  A    between atoms: N_7  and  C_8
REMARK    8  A    between atoms: C_8  and  C_9
REMARK    9  A    between atoms: C_19  and  C_21
REMARK   10  A    between atoms: C_27  and  C_29
REMARK                            x       y       z     vdW  Elec       q    Type
REMARK                         _______ _______ _______ _____ _____    ______ ____
ROOT
ATOM      1  C   UNL     1      -0.396   2.224   2.714  0.00  0.00    +0.204 C 
ENDROOT
BRANCH   1   2
ATOM      2  C   UNL     1      -0.164   3.639   2.248  0.00  0.00    +0.234 C 
ATOM      3  O   UNL     1      -0.737   4.054   1.263  0.00  0.00    -0.274 OA
ATOM      4  N   UNL     1       0.679   4.442   2.926  0.00  0.00    -0.289 N 
ATOM      5  C   UNL     1       1.416   3.935   4.093  0.00  0.00    +0.114 C 
ATOM      6  C   UNL     1       2.920   3.953   3.752  0.00  0.00    +0.062 C 
ATOM      7  C   UNL     1       3.238   5.239   3.062  0.00  0.00    -0.003 A 
ATOM      8  C   UNL     1       2.372   6.118   2.489  0.00  0.00    -0.012 A 
ATOM      9  C   UNL     1       2.929   7.252   1.900  0.00  0.00    +0.013 A 
ATOM     10  C   UNL     1       4.269   7.435   1.919  0.00  0.00    +0.046 A 
ATOM     11  S   UNL     1       4.827   5.980   2.792  0.00  0.00    -0.101 S 
ATOM     12  C   UNL     1       0.870   5.839   2.514  0.00  0.00    +0.137 C 
BRANCH  12  13
ATOM     13  C   UNL     1       0.290   6.050   1.139  0.00  0.00    -0.023 A 
ATOM     14  C   UNL     1       0.910   5.496   0.035  0.00  0.00    +0.006 A 
ATOM     15  C   UNL     1       0.375   5.685  -1.226  0.00  0.00    +0.000 A 
ATOM     16  C   UNL     1      -0.775   6.436  -1.383  0.00  0.00    +0.000 A 
ATOM     17  C   UNL     1      -1.392   6.994  -0.280  0.00  0.00    +0.000 A 
ATOM     18  C   UNL     1      -0.860   6.801   0.981  0.00  0.00    +0.006 A 
ENDBRANCH  12  13
ENDBRANCH   1   2
BRANCH   1  19
ATOM     19  N   UNL     1      -1.346   1.564   1.816  0.00  0.00    -0.289 N 
ATOM     20  C   UNL     1      -2.632   1.410   2.190  0.00  0.00    +0.247 C 
ATOM     21  O   UNL     1      -3.415   0.842   1.455  0.00  0.00    -0.270 OA
BRANCH  20  22
ATOM     22  C   UNL     1      -3.089   1.934   3.494  0.00  0.00    +0.037 A 
ATOM     23  C   UNL     1      -2.436   3.019   4.082  0.00  0.00    +0.014 A 
ATOM     24  C   UNL     1      -2.871   3.505   5.297  0.00  0.00    +0.021 A 
ATOM     25  C   UNL     1      -3.946   2.914   5.939  0.00  0.00    +0.041 A 
ATOM     26  C   UNL     1      -4.595   1.833   5.363  0.00  0.00    +0.021 A 
ATOM     27  C   UNL     1      -4.173   1.341   4.146  0.00  0.00    +0.014 A 
ATOM     28 CL   UNL     1      -4.483   3.528   7.471  0.00  0.00    -0.084 Cl
ENDBRANCH  20  22
BRANCH  19  29
ATOM     29  C   UNL     1      -0.899   1.069   0.511  0.00  0.00    +0.111 C 
BRANCH  29  30
ATOM     30  C   UNL     1      -1.227   2.105  -0.566  0.00  0.00    +0.047 C 
BRANCH  30  31
ATOM     31  C   UNL     1      -0.759   1.589  -1.928  0.00  0.00    +0.161 C 
BRANCH  31  32
ATOM     32  O   UNL     1      -1.066   2.556  -2.935  0.00  0.00    -0.380 OA
BRANCH  32  34
ATOM     33  C   UNL     1      -1.044   3.274  -5.242  0.00  0.00    +0.034 C 
ATOM     34  C   UNL     1      -0.669   2.170  -4.252  0.00  0.00    +0.156 C 
ENDBRANCH  32  34
ENDBRANCH  31  32
ENDBRANCH  30  31
ENDBRANCH  29  30
ENDBRANCH  19  29
ENDBRANCH   1  19
TORSDOF 9
