REMARK  Name = ZINC13154433
REMARK  10 active torsions:
REMARK  status: ('A' for Active; 'I' for Inactive)
REMARK    1  A    between atoms: C_1  and  C_2
REMARK    2  A    between atoms: C_2  and  S_3
REMARK    3  A    between atoms: S_3  and  C_4
REMARK    4  A    between atoms: C_4  and  S_24
REMARK    5  A    between atoms: C_5  and  C_22
REMARK    6  A    between atoms: C_7  and  C_21
REMARK    7  A    between atoms: C_8  and  C_15
REMARK    8  A    between atoms: C_10  and  C_13
REMARK    9  A    between atoms: S_24  and  C_25
REMARK   10  A    between atoms: C_25  and  C_26
REMARK                            x       y       z     vdW  Elec       q    Type
REMARK                         _______ _______ _______ _____ _____    ______ ____
ROOT
ATOM      1  C   UNL     1      -0.514   7.662   2.809  0.00  0.00    +0.157 C 
ATOM      2  C   UNL     1      -0.502   6.994   1.432  0.00  0.00    +0.146 C 
ATOM      3  C   UNL     1      -1.814   6.908   0.706  0.00  0.00    +0.017 C 
ATOM      4  C   UNL     1      -1.869   5.902  -0.180  0.00  0.00    -0.017 C 
ATOM      5  C   UNL     1       0.195   4.757   0.682  0.00  0.00    +0.113 C 
ATOM      6  C   UNL     1      -0.242   5.526   1.906  0.00  0.00    +0.156 C 
ATOM      7  C   UNL     1       0.698   5.713   3.045  0.00  0.00    +0.092 C 
ATOM      8  N   UNL     1       1.607   4.787   3.486  0.00  0.00    -0.347 N 
ATOM      9  C   UNL     1      -3.133   5.678  -0.968  0.00  0.00    +0.058 C 
ATOM     10  H   UNL     1       2.183   4.995   4.239  0.00  0.00    +0.143 HD
ATOM     11  H   UNL     1       1.674   3.925   3.047  0.00  0.00    +0.143 HD
ATOM     12  N   UNL     1      -0.770   5.027  -0.467  0.00  0.00    -0.401 NA
ATOM     13  H   UNL     1      -0.234   5.443  -1.237  0.00  0.00    +0.124 HD
ATOM     14  H   UNL     1      -1.161   4.126  -0.768  0.00  0.00    +0.124 HD
ATOM     15  N   UNL     1       0.523   6.906   3.565  0.00  0.00    -0.351 N 
ATOM     16  H   UNL     1       1.032   7.268   4.381  0.00  0.00    +0.163 HD
ENDROOT
BRANCH   5  17
ATOM     17  C   UNL     1       0.191   3.279   0.975  0.00  0.00    -0.027 A 
ATOM     18  C   UNL     1       1.381   2.619   1.217  0.00  0.00    +0.005 A 
ATOM     19  C   UNL     1       1.377   1.262   1.485  0.00  0.00    +0.000 A 
ATOM     20  C   UNL     1       0.183   0.566   1.510  0.00  0.00    +0.000 A 
ATOM     21  C   UNL     1      -1.007   1.225   1.263  0.00  0.00    +0.000 A 
ATOM     22  C   UNL     1      -1.003   2.582   1.000  0.00  0.00    +0.005 A 
ENDBRANCH   5  17
BRANCH   6  23
ATOM     23  C   UNL     1      -1.498   4.954   2.417  0.00  0.00    +0.081 C 
ATOM     24  N   UNL     1      -2.468   4.513   2.812  0.00  0.00    -0.195 NA
ENDBRANCH   6  23
BRANCH   2  25
ATOM     25  C   UNL     1       0.569   7.522   0.572  0.00  0.00    +0.080 C 
ATOM     26  N   UNL     1       1.395   7.929  -0.093  0.00  0.00    -0.195 NA
ENDBRANCH   2  25
BRANCH   1  27
ATOM     27  S   UNL     1      -0.051   9.411   2.677  0.00  0.00    -0.121 S 
BRANCH  27  29
ATOM     28  C   UNL     1       1.496  11.138   4.128  0.00  0.00    +0.015 C 
ATOM     29  C   UNL     1       1.129   9.656   4.033  0.00  0.00    +0.069 C 
ENDBRANCH  27  29
ENDBRANCH   1  27
BRANCH   1  30
ATOM     30  S   UNL     1      -2.139   7.483   3.595  0.00  0.00    -0.121 S 
BRANCH  30  31
ATOM     31  C   UNL     1      -1.904   8.184   5.252  0.00  0.00    +0.069 C 
ATOM     32  C   UNL     1      -3.223   8.121   6.024  0.00  0.00    +0.015 C 
ENDBRANCH  30  31
ENDBRANCH   1  30
TORSDOF 7
