REMARK  Name = ZINC40549057
REMARK  8 active torsions:
REMARK  status: ('A' for Active; 'I' for Inactive)
REMARK    1  A    between atoms: C_1  and  C_2
REMARK    2  A    between atoms: C_4  and  C_10
REMARK    3  A    between atoms: C_5  and  O_9
REMARK    4  A    between atoms: C_7  and  C_8
REMARK    5  A    between atoms: N_18  and  C_29
REMARK    6  A    between atoms: C_19  and  C_21
REMARK    7  A    between atoms: C_24  and  S_27
REMARK    8  A    between atoms: S_27  and  C_28
REMARK                            x       y       z     vdW  Elec       q    Type
REMARK                         _______ _______ _______ _____ _____    ______ ____
ROOT
ATOM      1  C   UNL     1       0.030  -2.813  -2.492  0.00  0.00    +0.102 A 
ATOM      2  C   UNL     1       0.143  -4.198  -2.656  0.00  0.00    +0.035 A 
ATOM      3  C   UNL     1       0.101  -4.421  -4.019  0.00  0.00    +0.126 A 
ATOM      4  N   UNL     1      -0.033  -3.192  -4.600  0.00  0.00    -0.272 N 
ATOM      5  H   UNL     1      -0.090  -3.031  -5.555  0.00  0.00    +0.189 HD
ATOM      6  N   UNL     1      -0.076  -2.281  -3.694  0.00  0.00    -0.173 NA
ATOM      7  C   UNL     1       0.215  -5.864  -4.259  0.00  0.00    +0.266 C 
ATOM      8  O   UNL     1       0.212  -6.387  -5.357  0.00  0.00    -0.268 OA
ATOM      9  N   UNL     1       0.326  -6.526  -3.094  0.00  0.00    -0.280 N 
ATOM     10  C   UNL     1       0.290  -5.545  -2.001  0.00  0.00    +0.142 C 
ENDROOT
BRANCH   1  14
ATOM     11  C   UNL     1      -1.619  -2.329   2.195  0.00  0.00    +0.044 C 
ATOM     12  C   UNL     1      -0.766  -1.841   1.052  0.00  0.00    -0.047 A 
ATOM     13  C   UNL     1      -0.764  -2.528  -0.146  0.00  0.00    +0.017 A 
ATOM     14  C   UNL     1       0.023  -2.079  -1.203  0.00  0.00    +0.044 A 
ATOM     15  C   UNL     1       0.808  -0.933  -1.044  0.00  0.00    +0.126 A 
ATOM     16  C   UNL     1       0.796  -0.253   0.164  0.00  0.00    +0.049 A 
ATOM     17  C   UNL     1       0.007  -0.705   1.205  0.00  0.00    -0.044 A 
ATOM     18  C   UNL     1      -0.007   0.042   2.514  0.00  0.00    +0.044 C 
BRANCH  15  19
ATOM     19  O   UNL     1       1.580  -0.487  -2.069  0.00  0.00    -0.506 OA
ATOM     20  H   UNL     1       1.160   0.197  -2.608  0.00  0.00    +0.292 HD
ENDBRANCH  15  19
ENDBRANCH   1  14
BRANCH   9  21
ATOM     21  C   UNL     1       0.458  -7.977  -2.940  0.00  0.00    +0.100 C 
ATOM     22  C   UNL     1      -0.766  -8.670  -3.561  0.00  0.00    +0.047 C 
ATOM     23  C   UNL     1      -0.459 -10.191  -3.668  0.00  0.00    +0.168 C 
ATOM     24  S   UNL     1       1.299 -10.142  -4.216  0.00  0.00    -0.029 S 
ATOM     25  O   UNL     1       1.341 -10.178  -5.636  0.00  0.00    -0.174 OA
ATOM     26  O   UNL     1       2.042 -11.096  -3.470  0.00  0.00    -0.174 OA
ATOM     27  C   UNL     1       1.749  -8.453  -3.648  0.00  0.00    +0.188 C 
ENDBRANCH   9  21
BRANCH  10  28
ATOM     28  C   UNL     1       1.572  -5.600  -1.212  0.00  0.00    -0.022 A 
ATOM     29  C   UNL     1       2.785  -5.694  -1.870  0.00  0.00    +0.007 A 
ATOM     30  C   UNL     1       3.962  -5.745  -1.150  0.00  0.00    +0.015 A 
ATOM     31  C   UNL     1       3.927  -5.703   0.239  0.00  0.00    +0.008 A 
ATOM     32  C   UNL     1       2.707  -5.608   0.897  0.00  0.00    +0.015 A 
ATOM     33  C   UNL     1       1.534  -5.552   0.170  0.00  0.00    +0.007 A 
BRANCH  31  34
ATOM     34  S   UNL     1       5.426  -5.769   1.162  0.00  0.00    -0.129 S 
ATOM     35  C   UNL     1       4.881  -5.685   2.890  0.00  0.00    +0.090 C 
ENDBRANCH  31  34
ENDBRANCH  10  28
TORSDOF 5
