REMARK  Name = ZINC22838574
REMARK  10 active torsions:
REMARK  status: ('A' for Active; 'I' for Inactive)
REMARK    1  A    between atoms: C_1  and  C_2
REMARK    2  A    between atoms: C_11  and  N_26
REMARK    3  A    between atoms: C_13  and  S_15
REMARK    4  A    between atoms: S_15  and  C_16
REMARK    5  A    between atoms: C_16  and  C_17
REMARK    6  A    between atoms: N_19  and  C_20
REMARK    7  A    between atoms: C_20  and  C_22
REMARK    8  A    between atoms: C_20  and  C_23
REMARK    9  A    between atoms: C_23  and  C_24
REMARK   10  A    between atoms: C_23  and  C_25
REMARK                            x       y       z     vdW  Elec       q    Type
REMARK                         _______ _______ _______ _____ _____    ______ ____
ROOT
ATOM      1  C   UNL     1       4.882  -0.853  14.322  0.00  0.00    +0.008 C 
ATOM      2  C   UNL     1       4.173  -0.531  13.005  0.00  0.00    -0.009 C 
ATOM      3  C   UNL     1       4.619  -1.522  11.926  0.00  0.00    +0.008 C 
ATOM      4  C   UNL     1       4.111  -1.063  10.558  0.00  0.00    +0.037 C 
ATOM      5  C   UNL     1       2.607  -0.819  10.647  0.00  0.00    -0.025 A 
ATOM      6  C   UNL     1       2.007  -0.645  11.841  0.00  0.00    -0.004 A 
ATOM      7  S   UNL     1       0.292  -0.399  11.466  0.00  0.00    -0.073 S 
ATOM      8  C   UNL     1       0.384  -0.529   9.699  0.00  0.00    +0.115 A 
ATOM      9  C   UNL     1       1.752  -0.762   9.459  0.00  0.00    +0.051 A 
ATOM     10  C   UNL     1       2.119  -0.910   8.092  0.00  0.00    +0.129 A 
ATOM     11  N   UNL     1       1.185  -0.829   7.160  0.00  0.00    -0.207 NA
ATOM     12  C   UNL     1      -0.089  -0.602   7.456  0.00  0.00    +0.191 A 
ATOM     13  N   UNL     1      -0.488  -0.456   8.713  0.00  0.00    -0.214 NA
ATOM     14  C   UNL     1       2.655  -0.659  13.193  0.00  0.00    +0.046 C 
ENDROOT
BRANCH  10  15
ATOM     15  N   UNL     1       3.437  -1.142   7.743  0.00  0.00    -0.343 N 
ATOM     16  H   UNL     1       3.714  -1.255   6.684  0.00  0.00    +0.144 HD
ATOM     17  H   UNL     1       4.209  -1.213   8.524  0.00  0.00    +0.144 HD
ENDBRANCH  10  15
BRANCH  12  18
ATOM     18  S   UNL     1      -1.274  -0.500   6.156  0.00  0.00    -0.077 S 
BRANCH  18  19
ATOM     19  C   UNL     1      -0.195  -0.765   4.726  0.00  0.00    +0.173 C 
BRANCH  19  20
ATOM     20  C   UNL     1      -1.015  -0.718   3.463  0.00  0.00    +0.224 C 
ATOM     21  O   UNL     1      -2.211  -0.524   3.523  0.00  0.00    -0.275 OA
ATOM     22  N   UNL     1      -0.419  -0.891   2.266  0.00  0.00    -0.312 N 
ATOM     23  H   UNL     1       0.665  -1.067   2.212  0.00  0.00    +0.149 HD
BRANCH  22  24
ATOM     24  C   UNL     1      -1.216  -0.846   1.038  0.00  0.00    +0.072 C 
ATOM     25  C   UNL     1      -1.373   0.607   0.585  0.00  0.00    +0.028 C 
BRANCH  24  26
ATOM     26  C   UNL     1      -0.511  -1.648  -0.058  0.00  0.00    +0.003 C 
ATOM     27  C   UNL     1       0.870  -1.045  -0.323  0.00  0.00    +0.009 C 
ATOM     28  C   UNL     1      -1.344  -1.601  -1.340  0.00  0.00    +0.009 C 
ENDBRANCH  24  26
ENDBRANCH  22  24
ENDBRANCH  19  20
ENDBRANCH  18  19
ENDBRANCH  12  18
TORSDOF 6
