REMARK  Name = ZINC03448814
REMARK  7 active torsions:
REMARK  status: ('A' for Active; 'I' for Inactive)
REMARK    1  A    between atoms: C_1  and  C_2
REMARK    2  A    between atoms: C_2  and  C_4
REMARK    3  A    between atoms: C_2  and  N_14
REMARK    4  A    between atoms: C_7  and  S_10
REMARK    5  A    between atoms: S_10  and  N_13
REMARK    6  A    between atoms: C_22  and  C_24
REMARK    7  A    between atoms: C_24  and  N_64
REMARK                            x       y       z     vdW  Elec       q    Type
REMARK                         _______ _______ _______ _____ _____    ______ ____
ROOT
ATOM      1  N   UNL     1       7.234  -1.590   0.270  0.00  0.00    -0.322 N 
ATOM      2  C   UNL     1       6.470  -0.724   1.030  0.00  0.00    +0.131 A 
ATOM      3  C   UNL     1       6.967   0.564   1.374  0.00  0.00    +0.051 A 
ATOM      4  C   UNL     1       8.254   1.172   1.029  0.00  0.00    -0.025 A 
ATOM      5  C   UNL     1       8.482   2.420   1.484  0.00  0.00    -0.004 A 
ATOM      6  S   UNL     1       7.021   2.858   2.388  0.00  0.00    -0.073 S 
ATOM      7  C   UNL     1       6.102   1.360   2.152  0.00  0.00    +0.114 A 
ATOM      8  N   UNL     1       4.915   0.923   2.526  0.00  0.00    -0.227 NA
ATOM      9  C   UNL     1       4.508  -0.281   2.176  0.00  0.00    +0.116 A 
ATOM     10  N   UNL     1       5.269  -1.083   1.453  0.00  0.00    -0.219 NA
ATOM     11  C   UNL     1       9.709   3.254   1.269  0.00  0.00    +0.043 C 
ATOM     12  C   UNL     1      10.833   2.341   0.761  0.00  0.00    +0.005 C 
ATOM     13  C   UNL     1      10.284   1.469  -0.372  0.00  0.00    +0.005 C 
ATOM     14  C   UNL     1       9.302   0.443   0.192  0.00  0.00    +0.037 C 
ATOM     15  H   UNL     1       8.146  -1.356   0.037  0.00  0.00    +0.148 HD
ENDROOT
BRANCH   1  17
ATOM     16  C   UNL     1       6.831  -3.914   0.915  0.00  0.00    +0.033 C 
ATOM     17  C   UNL     1       6.666  -2.862  -0.183  0.00  0.00    +0.099 C 
BRANCH  17  18
ATOM     18  C   UNL     1       7.385  -3.318  -1.427  0.00  0.00    -0.027 A 
ATOM     19  C   UNL     1       8.754  -3.157  -1.533  0.00  0.00    +0.007 A 
ATOM     20  C   UNL     1       9.414  -3.580  -2.672  0.00  0.00    +0.029 A 
ATOM     21  C   UNL     1       8.703  -4.154  -3.709  0.00  0.00    +0.105 A 
ATOM     22  C   UNL     1       7.333  -4.310  -3.606  0.00  0.00    +0.029 A 
ATOM     23  C   UNL     1       6.674  -3.892  -2.465  0.00  0.00    +0.007 A 
BRANCH  21  24
ATOM     24  S   UNL     1       9.543  -4.686  -5.164  0.00  0.00    +0.056 S 
ATOM     25  O   UNL     1      10.892  -4.926  -4.789  0.00  0.00    -0.153 OA
ATOM     26  O   UNL     1       8.729  -5.686  -5.760  0.00  0.00    -0.153 OA
BRANCH  24  27
ATOM     27  N   UNL     1       9.565  -3.405  -6.213  0.00  0.00    -0.204 NA
ATOM     28  H   UNL     1       9.155  -2.563  -5.959  0.00  0.00    +0.144 HD
ATOM     29  H   UNL     1       9.987  -3.496  -7.081  0.00  0.00    +0.144 HD
ENDBRANCH  24  27
ENDBRANCH  21  24
ENDBRANCH  17  18
ENDBRANCH   1  17
BRANCH   9  30
ATOM     30  C   UNL     1       3.147  -0.756   2.617  0.00  0.00    -0.001 C 
BRANCH  30  36
ATOM     31  C   UNL     1       0.858  -1.033   1.879  0.00  0.00    -0.078 C 
ATOM     32  C   UNL     1      -0.112  -0.744   0.731  0.00  0.00    -0.019 C 
ATOM     33  C   UNL     1      -0.297   0.770   0.594  0.00  0.00    -0.004 C 
ATOM     34  C   UNL     1       1.068   1.423   0.358  0.00  0.00    -0.019 C 
ATOM     35  C   UNL     1       2.004   1.072   1.516  0.00  0.00    -0.078 C 
ATOM     36  N   UNL     1       2.159  -0.397   1.579  0.00  0.00    +0.384 N 
ATOM     37  H   UNL     1       2.494  -0.735   0.669  0.00  0.00    -0.081 HD
ENDBRANCH  30  36
ENDBRANCH   9  30
TORSDOF 6
