REMARK  Name = ZINC63362035
REMARK  5 active torsions:
REMARK  status: ('A' for Active; 'I' for Inactive)
REMARK    1  A    between atoms: C_1  and  C_2
REMARK    2  A    between atoms: C_9  and  N_17
REMARK    3  A    between atoms: N_17  and  C_18
REMARK    4  A    between atoms: C_18  and  C_19
REMARK    5  A    between atoms: C_31  and  C_38
REMARK                            x       y       z     vdW  Elec       q    Type
REMARK                         _______ _______ _______ _____ _____    ______ ____
ROOT
ATOM      1  N   UNL     1      -2.275  -4.734   1.495  0.00  0.00    -0.310 NA
ATOM      2  H   UNL     1      -2.575  -3.969   2.079  0.00  0.00    +0.122 HD
ENDROOT
BRANCH   1  10
ATOM      3  C   UNL     1      -0.018   1.503   0.010  0.00  0.00    +0.044 C 
ATOM      4  C   UNL     1       0.002  -0.004   0.002  0.00  0.00    -0.050 A 
ATOM      5  C   UNL     1       0.005  -0.680  -1.226  0.00  0.00    +0.005 A 
ATOM      6  C   UNL     1       0.027  -2.026  -1.316  0.00  0.00    +0.026 A 
ATOM      7  C   UNL     1       0.047  -2.826  -0.142  0.00  0.00    +0.043 A 
ATOM      8  N   UNL     1       0.047  -4.130   0.027  0.00  0.00    -0.376 N 
ATOM      9  C   UNL     1       0.155  -4.412   1.456  0.00  0.00    +0.123 C 
ATOM     10  C   UNL     1      -0.996  -5.284   1.964  0.00  0.00    +0.080 C 
ATOM     11  C   UNL     1      -0.963  -5.289   3.495  0.00  0.00    +0.021 C 
ATOM     12  C   UNL     1      -1.249  -3.897   4.058  0.00  0.00    +0.006 C 
ATOM     13  C   UNL     1      -0.137  -2.922   3.636  0.00  0.00    +0.033 C 
ATOM     14  C   UNL     1       0.045  -3.061   2.143  0.00  0.00    -0.037 C 
ATOM     15  C   UNL     1       0.036  -2.137   1.172  0.00  0.00    -0.001 A 
ATOM     16  C   UNL     1       0.022  -0.668   1.179  0.00  0.00    +0.013 A 
ATOM     17  H   UNL     1      -0.015  -4.793  -0.678  0.00  0.00    +0.160 HD
ENDBRANCH   1  10
BRANCH   1  18
ATOM     18  C   UNL     1      -3.304  -5.781   1.428  0.00  0.00    +0.096 C 
BRANCH  18  19
ATOM     19  C   UNL     1      -4.619  -5.172   0.938  0.00  0.00    +0.118 C 
ATOM     20  C   UNL     1      -5.749  -6.245   0.928  0.00  0.00    +0.045 C 
ATOM     21  C   UNL     1      -7.047  -5.511   1.274  0.00  0.00    +0.016 C 
ATOM     22  C   UNL     1      -8.258  -6.336   0.847  0.00  0.00    +0.021 C 
ATOM     23  C   UNL     1      -9.534  -5.623   1.231  0.00  0.00    -0.073 C 
ATOM     24  C   UNL     1      -9.509  -4.567   2.006  0.00  0.00    +0.008 C 
ATOM     25  C   UNL     1     -10.841  -6.164   0.693  0.00  0.00    +0.030 C 
ATOM     26  C   UNL     1     -10.716  -6.330  -0.825  0.00  0.00    +0.005 C 
ATOM     27  C   UNL     1      -9.492  -7.189  -1.149  0.00  0.00    +0.007 C 
ATOM     28  C   UNL     1      -8.217  -6.488  -0.681  0.00  0.00    -0.022 C 
ATOM     29  C   UNL     1      -6.982  -7.315  -1.036  0.00  0.00    +0.052 C 
ATOM     30  C   UNL     1      -5.705  -6.653  -0.557  0.00  0.00    +0.181 C 
ATOM     31  O   UNL     1      -5.430  -5.424  -1.240  0.00  0.00    -0.461 OA
ATOM     32  C   UNL     1      -4.503  -4.752  -0.516  0.00  0.00    +0.312 C 
ATOM     33  O   UNL     1      -3.711  -3.951  -0.955  0.00  0.00    -0.250 OA
ATOM     34  C   UNL     1      -8.133  -5.107  -1.333  0.00  0.00    +0.012 C 
ENDBRANCH  18  19
ENDBRANCH   1  18
TORSDOF 3
