REMARK  Name = ZINC49234486
REMARK  8 active torsions:
REMARK  status: ('A' for Active; 'I' for Inactive)
REMARK    1  A    between atoms: C_1  and  C_2
REMARK    2  A    between atoms: C_4  and  N_21
REMARK    3  A    between atoms: C_5  and  S_9
REMARK    4  A    between atoms: C_7  and  C_8
REMARK    5  A    between atoms: S_9  and  N_12
REMARK    6  A    between atoms: C_15  and  C_18
REMARK    7  A    between atoms: C_18  and  C_19
REMARK    8  A    between atoms: C_18  and  C_20
REMARK                            x       y       z     vdW  Elec       q    Type
REMARK                         _______ _______ _______ _____ _____    ______ ____
ROOT
ATOM      1  S   UNL     1       0.065  -4.535  -0.006  0.00  0.00    +0.103 S 
ATOM      2  O   UNL     1       1.091  -4.926  -0.908  0.00  0.00    -0.146 OA
ATOM      3  O   UNL     1       0.050  -4.944   1.355  0.00  0.00    -0.146 OA
ENDROOT
BRANCH   1   8
ATOM      4  C   UNL     1      -0.018   1.503   0.010  0.00  0.00    +0.044 C 
ATOM      5  C   UNL     1       0.002  -0.004   0.002  0.00  0.00    -0.046 A 
ATOM      6  C   UNL     1       0.006  -0.687  -1.198  0.00  0.00    +0.028 A 
ATOM      7  C   UNL     1       0.025  -2.076  -1.205  0.00  0.00    +0.052 A 
ATOM      8  C   UNL     1       0.041  -2.773  -0.004  0.00  0.00    +0.133 A 
ATOM      9  C   UNL     1       0.037  -2.084   1.193  0.00  0.00    +0.034 A 
ATOM     10  C   UNL     1       0.023  -0.701   1.196  0.00  0.00    -0.046 A 
ATOM     11  C   UNL     1       0.025   0.048   2.504  0.00  0.00    +0.044 C 
BRANCH   7  12
ATOM     12  N   UNL     1       0.028  -2.770  -2.417  0.00  0.00    -0.356 N 
ATOM     13  H   UNL     1       0.017  -2.282  -3.256  0.00  0.00    +0.142 HD
ATOM     14  H   UNL     1       0.042  -3.740  -2.421  0.00  0.00    +0.142 HD
ENDBRANCH   7  12
ENDBRANCH   1   8
BRANCH   1  15
ATOM     15  N   UNL     1      -1.366  -5.043  -0.668  0.00  0.00    -0.103 NA
ATOM     16  C   UNL     1      -1.612  -6.324  -0.792  0.00  0.00    +0.192 A 
ATOM     17  N   UNL     1      -2.721  -6.954  -1.313  0.00  0.00    -0.336 N 
ATOM     18  C   UNL     1      -2.746  -8.318  -1.334  0.00  0.00    +0.027 A 
ATOM     19  C   UNL     1      -1.714  -9.014  -0.857  0.00  0.00    +0.070 A 
ATOM     20  S   UNL     1      -0.597  -7.722  -0.336  0.00  0.00    -0.057 S 
ATOM     21  H   UNL     1      -3.468  -6.440  -1.658  0.00  0.00    +0.168 HD
BRANCH  18  22
ATOM     22  C   UNL     1      -3.943  -9.040  -1.897  0.00  0.00    +0.030 C 
ATOM     23  C   UNL     1      -5.191  -8.658  -1.098  0.00  0.00    +0.013 C 
ATOM     24  C   UNL     1      -4.134  -8.643  -3.362  0.00  0.00    +0.013 C 
ENDBRANCH  18  22
ENDBRANCH   1  15
TORSDOF 4
