REMARK  Name = ZINC65305091
REMARK  6 active torsions:
REMARK  status: ('A' for Active; 'I' for Inactive)
REMARK    1  A    between atoms: C_1  and  C_2
REMARK    2  A    between atoms: C_5  and  C_8
REMARK    3  A    between atoms: N_19  and  C_22
REMARK    4  A    between atoms: C_22  and  C_23
REMARK    5  A    between atoms: N_25  and  C_26
REMARK    6  A    between atoms: C_26  and  C_27
REMARK                            x       y       z     vdW  Elec       q    Type
REMARK                         _______ _______ _______ _____ _____    ______ ____
ROOT
ATOM      1  C   UNL     1       0.058  -4.254  -0.021  0.00  0.00    +0.054 A 
ATOM      2  C   UNL     1       0.067  -4.945  -1.226  0.00  0.00    +0.097 A 
ATOM      3  C   UNL     1       0.085  -6.344  -1.196  0.00  0.00    +0.260 A 
ATOM      4  O   UNL     1       0.093  -6.987  -2.234  0.00  0.00    -0.267 OA
ATOM      5  N   UNL     1       0.094  -6.973  -0.001  0.00  0.00    -0.246 N 
ATOM      6  C   UNL     1       0.112  -8.328   0.325  0.00  0.00    +0.076 A 
ATOM      7  C   UNL     1       0.128  -9.484  -0.443  0.00  0.00    +0.028 A 
ATOM      8  C   UNL     1       0.146 -10.719   0.173  0.00  0.00    +0.002 A 
ATOM      9  C   UNL     1       0.148 -10.809   1.555  0.00  0.00    +0.002 A 
ATOM     10  C   UNL     1       0.131  -9.666   2.328  0.00  0.00    +0.028 A 
ATOM     11  C   UNL     1       0.114  -8.419   1.718  0.00  0.00    +0.069 A 
ATOM     12  N   UNL     1       0.097  -7.122   2.214  0.00  0.00    -0.302 N 
ATOM     13  C   UNL     1       0.085  -6.254   1.155  0.00  0.00    +0.197 A 
ATOM     14  N   UNL     1       0.073  -4.931   1.131  0.00  0.00    -0.326 N 
ATOM     15  H   UNL     1       0.071  -4.442   1.968  0.00  0.00    +0.169 HD
ENDROOT
BRANCH   1  20
ATOM     16  C   UNL     1      -0.018   1.503   0.010  0.00  0.00    +0.044 C 
ATOM     17  C   UNL     1       0.002  -0.004   0.002  0.00  0.00    -0.050 A 
ATOM     18  C   UNL     1       0.006  -0.686  -1.201  0.00  0.00    +0.004 A 
ATOM     19  C   UNL     1       0.024  -2.066  -1.215  0.00  0.00    +0.010 A 
ATOM     20  C   UNL     1       0.039  -2.773  -0.013  0.00  0.00    -0.001 A 
ATOM     21  C   UNL     1       0.036  -2.079   1.197  0.00  0.00    +0.010 A 
ATOM     22  C   UNL     1       0.023  -0.699   1.198  0.00  0.00    +0.004 A 
ENDBRANCH   1  20
BRANCH  12  23
ATOM     23  C   UNL     1       0.092  -6.746   3.630  0.00  0.00    +0.220 C 
BRANCH  23  24
ATOM     24  C   UNL     1       1.511  -6.597   4.116  0.00  0.00    +0.233 C 
ATOM     25  O   UNL     1       2.435  -6.787   3.354  0.00  0.00    -0.274 OA
ATOM     26  N   UNL     1       1.752  -6.254   5.396  0.00  0.00    -0.307 N 
ATOM     27  H   UNL     1       1.013  -6.103   6.006  0.00  0.00    +0.149 HD
BRANCH  26  28
ATOM     28  C   UNL     1       3.132  -6.110   5.868  0.00  0.00    +0.178 C 
BRANCH  28  29
ATOM     29  C   UNL     1       3.127  -5.723   7.325  0.00  0.00    +0.122 A 
ATOM     30  C   UNL     1       3.144  -6.576   8.365  0.00  0.00    +0.046 A 
ATOM     31  C   UNL     1       3.131  -5.790   9.540  0.00  0.00    +0.041 A 
ATOM     32  C   UNL     1       3.106  -4.503   9.147  0.00  0.00    +0.195 A 
ATOM     33  O   UNL     1       3.110  -4.469   7.805  0.00  0.00    -0.466 OA
ENDBRANCH  28  29
ENDBRANCH  26  28
ENDBRANCH  23  24
ENDBRANCH  12  23
TORSDOF 5
