REMARK  Name = ZINC38660366
REMARK  17 active torsions:
REMARK  status: ('A' for Active; 'I' for Inactive)
REMARK    1  A    between atoms: C_1  and  C_2
REMARK    2  A    between atoms: C_7  and  O_8
REMARK    3  A    between atoms: O_8  and  C_9
REMARK    4  A    between atoms: C_9  and  C_10
REMARK    5  A    between atoms: C_10  and  O_12
REMARK    6  A    between atoms: O_12  and  C_13
REMARK    7  A    between atoms: C_20  and  N_40
REMARK    8  A    between atoms: C_21  and  C_38
REMARK    9  A    between atoms: C_22  and  C_24
REMARK   10  A    between atoms: C_27  and  O_32
REMARK   11  A    between atoms: C_28  and  O_30
REMARK   12  A    between atoms: O_30  and  C_31
REMARK   13  A    between atoms: O_32  and  C_33
REMARK   14  A    between atoms: C_33  and  C_34
REMARK   15  A    between atoms: C_34  and  C_35
REMARK   16  A    between atoms: C_35  and  C_36
REMARK   17  A    between atoms: C_35  and  C_37
REMARK                            x       y       z     vdW  Elec       q    Type
REMARK                         _______ _______ _______ _____ _____    ______ ____
ROOT
ATOM      1  C   UNL     1       0.100   0.347   7.125  0.00  0.00    +0.135 A 
ATOM      2  C   UNL     1       0.038   1.729   7.009  0.00  0.00    +0.047 A 
ATOM      3  C   UNL     1       0.073   2.519   8.141  0.00  0.00    +0.012 A 
ATOM      4  C   UNL     1       0.170   1.939   9.394  0.00  0.00    +0.008 A 
ATOM      5  C   UNL     1       0.233   0.560   9.515  0.00  0.00    +0.138 A 
ATOM      6  C   UNL     1       0.192  -0.237   8.378  0.00  0.00    +0.093 A 
ATOM      7  O   UNL     1       0.329  -0.027  10.734  0.00  0.00    -0.441 OA
ATOM      8  C   UNL     1      -0.016   0.658  11.837  0.00  0.00    +0.199 C 
ATOM      9  C   UNL     1      -0.092   2.010  11.846  0.00  0.00    +0.098 C 
ATOM     10  C   UNL     1       0.208   2.818  10.616  0.00  0.00    +0.098 C 
ENDROOT
BRANCH  10  11
ATOM     11  C   UNL     1       1.577   3.434  10.745  0.00  0.00    -0.031 A 
ATOM     12  C   UNL     1       2.689   2.623  10.873  0.00  0.00    +0.008 A 
ATOM     13  C   UNL     1       3.948   3.184  10.992  0.00  0.00    +0.050 A 
ATOM     14  C   UNL     1       4.096   4.561  10.983  0.00  0.00    +0.162 A 
ATOM     15  C   UNL     1       2.976   5.378  10.854  0.00  0.00    +0.162 A 
ATOM     16  C   UNL     1       1.719   4.809  10.730  0.00  0.00    +0.054 A 
BRANCH  15  17
ATOM     17  O   UNL     1       3.117   6.730  10.844  0.00  0.00    -0.491 OA
ATOM     18  C   UNL     1       1.924   7.505  10.707  0.00  0.00    +0.277 C 
ENDBRANCH  15  17
BRANCH  14  19
ATOM     19  O   UNL     1       5.333   5.114  11.101  0.00  0.00    -0.488 OA
BRANCH  19  20
ATOM     20  C   UNL     1       6.436   4.215  11.230  0.00  0.00    +0.229 C 
BRANCH  20  21
ATOM     21  C   UNL     1       7.734   5.015  11.350  0.00  0.00    +0.044 C 
BRANCH  21  22
ATOM     22  C   UNL     1       8.916   4.053  11.489  0.00  0.00    -0.014 C 
ATOM     23  C   UNL     1       9.061   3.235  10.204  0.00  0.00    +0.007 C 
ATOM     24  C   UNL     1      10.198   4.851  11.733  0.00  0.00    +0.007 C 
ENDBRANCH  21  22
ENDBRANCH  20  21
ENDBRANCH  19  20
ENDBRANCH  14  19
ENDBRANCH  10  11
BRANCH   8  25
ATOM     25  N   UNL     1      -0.301  -0.033  12.988  0.00  0.00    -0.328 N 
ATOM     26  H   UNL     1      -0.251  -1.002  12.997  0.00  0.00    +0.145 HD
ATOM     27  H   UNL     1      -0.551   0.447  13.793  0.00  0.00    +0.145 HD
ENDBRANCH   8  25
BRANCH   9  28
ATOM     28  C   UNL     1      -0.467   2.683  13.053  0.00  0.00    +0.101 C 
ATOM     29  N   UNL     1      -0.765   3.217  14.011  0.00  0.00    -0.191 NA
ENDBRANCH   9  28
BRANCH   1  30
ATOM     30  O   UNL     1       0.066  -0.431   6.012  0.00  0.00    -0.423 OA
BRANCH  30  31
ATOM     31  C   UNL     1       1.186  -0.531   5.278  0.00  0.00    +0.350 C 
ATOM     32  O   UNL     1       2.156   0.130   5.563  0.00  0.00    -0.247 OA
BRANCH  31  33
ATOM     33  C   UNL     1       1.233  -1.468   4.099  0.00  0.00    +0.349 C 
BRANCH  33  34
ATOM     34  O   UNL     1       2.521  -1.397   3.484  0.00  0.00    -0.481 OA
BRANCH  34  41
ATOM     35  C   UNL     1       5.060  -1.269   2.254  0.00  0.00    +0.047 C 
ATOM     36  C   UNL     1       3.958  -2.166   1.752  0.00  0.00    -0.009 A 
ATOM     37  C   UNL     1       4.171  -2.974   0.652  0.00  0.00    +0.007 A 
ATOM     38  C   UNL     1       3.161  -3.797   0.191  0.00  0.00    +0.000 A 
ATOM     39  C   UNL     1       1.934  -3.814   0.829  0.00  0.00    +0.004 A 
ATOM     40  C   UNL     1       1.716  -3.009   1.930  0.00  0.00    +0.046 A 
ATOM     41  C   UNL     1       2.731  -2.186   2.398  0.00  0.00    +0.124 A 
ENDBRANCH  34  41
ENDBRANCH  33  34
ENDBRANCH  31  33
ENDBRANCH  30  31
ENDBRANCH   1  30
TORSDOF 13
