REMARK  Name = ZINC63460503
REMARK  9 active torsions:
REMARK  status: ('A' for Active; 'I' for Inactive)
REMARK    1  A    between atoms: C_1  and  C_2
REMARK    2  A    between atoms: N_8  and  C_9
REMARK    3  A    between atoms: C_12  and  C_15
REMARK    4  A    between atoms: N_17  and  N_18
REMARK    5  A    between atoms: C_19  and  O_21
REMARK    6  A    between atoms: O_21  and  C_22
REMARK    7  A    between atoms: C_22  and  C_23
REMARK    8  A    between atoms: C_22  and  C_24
REMARK    9  A    between atoms: C_22  and  C_25
REMARK                            x       y       z     vdW  Elec       q    Type
REMARK                         _______ _______ _______ _____ _____    ______ ____
ROOT
ATOM      1  C   UNL     1      -0.071  -0.586   2.499  0.00  0.00    +0.051 A 
ATOM      2  C   UNL     1      -0.259   0.736   2.890  0.00  0.00    +0.027 A 
ATOM      3  C   UNL     1      -0.308   1.060   4.228  0.00  0.00    +0.015 A 
ATOM      4  C   UNL     1      -0.168   0.059   5.193  0.00  0.00    +0.038 A 
ATOM      5  C   UNL     1       0.020  -1.268   4.796  0.00  0.00    +0.015 A 
ATOM      6  C   UNL     1       0.062  -1.585   3.457  0.00  0.00    +0.027 A 
ENDROOT
BRANCH   1  14
ATOM      7  C   UNL     1       2.453  -1.634   1.043  0.00  0.00    +0.065 C 
ATOM      8  C   UNL     1       1.088  -1.382   0.456  0.00  0.00    +0.041 A 
ATOM      9  C   UNL     1       0.733  -1.577  -0.810  0.00  0.00    +0.109 A 
ATOM     10  N   UNL     1      -0.603  -1.226  -0.938  0.00  0.00    -0.312 N 
ATOM     11  H   UNL     1      -1.127  -1.267  -1.752  0.00  0.00    +0.170 HD
ATOM     12  C   UNL     1      -1.044  -0.818   0.269  0.00  0.00    +0.331 A 
ATOM     13  O   UNL     1      -2.172  -0.437   0.525  0.00  0.00    -0.246 OA
ATOM     14  N   UNL     1      -0.023  -0.910   1.142  0.00  0.00    -0.266 N 
ENDBRANCH   1  14
BRANCH   4  15
ATOM     15  C   UNL     1      -0.220   0.402   6.628  0.00  0.00    +0.260 C 
ATOM     16  O   UNL     1      -0.383   1.557   6.971  0.00  0.00    -0.269 OA
ATOM     17  N   UNL     1      -0.085  -0.565   7.557  0.00  0.00    -0.228 N 
ATOM     18  H   UNL     1       0.046  -1.486   7.283  0.00  0.00    +0.173 HD
BRANCH  17  19
ATOM     19  N   UNL     1      -0.133  -0.239   8.919  0.00  0.00    -0.199 N 
ATOM     20  C   UNL     1       0.002  -1.206   9.848  0.00  0.00    +0.417 C 
ATOM     21  O   UNL     1      -0.040  -0.923  11.029  0.00  0.00    -0.225 OA
ATOM     22  H   UNL     1      -0.264   0.682   9.193  0.00  0.00    +0.176 HD
BRANCH  20  23
ATOM     23  O   UNL     1       0.183  -2.484   9.468  0.00  0.00    -0.444 OA
BRANCH  23  24
ATOM     24  C   UNL     1       0.319  -3.457  10.506  0.00  0.00    +0.107 C 
ATOM     25  C   UNL     1      -0.944  -3.460  11.370  0.00  0.00    +0.055 C 
ATOM     26  C   UNL     1       0.515  -4.841   9.886  0.00  0.00    +0.055 C 
ATOM     27  C   UNL     1       1.530  -3.110  11.374  0.00  0.00    +0.055 C 
ENDBRANCH  23  24
ENDBRANCH  20  23
ENDBRANCH  17  19
ENDBRANCH   4  15
TORSDOF 5
