REMARK  Name = ZINC37261835
REMARK  8 active torsions:
REMARK  status: ('A' for Active; 'I' for Inactive)
REMARK    1  A    between atoms: C_1  and  O_2
REMARK    2  A    between atoms: O_2  and  C_3
REMARK    3  A    between atoms: C_6  and  C_10
REMARK    4  A    between atoms: C_10  and  N_11
REMARK    5  A    between atoms: N_11  and  C_12
REMARK    6  A    between atoms: C_12  and  C_13
REMARK    7  A    between atoms: C_13  and  S_14
REMARK    8  A    between atoms: S_14  and  N_17
REMARK                            x       y       z     vdW  Elec       q    Type
REMARK                         _______ _______ _______ _____ _____    ______ ____
ROOT
ATOM      1  C   UNL     1       2.588  -2.550   4.311  0.00  0.00    -0.047 C 
ENDROOT
BRANCH   1   5
ATOM      2  C   UNL     1       0.626  -0.619   1.042  0.00  0.00    +0.148 A 
ATOM      3  C   UNL     1       1.981  -0.910   0.965  0.00  0.00    +0.061 A 
ATOM      4  C   UNL     1       2.613  -1.535   2.024  0.00  0.00    +0.020 A 
ATOM      5  C   UNL     1       1.896  -1.869   3.159  0.00  0.00    -0.062 A 
ATOM      6  C   UNL     1       0.546  -1.580   3.237  0.00  0.00    +0.020 A 
ATOM      7  C   UNL     1      -0.089  -0.950   2.184  0.00  0.00    +0.061 A 
ATOM      8 BR   UNL     1      -1.934  -0.548   2.295  0.00  0.00    -0.046 Br
ATOM      9 BR   UNL     1       2.961  -0.454  -0.586  0.00  0.00    -0.046 Br
BRANCH   2  11
ATOM     10  C   UNL     1      -0.017   1.425   0.010  0.00  0.00    +0.277 C 
ATOM     11  O   UNL     1       0.002  -0.004   0.002  0.00  0.00    -0.493 OA
ENDBRANCH   2  11
ENDBRANCH   1   5
BRANCH   1  12
ATOM     12  N   UNL     1       3.110  -1.536   5.238  0.00  0.00    +0.383 N 
ATOM     13  H   UNL     1       3.768  -0.945   4.753  0.00  0.00    -0.085 HD
ATOM     14  H   UNL     1       2.347  -0.976   5.587  0.00  0.00    -0.085 HD
BRANCH  12  15
ATOM     15  C   UNL     1       3.784  -2.200   6.361  0.00  0.00    -0.058 C 
BRANCH  15  16
ATOM     16  C   UNL     1       4.327  -1.145   7.326  0.00  0.00    +0.166 C 
BRANCH  16  17
ATOM     17  S   UNL     1       5.160  -1.964   8.713  0.00  0.00    +0.025 S 
ATOM     18  O   UNL     1       4.212  -2.659   9.511  0.00  0.00    -0.158 OA
ATOM     19  O   UNL     1       6.341  -2.613   8.261  0.00  0.00    -0.158 OA
BRANCH  17  20
ATOM     20  N   UNL     1       5.699  -0.730   9.676  0.00  0.00    -0.208 NA
ATOM     21  H   UNL     1       5.530   0.192   9.423  0.00  0.00    +0.144 HD
ATOM     22  H   UNL     1       6.183  -0.927  10.493  0.00  0.00    +0.144 HD
ENDBRANCH  17  20
ENDBRANCH  16  17
ENDBRANCH  15  16
ENDBRANCH  12  15
ENDBRANCH   1  12
TORSDOF 7
