REMARK  Name = ZINC14882260
REMARK  10 active torsions:
REMARK  status: ('A' for Active; 'I' for Inactive)
REMARK    1  A    between atoms: C_1  and  N_2
REMARK    2  A    between atoms: C_5  and  C_7
REMARK    3  A    between atoms: N_9  and  C_10
REMARK    4  A    between atoms: N_9  and  C_11
REMARK    5  A    between atoms: C_11  and  C_13
REMARK    6  A    between atoms: C_11  and  C_20
REMARK    7  A    between atoms: C_13  and  C_14
REMARK    8  A    between atoms: C_25  and  C_26
REMARK    9  A    between atoms: C_25  and  N_64
REMARK   10  A    between atoms: C_31  and  O_32
REMARK                            x       y       z     vdW  Elec       q    Type
REMARK                         _______ _______ _______ _____ _____    ______ ____
ROOT
ATOM      1  C   UNL     1      -0.281   1.332   0.035  0.00  0.00    +0.083 C 
ENDROOT
BRANCH   1   2
ATOM      2  C   UNL     1      -1.284   1.838   1.074  0.00  0.00    +0.006 C 
ATOM      3  C   UNL     1      -0.706   1.647   2.479  0.00  0.00    -0.013 C 
ATOM      4  C   UNL     1      -1.738   2.097   3.515  0.00  0.00    -0.078 C 
ATOM      5  C   UNL     1      -3.566   1.512   2.035  0.00  0.00    -0.078 C 
ATOM      6  C   UNL     1      -2.588   1.044   0.954  0.00  0.00    -0.013 C 
ATOM      7  N   UNL     1      -2.960   1.279   3.363  0.00  0.00    +0.382 N 
ATOM      8  H   UNL     1      -2.709   0.286   3.445  0.00  0.00    -0.081 HD
BRANCH   7   9
ATOM      9  C   UNL     1      -3.929   1.617   4.426  0.00  0.00    -0.039 C 
BRANCH   9  10
ATOM     10  C   UNL     1      -3.373   1.166   5.752  0.00  0.00    -0.021 A 
ATOM     11  C   UNL     1      -3.791  -0.028   6.308  0.00  0.00    +0.025 A 
ATOM     12  C   UNL     1      -3.280  -0.442   7.525  0.00  0.00    +0.041 A 
ATOM     13  C   UNL     1      -2.349   0.338   8.188  0.00  0.00    +0.023 A 
ATOM     14  C   UNL     1      -1.929   1.532   7.636  0.00  0.00    +0.047 A 
ATOM     15  C   UNL     1      -2.436   1.946   6.412  0.00  0.00    +0.118 A 
ATOM     16 CL   UNL     1      -3.807  -1.942   8.220  0.00  0.00    -0.084 Cl
BRANCH  15  17
ATOM     17  O   UNL     1      -2.018   3.119   5.864  0.00  0.00    -0.507 OA
ATOM     18  H   UNL     1      -2.548   3.885   6.124  0.00  0.00    +0.292 HD
ENDBRANCH  15  17
ENDBRANCH   9  10
ENDBRANCH   7   9
ENDBRANCH   1   2
BRANCH   1  21
ATOM     19  C   UNL     1      -1.022   0.444  -2.109  0.00  0.00    +0.267 C 
ATOM     20  O   UNL     1      -0.821  -0.677  -1.684  0.00  0.00    -0.268 OA
ATOM     21  N   UNL     1      -0.837   1.512  -1.308  0.00  0.00    -0.296 N 
ATOM     22  C   UNL     1      -1.190   2.852  -1.781  0.00  0.00    +0.132 C 
BRANCH  19  27
ATOM     23  C   UNL     1      -2.285   2.640  -6.314  0.00  0.00    +0.172 C 
ATOM     24  N   UNL     1      -2.019   1.585  -5.333  0.00  0.00    -0.274 N 
ATOM     25  C   UNL     1      -2.166   0.263  -5.562  0.00  0.00    +0.109 A 
ATOM     26  C   UNL     1      -1.820  -0.382  -4.423  0.00  0.00    +0.054 A 
ATOM     27  C   UNL     1      -1.470   0.635  -3.503  0.00  0.00    +0.147 A 
ATOM     28  N   UNL     1      -1.613   1.786  -4.130  0.00  0.00    -0.167 NA
ENDBRANCH  19  27
ENDBRANCH   1  21
BRANCH   1  29
ATOM     29  C   UNL     1       1.023   2.123   0.158  0.00  0.00    +0.058 C 
BRANCH  29  30
ATOM     30  C   UNL     1       2.051   1.546  -0.779  0.00  0.00    -0.046 A 
ATOM     31  C   UNL     1       2.897   0.542  -0.344  0.00  0.00    +0.004 A 
ATOM     32  C   UNL     1       3.837   0.008  -1.206  0.00  0.00    +0.000 A 
ATOM     33  C   UNL     1       3.939   0.485  -2.499  0.00  0.00    +0.000 A 
ATOM     34  C   UNL     1       3.098   1.493  -2.932  0.00  0.00    +0.000 A 
ATOM     35  C   UNL     1       2.154   2.023  -2.072  0.00  0.00    +0.004 A 
ENDBRANCH  29  30
ENDBRANCH   1  29
TORSDOF 8
