REMARK  Name = ZINC35644522
REMARK  10 active torsions:
REMARK  status: ('A' for Active; 'I' for Inactive)
REMARK    1  A    between atoms: C_1  and  C_2
REMARK    2  A    between atoms: C_2  and  C_3
REMARK    3  A    between atoms: C_3  and  C_5
REMARK    4  A    between atoms: C_3  and  C_6
REMARK    5  A    between atoms: N_12  and  C_15
REMARK    6  A    between atoms: N_21  and  C_22
REMARK    7  A    between atoms: C_25  and  N_28
REMARK    8  A    between atoms: N_28  and  S_29
REMARK    9  A    between atoms: S_29  and  C_32
REMARK   10  A    between atoms: C_35  and  C_38
REMARK                            x       y       z     vdW  Elec       q    Type
REMARK                         _______ _______ _______ _____ _____    ______ ____
ROOT
ATOM      1  C   UNL     1      -1.414  -2.036   0.129  0.00  0.00    +0.136 A 
ATOM      2  N   UNL     1      -2.010  -2.600   1.164  0.00  0.00    -0.216 NA
ATOM      3  C   UNL     1      -2.023  -3.920   1.315  0.00  0.00    +0.133 A 
ATOM      4  C   UNL     1      -1.384  -4.712   0.341  0.00  0.00    +0.079 A 
ATOM      5  C   UNL     1      -1.190  -6.098   0.159  0.00  0.00    +0.148 A 
ATOM      6  N   UNL     1      -0.512  -6.281  -0.938  0.00  0.00    -0.172 NA
ATOM      7  N   UNL     1      -0.226  -5.043  -1.528  0.00  0.00    -0.214 N 
ATOM      8  C   UNL     1      -0.762  -4.062  -0.743  0.00  0.00    +0.168 A 
ATOM      9  N   UNL     1      -0.808  -2.733  -0.808  0.00  0.00    -0.212 NA
ATOM     10  N   UNL     1      -2.649  -4.502   2.400  0.00  0.00    -0.326 N 
ATOM     11  H   UNL     1      -2.651  -5.467   2.499  0.00  0.00    +0.148 HD
ENDROOT
BRANCH   7  12
ATOM     12  C   UNL     1       0.487  -4.846  -2.717  0.00  0.00    +0.068 A 
ATOM     13  C   UNL     1       0.142  -3.806  -3.570  0.00  0.00    +0.028 A 
ATOM     14  C   UNL     1       0.847  -3.614  -4.742  0.00  0.00    +0.002 A 
ATOM     15  C   UNL     1       1.895  -4.455  -5.066  0.00  0.00    +0.000 A 
ATOM     16  C   UNL     1       2.240  -5.492  -4.219  0.00  0.00    +0.002 A 
ATOM     17  C   UNL     1       1.543  -5.686  -3.043  0.00  0.00    +0.028 A 
ENDBRANCH   7  12
BRANCH  10  18
ATOM     18  C   UNL     1      -3.308  -3.661   3.403  0.00  0.00    +0.072 C 
ATOM     19  C   UNL     1      -2.279  -3.193   4.433  0.00  0.00    +0.024 C 
ATOM     20  C   UNL     1      -1.654  -4.409   5.119  0.00  0.00    +0.022 C 
ATOM     21  C   UNL     1      -2.748  -5.216   5.821  0.00  0.00    +0.077 C 
ATOM     22  C   UNL     1      -3.777  -5.685   4.791  0.00  0.00    +0.022 C 
ATOM     23  C   UNL     1      -4.402  -4.468   4.105  0.00  0.00    +0.024 C 
BRANCH  21  24
ATOM     24  N   UNL     1      -2.149  -6.381   6.478  0.00  0.00    -0.187 NA
ATOM     25  H   UNL     1      -1.396  -6.835   6.069  0.00  0.00    +0.148 HD
BRANCH  24  26
ATOM     26  S   UNL     1      -2.759  -6.924   7.919  0.00  0.00    +0.059 S 
ATOM     27  O   UNL     1      -1.994  -8.066   8.280  0.00  0.00    -0.153 OA
ATOM     28  O   UNL     1      -2.876  -5.787   8.764  0.00  0.00    -0.153 OA
BRANCH  26  29
ATOM     29  C   UNL     1      -4.398  -7.492   7.610  0.00  0.00    +0.105 A 
ATOM     30  C   UNL     1      -5.464  -6.619   7.716  0.00  0.00    +0.029 A 
ATOM     31  C   UNL     1      -6.750  -7.065   7.473  0.00  0.00    +0.005 A 
ATOM     32  C   UNL     1      -6.969  -8.385   7.125  0.00  0.00    -0.050 A 
ATOM     33  C   UNL     1      -5.903  -9.258   7.018  0.00  0.00    +0.005 A 
ATOM     34  C   UNL     1      -4.617  -8.811   7.256  0.00  0.00    +0.029 A 
ATOM     35  C   UNL     1      -8.371  -8.871   6.861  0.00  0.00    +0.044 C 
ENDBRANCH  26  29
ENDBRANCH  24  26
ENDBRANCH  21  24
ENDBRANCH  10  18
BRANCH   1  36
ATOM     36  C   UNL     1      -1.433  -0.534   0.013  0.00  0.00    +0.054 C 
ATOM     37  C   UNL     1      -2.135  -0.131  -1.286  0.00  0.00    +0.015 C 
BRANCH  36  39
ATOM     38  C   UNL     1      -0.019   1.526   0.010  0.00  0.00    +0.004 C 
ATOM     39  C   UNL     1       0.002  -0.004   0.002  0.00  0.00    +0.007 C 
ENDBRANCH  36  39
ENDBRANCH   1  36
TORSDOF 7
