REMARK  Name = ZINC51036056
REMARK  5 active torsions:
REMARK  status: ('A' for Active; 'I' for Inactive)
REMARK    1  A    between atoms: C_5  and  C_6
REMARK    2  A    between atoms: C_6  and  C_8
REMARK    3  A    between atoms: C_6  and  S_10
REMARK    4  A    between atoms: C_8  and  N_9
REMARK    5  A    between atoms: S_10  and  C_11
REMARK                            x       y       z     vdW  Elec       q    Type
REMARK                         _______ _______ _______ _____ _____    ______ ____
ROOT
ATOM      1  C   UNL     1      -1.158  -0.929   0.026  0.00  0.00    +0.072 C 
ENDROOT
BRANCH   1   6
ATOM      2  C   UNL     1       0.220   1.255   0.121  0.00  0.00    +0.013 A 
ATOM      3  C   UNL     1       1.483   1.810   0.203  0.00  0.00    +0.023 A 
ATOM      4  C   UNL     1       2.559   0.987   0.267  0.00  0.00    +0.055 A 
ATOM      5  S   UNL     1       1.794  -0.625   0.212  0.00  0.00    -0.085 S 
ATOM      6  C   UNL     1       0.093  -0.094   0.107  0.00  0.00    +0.002 A 
ATOM      7 BR   UNL     1       4.394   1.431   0.384  0.00  0.00    -0.043 Br
ENDBRANCH   1   6
BRANCH   1   8
ATOM      8  C   UNL     1      -1.261  -1.817   1.267  0.00  0.00    -0.067 C 
BRANCH   8   9
ATOM      9  N   UNL     1      -2.542  -2.535   1.252  0.00  0.00    +0.379 N 
ATOM     10  H   UNL     1      -2.647  -3.055   2.110  0.00  0.00    -0.090 HD
ATOM     11  H   UNL     1      -3.298  -1.872   1.166  0.00  0.00    -0.090 HD
ATOM     12  H   UNL     1      -2.562  -3.171   0.468  0.00  0.00    -0.090 HD
ENDBRANCH   8   9
ENDBRANCH   1   8
BRANCH   1  13
ATOM     13  S   UNL     1      -1.095  -1.970  -1.459  0.00  0.00    -0.097 S 
BRANCH  13  14
ATOM     14  C   UNL     1      -1.213  -0.821  -2.790  0.00  0.00    +0.126 A 
ATOM     15  C   UNL     1      -1.089  -1.248  -4.114  0.00  0.00    +0.117 A 
ATOM     16  C   UNL     1      -1.191  -0.295  -5.140  0.00  0.00    +0.182 A 
ATOM     17  N   UNL     1      -1.038  -0.956  -6.303  0.00  0.00    -0.216 NA
ATOM     18  H   UNL     1      -0.762  -3.318  -4.302  0.00  0.00    +0.167 HD
ATOM     19  C   UNL     1      -0.852  -2.225  -6.069  0.00  0.00    +0.199 A 
ATOM     20  N   UNL     1      -0.875  -2.459  -4.737  0.00  0.00    -0.341 N 
ATOM     21  N   UNL     1      -1.403   0.984  -4.809  0.00  0.00    -0.214 NA
ATOM     22  C   UNL     1      -1.513   1.339  -3.549  0.00  0.00    +0.224 A 
ATOM     23  N   UNL     1      -1.428   0.471  -2.556  0.00  0.00    -0.227 NA
ENDBRANCH  13  14
ENDBRANCH   1  13
TORSDOF 5
