REMARK  Name = ZINC58356317
REMARK  10 active torsions:
REMARK  status: ('A' for Active; 'I' for Inactive)
REMARK    1  A    between atoms: C_1  and  C_2
REMARK    2  A    between atoms: C_4  and  S_18
REMARK    3  A    between atoms: C_7  and  N_8
REMARK    4  A    between atoms: N_8  and  C_9
REMARK    5  A    between atoms: C_9  and  C_11
REMARK    6  A    between atoms: C_9  and  C_12
REMARK    7  A    between atoms: S_18  and  C_19
REMARK    8  A    between atoms: C_19  and  C_20
REMARK    9  A    between atoms: C_19  and  C_21
REMARK   10  A    between atoms: C_19  and  C_22
REMARK                            x       y       z     vdW  Elec       q    Type
REMARK                         _______ _______ _______ _____ _____    ______ ____
ROOT
ATOM      1  N   UNL     1      -1.710  -0.952   2.016  0.00  0.00    -0.333 N 
ATOM      2  H   UNL     1      -1.918  -0.008   2.104  0.00  0.00    +0.147 HD
ENDROOT
BRANCH   1   9
ATOM      3  C   UNL     1      -1.546   0.834  -0.191  0.00  0.00    +0.046 C 
ATOM      4  C   UNL     1      -1.223  -0.631  -0.328  0.00  0.00    -0.029 A 
ATOM      5  C   UNL     1      -0.829  -1.140  -1.550  0.00  0.00    +0.020 A 
ATOM      6  C   UNL     1      -0.530  -2.491  -1.675  0.00  0.00    +0.009 A 
ATOM      7  C   UNL     1      -0.628  -3.329  -0.572  0.00  0.00    +0.016 A 
ATOM      8  C   UNL     1      -1.022  -2.820   0.649  0.00  0.00    +0.024 A 
ATOM      9  C   UNL     1      -1.315  -1.469   0.776  0.00  0.00    +0.031 A 
BRANCH   6  10
ATOM     10  S   UNL     1      -0.028  -3.140  -3.234  0.00  0.00    -0.119 S 
BRANCH  10  11
ATOM     11  C   UNL     1       1.781  -3.009  -3.202  0.00  0.00    +0.013 C 
ATOM     12  C   UNL     1       2.333  -3.855  -2.053  0.00  0.00    +0.022 C 
ATOM     13  C   UNL     1       2.353  -3.515  -4.528  0.00  0.00    +0.022 C 
ATOM     14  C   UNL     1       2.183  -1.547  -2.998  0.00  0.00    +0.022 C 
ENDBRANCH  10  11
ENDBRANCH   6  10
ENDBRANCH   1   9
BRANCH   1  15
ATOM     15  C   UNL     1      -1.807  -1.835   3.180  0.00  0.00    +0.154 C 
ATOM     16  C   UNL     1      -3.179  -2.514   3.192  0.00  0.00    +0.038 C 
BRANCH  15  17
ATOM     17  C   UNL     1      -1.636  -1.026   4.440  0.00  0.00    +0.240 C 
ATOM     18  O   UNL     1      -1.451   0.170   4.372  0.00  0.00    -0.273 OA
ATOM     19  N   UNL     1      -1.689  -1.632   5.643  0.00  0.00    -0.239 N 
ATOM     20  C   UNL     1      -1.536  -0.909   6.770  0.00  0.00    +0.303 C 
ATOM     21  O   UNL     1      -1.351   0.290   6.701  0.00  0.00    -0.253 OA
ATOM     22  N   UNL     1      -1.589  -1.515   7.972  0.00  0.00    -0.313 N 
ATOM     23  H   UNL     1      -1.837  -2.590   5.697  0.00  0.00    +0.159 HD
ATOM     24  H   UNL     1      -1.737  -2.472   8.027  0.00  0.00    +0.146 HD
ATOM     25  H   UNL     1      -1.479  -0.995   8.783  0.00  0.00    +0.146 HD
ENDBRANCH  15  17
ENDBRANCH   1  15
TORSDOF 5
