REMARK  Name = ZINC35336981
REMARK  14 active torsions:
REMARK  status: ('A' for Active; 'I' for Inactive)
REMARK    1  A    between atoms: C_1  and  N_2
REMARK    2  A    between atoms: C_6  and  C_7
REMARK    3  A    between atoms: C_7  and  N_8
REMARK    4  A    between atoms: N_8  and  C_9
REMARK    5  A    between atoms: C_9  and  C_10
REMARK    6  A    between atoms: C_15  and  C_17
REMARK    7  A    between atoms: C_17  and  N_18
REMARK    8  A    between atoms: N_18  and  C_19
REMARK    9  A    between atoms: C_19  and  C_20
REMARK   10  A    between atoms: C_20  and  O_21
REMARK   11  A    between atoms: O_21  and  C_22
REMARK   12  A    between atoms: C_23  and  C_25
REMARK   13  A    between atoms: C_26  and  C_27
REMARK   14  A    between atoms: C_30  and  N_33
REMARK                            x       y       z     vdW  Elec       q    Type
REMARK                         _______ _______ _______ _____ _____    ______ ____
ROOT
ATOM      1  N   UNL     1       4.176  -1.938   4.493  0.00  0.00    -0.287 N 
ATOM      2  C   UNL     1       4.071  -2.189   5.813  0.00  0.00    +0.240 C 
ATOM      3  O   UNL     1       3.477  -1.411   6.535  0.00  0.00    -0.271 OA
ENDROOT
BRANCH   2   4
ATOM      4  C   UNL     1       4.672  -3.399   6.378  0.00  0.00    +0.068 C 
ATOM      5  C   UNL     1       4.566  -3.651   7.699  0.00  0.00    +0.013 C 
BRANCH   5   6
ATOM      6  C   UNL     1       5.170  -4.867   8.267  0.00  0.00    -0.025 A 
ATOM      7  C   UNL     1       5.859  -5.761   7.441  0.00  0.00    +0.010 A 
ATOM      8  C   UNL     1       6.422  -6.898   7.981  0.00  0.00    +0.033 A 
ATOM      9  C   UNL     1       6.307  -7.155   9.336  0.00  0.00    +0.126 A 
ATOM     10  C   UNL     1       5.627  -6.276  10.160  0.00  0.00    +0.033 A 
ATOM     11  C   UNL     1       5.063  -5.131   9.636  0.00  0.00    +0.010 A 
BRANCH   9  12
ATOM     12  N   UNL     1       6.914  -8.379   9.908  0.00  0.00    +0.056 N 
ATOM     13  O   UNL     1       7.509  -9.150   9.191  0.00  0.00    -0.126 OA
ATOM     14  O   UNL     1       6.816  -8.607  11.091  0.00  0.00    -0.126 OA
ENDBRANCH   9  12
ENDBRANCH   5   6
ENDBRANCH   2   4
BRANCH   1  15
ATOM     15  C   UNL     1       3.576  -0.728   3.928  0.00  0.00    +0.204 C 
BRANCH  15  17
ATOM     16  N   UNL     1       1.407  -0.049   2.951  0.00  0.00    -0.287 N 
ATOM     17  C   UNL     1       2.160  -1.021   3.503  0.00  0.00    +0.234 C 
ATOM     18  O   UNL     1       1.698  -2.132   3.657  0.00  0.00    -0.274 OA
BRANCH  16  19
ATOM     19  C   UNL     1       0.031  -0.335   2.538  0.00  0.00    +0.161 C 
BRANCH  19  25
ATOM     20  C   UNL     1      -0.018   1.461   0.010  0.00  0.00    +0.148 C 
ATOM     21  N   UNL     1       0.002  -0.004   0.002  0.00  0.00    -0.352 N 
ATOM     22  C   UNL     1       0.008  -0.792  -1.110  0.00  0.00    +0.085 A 
ATOM     23  C   UNL     1       0.027  -2.081  -0.714  0.00  0.00    +0.019 A 
ATOM     24  C   UNL     1       0.033  -2.089   0.695  0.00  0.00    +0.024 A 
ATOM     25  C   UNL     1       0.023  -0.804   1.106  0.00  0.00    +0.036 A 
ENDBRANCH  19  25
ENDBRANCH  16  19
BRANCH  16  26
ATOM     26  C   UNL     1       1.964   1.293   2.765  0.00  0.00    +0.182 C 
BRANCH  26  27
ATOM     27  C   UNL     1       1.690   2.125   3.991  0.00  0.00    +0.122 A 
ATOM     28  C   UNL     1       2.494   2.232   5.065  0.00  0.00    +0.046 A 
ATOM     29  C   UNL     1       1.853   3.108   5.971  0.00  0.00    +0.041 A 
ATOM     30  C   UNL     1       0.696   3.484   5.396  0.00  0.00    +0.195 A 
ATOM     31  O   UNL     1       0.606   2.890   4.195  0.00  0.00    -0.466 OA
ENDBRANCH  26  27
ENDBRANCH  16  26
ENDBRANCH  15  17
ENDBRANCH   1  15
BRANCH   1  32
ATOM     32  C   UNL     1       4.892  -2.876   3.624  0.00  0.00    +0.136 C 
BRANCH  32  33
ATOM     33  C   UNL     1       6.369  -2.482   3.557  0.00  0.00    +0.178 C 
BRANCH  33  34
ATOM     34  O   UNL     1       6.963  -2.636   4.847  0.00  0.00    -0.381 OA
ATOM     35  C   UNL     1       8.349  -2.293   4.894  0.00  0.00    +0.194 C 
ENDBRANCH  33  34
ENDBRANCH  32  33
ENDBRANCH   1  32
TORSDOF 12
