REMARK  Name = ZINC09052735
REMARK  7 active torsions:
REMARK  status: ('A' for Active; 'I' for Inactive)
REMARK    1  A    between atoms: C_1  and  C_2
REMARK    2  A    between atoms: C_2  and  C_4
REMARK    3  A    between atoms: C_2  and  C_19
REMARK    4  A    between atoms: N_21  and  CA_22
REMARK    5  A    between atoms: CA_22  and  C_24
REMARK    6  A    between atoms: CA_22  and  C_26
REMARK    7  A    between atoms: C_24  and  O_25
REMARK                            x       y       z     vdW  Elec       q    Type
REMARK                         _______ _______ _______ _____ _____    ______ ____
ROOT
ATOM      1  C   UNL     1      -0.013   1.086   0.008  0.00  0.00    +0.022 C 
ATOM      2  C   UNL     1      -0.729   1.579   1.267  0.00  0.00    +0.102 C 
ENDROOT
BRANCH   2   3
ATOM      3  C   UNL     1       0.000   1.080   2.488  0.00  0.00    -0.034 A 
ATOM      4  C   UNL     1       1.327   1.431   2.688  0.00  0.00    +0.005 A 
ATOM      5  C   UNL     1       2.002   0.984   3.803  0.00  0.00    +0.011 A 
ATOM      6  C   UNL     1       1.351   0.169   4.726  0.00  0.00    +0.007 A 
ATOM      7  C   UNL     1       1.770  -0.470   5.987  0.00  0.00    +0.009 A 
ATOM      8  C   UNL     1       2.965  -0.484   6.703  0.00  0.00    +0.030 A 
ATOM      9  C   UNL     1       3.048  -1.194   7.882  0.00  0.00    +0.042 A 
ATOM     10  C   UNL     1       1.946  -1.893   8.356  0.00  0.00    +0.022 A 
ATOM     11  C   UNL     1       0.759  -1.886   7.656  0.00  0.00    +0.027 A 
ATOM     12  C   UNL     1       0.656  -1.176   6.464  0.00  0.00    +0.048 A 
ATOM     13  N   UNL     1      -0.389  -0.997   5.574  0.00  0.00    -0.354 N 
ATOM     14  H   UNL     1      -1.274  -1.381   5.673  0.00  0.00    +0.166 HD
ATOM     15  C   UNL     1       0.011  -0.192   4.522  0.00  0.00    +0.048 A 
ATOM     16  C   UNL     1      -0.656   0.274   3.393  0.00  0.00    +0.030 A 
ATOM     17 CL   UNL     1       4.535  -1.214   8.777  0.00  0.00    -0.084 Cl
ENDBRANCH   2   3
BRANCH   2  18
ATOM     18  C   UNL     1      -0.749   3.086   1.275  0.00  0.00    +0.221 C 
ATOM     19  O   UNL     1      -0.224   3.695   2.183  0.00  0.00    -0.275 OA
ATOM     20  N   UNL     1      -1.352   3.757   0.274  0.00  0.00    -0.306 N 
ATOM     21  H   UNL     1      -1.772   3.271  -0.453  0.00  0.00    +0.149 HD
BRANCH  20  22
ATOM     22  CA  UNL     1      -1.371   5.222   0.282  0.00  0.00    +0.128 C 
BRANCH  22  23
ATOM     23  C   UNL     1      -1.516   5.730  -1.130  0.00  0.00    -0.025 A 
ATOM     24  C   UNL     1      -2.361   5.086  -2.013  0.00  0.00    +0.005 A 
ATOM     25  C   UNL     1      -2.497   5.555  -3.307  0.00  0.00    +0.000 A 
ATOM     26  C   UNL     1      -1.780   6.662  -3.719  0.00  0.00    +0.000 A 
ATOM     27  C   UNL     1      -0.930   7.304  -2.837  0.00  0.00    +0.000 A 
ATOM     28  C   UNL     1      -0.798   6.838  -1.542  0.00  0.00    +0.005 A 
ENDBRANCH  22  23
BRANCH  22  29
ATOM     29  C   UNL     1      -2.552   5.712   1.123  0.00  0.00    +0.182 C 
BRANCH  29  30
ATOM     30  O   UNL     1      -3.776   5.320   0.499  0.00  0.00    -0.393 OA
ATOM     31  H   UNL     1      -4.569   5.598   0.979  0.00  0.00    +0.209 HD
ENDBRANCH  29  30
ENDBRANCH  22  29
ENDBRANCH  20  22
ENDBRANCH   2  18
TORSDOF 6
