REMARK  Name = ZINC41004962
REMARK  12 active torsions:
REMARK  status: ('A' for Active; 'I' for Inactive)
REMARK    1  A    between atoms: C_1  and  C_2
REMARK    2  A    between atoms: C_2  and  O_3
REMARK    3  A    between atoms: O_3  and  C_4
REMARK    4  A    between atoms: C_6  and  C_19
REMARK    5  A    between atoms: C_9  and  O_10
REMARK    6  A    between atoms: O_10  and  C_11
REMARK    7  A    between atoms: C_11  and  C_12
REMARK    8  A    between atoms: C_21  and  C_33
REMARK    9  A    between atoms: C_22  and  C_32
REMARK   10  A    between atoms: C_27  and  S_29
REMARK   11  A    between atoms: S_29  and  C_30
REMARK   12  A    between atoms: C_30  and  C_31
REMARK                            x       y       z     vdW  Elec       q    Type
REMARK                         _______ _______ _______ _____ _____    ______ ____
ROOT
ATOM      1  C   UNL     1       0.565  -4.940  -0.045  0.00  0.00    +0.177 C 
ATOM      2  C   UNL     1       0.433  -5.769   1.205  0.00  0.00    +0.060 C 
ATOM      3  C   UNL     1       0.244  -7.097   1.187  0.00  0.00    +0.018 C 
ATOM      4  N   UNL     1       0.168  -7.809   0.015  0.00  0.00    -0.287 N 
ATOM      5  C   UNL     1       0.553  -7.162  -1.152  0.00  0.00    +0.219 A 
ATOM      6  N   UNL     1       0.747  -5.821  -1.195  0.00  0.00    -0.220 N 
ATOM      7  N   UNL     1       1.130  -5.515  -2.501  0.00  0.00    -0.141 NA
ATOM      8  C   UNL     1       1.143  -6.649  -3.167  0.00  0.00    +0.210 A 
ATOM      9  N   UNL     1       0.791  -7.646  -2.341  0.00  0.00    -0.187 NA
ATOM     10  C   UNL     1       0.112  -7.832   2.496  0.00  0.00    +0.061 C 
ATOM     11  H   UNL     1      -0.143  -8.727   0.003  0.00  0.00    +0.155 HD
ENDROOT
BRANCH   1  14
ATOM     12  C   UNL     1      -1.747  -1.979  -0.444  0.00  0.00    +0.162 A 
ATOM     13  C   UNL     1      -0.601  -2.738  -0.269  0.00  0.00    +0.055 A 
ATOM     14  C   UNL     1      -0.683  -4.117  -0.235  0.00  0.00    -0.015 A 
ATOM     15  C   UNL     1      -1.908  -4.743  -0.376  0.00  0.00    +0.010 A 
ATOM     16  C   UNL     1      -3.055  -3.992  -0.551  0.00  0.00    +0.050 A 
ATOM     17  C   UNL     1      -2.980  -2.609  -0.580  0.00  0.00    +0.162 A 
BRANCH  12  18
ATOM     18  O   UNL     1      -1.668  -0.622  -0.477  0.00  0.00    -0.489 OA
BRANCH  18  20
ATOM     19  C   UNL     1      -0.479   1.481  -0.393  0.00  0.00    +0.048 C 
ATOM     20  C   UNL     1      -0.369  -0.044  -0.331  0.00  0.00    +0.226 C 
ENDBRANCH  18  20
ENDBRANCH  12  18
BRANCH  17  21
ATOM     21  O   UNL     1      -4.109  -1.869  -0.746  0.00  0.00    -0.484 OA
BRANCH  21  22
ATOM     22  C   UNL     1      -5.340  -2.583  -0.879  0.00  0.00    +0.264 C 
BRANCH  22  23
ATOM     23  C   UNL     1      -6.472  -1.604  -1.053  0.00  0.00    -0.010 A 
ATOM     24  C   UNL     1      -7.138  -1.113   0.055  0.00  0.00    +0.008 A 
ATOM     25  C   UNL     1      -8.177  -0.216  -0.104  0.00  0.00    +0.020 A 
ATOM     26  C   UNL     1      -8.550   0.192  -1.373  0.00  0.00    +0.041 A 
ATOM     27  C   UNL     1      -7.884  -0.300  -2.481  0.00  0.00    +0.020 A 
ATOM     28  C   UNL     1      -6.841  -1.193  -2.320  0.00  0.00    +0.008 A 
ATOM     29 CL   UNL     1      -9.855   1.319  -1.574  0.00  0.00    -0.084 Cl
ENDBRANCH  22  23
ENDBRANCH  21  22
ENDBRANCH  17  21
ENDBRANCH   1  14
BRANCH   2  30
ATOM     30  C   UNL     1       0.513  -5.117   2.458  0.00  0.00    +0.241 C 
ATOM     31  O   UNL     1       1.589  -4.728   2.876  0.00  0.00    -0.271 OA
ATOM     32  N   UNL     1      -0.603  -4.925   3.190  0.00  0.00    -0.325 N 
ATOM     33  H   UNL     1      -1.460  -5.235   2.858  0.00  0.00    +0.145 HD
ATOM     34  H   UNL     1      -0.549  -4.478   4.049  0.00  0.00    +0.145 HD
ENDBRANCH   2  30
BRANCH   8  35
ATOM     35  S   UNL     1       1.558  -6.830  -4.870  0.00  0.00    -0.085 S 
BRANCH  35  36
ATOM     36  C   UNL     1       1.388  -8.610  -5.176  0.00  0.00    +0.074 C 
ATOM     37  C   UNL     1       1.724  -8.911  -6.638  0.00  0.00    +0.016 C 
ENDBRANCH  35  36
ENDBRANCH   8  35
TORSDOF 9
