REMARK  Name = ZINC33581813
REMARK  7 active torsions:
REMARK  status: ('A' for Active; 'I' for Inactive)
REMARK    1  A    between atoms: C_1  and  O_2
REMARK    2  A    between atoms: O_2  and  C_3
REMARK    3  A    between atoms: C_6  and  C_9
REMARK    4  A    between atoms: N_13  and  C_17
REMARK    5  A    between atoms: C_17  and  C_18
REMARK    6  A    between atoms: C_18  and  C_19
REMARK    7  A    between atoms: N_21  and  C_22
REMARK                            x       y       z     vdW  Elec       q    Type
REMARK                         _______ _______ _______ _____ _____    ______ ____
ROOT
ATOM      1  C   UNL     1      -4.760  -2.447   0.253  0.00  0.00    +0.028 C 
ATOM      2  C   UNL     1      -4.829  -3.791   0.074  0.00  0.00    +0.077 C 
ATOM      3  C   UNL     1      -3.745  -4.794   0.041  0.00  0.00    +0.258 C 
ATOM      4  O   UNL     1      -2.578  -4.479   0.185  0.00  0.00    -0.269 OA
ATOM      5  N   UNL     1      -4.107  -6.051  -0.151  0.00  0.00    -0.255 N 
ATOM      6  C   UNL     1      -5.401  -6.396  -0.309  0.00  0.00    +0.121 C 
ATOM      7  S   UNL     1      -6.062  -7.954  -0.566  0.00  0.00    -0.027 S 
ATOM      8  S   UNL     1      -6.258  -4.835  -0.178  0.00  0.00    -0.061 S 
ENDROOT
BRANCH   1  12
ATOM      9  C   UNL     1      -0.989  -0.508   0.303  0.00  0.00    +0.120 A 
ATOM     10  C   UNL     1      -2.004  -0.071   1.147  0.00  0.00    +0.046 A 
ATOM     11  C   UNL     1      -3.230  -0.697   1.135  0.00  0.00    +0.011 A 
ATOM     12  C   UNL     1      -3.454  -1.776   0.270  0.00  0.00    -0.024 A 
ATOM     13  C   UNL     1      -2.428  -2.211  -0.579  0.00  0.00    +0.011 A 
ATOM     14  C   UNL     1      -1.208  -1.575  -0.561  0.00  0.00    +0.046 A 
BRANCH   9  16
ATOM     15  C   UNL     1       0.376   1.201   1.231  0.00  0.00    +0.277 C 
ATOM     16  O   UNL     1       0.218   0.113   0.319  0.00  0.00    -0.495 OA
ENDBRANCH   9  16
ENDBRANCH   1  12
BRANCH   5  17
ATOM     17  C   UNL     1      -3.078  -7.093  -0.194  0.00  0.00    +0.124 C 
BRANCH  17  18
ATOM     18  C   UNL     1      -2.845  -7.638   1.216  0.00  0.00    +0.115 C 
BRANCH  18  19
ATOM     19  C   UNL     1      -1.786  -8.710   1.172  0.00  0.00    +0.219 C 
ATOM     20  O   UNL     1      -1.269  -9.009   0.116  0.00  0.00    -0.275 OA
ATOM     21  N   UNL     1      -1.414  -9.337   2.305  0.00  0.00    -0.284 N 
ATOM     22  H   UNL     1      -1.886  -9.161   3.134  0.00  0.00    +0.155 HD
BRANCH  21  23
ATOM     23  C   UNL     1      -0.351 -10.239   2.287  0.00  0.00    +0.065 A 
ATOM     24  C   UNL     1       0.573 -10.200   1.287  0.00  0.00    +0.026 A 
ATOM     25  C   UNL     1       1.647 -11.092   1.244  0.00  0.00    +0.004 A 
ATOM     26  C   UNL     1       1.840 -12.045   2.184  0.00  0.00    +0.033 A 
ATOM     27  C   UNL     1       0.937 -12.175   3.269  0.00  0.00    +0.136 A 
ATOM     28  C   UNL     1      -0.205 -11.244   3.347  0.00  0.00    +0.155 A 
ATOM     29  N   UNL     1      -0.898 -11.534   4.420  0.00  0.00    -0.047 NA
ATOM     30  O   UNL     1      -0.262 -12.622   5.069  0.00  0.00    -0.242 OA
ATOM     31  N   UNL     1       0.873 -12.983   4.302  0.00  0.00    -0.049 NA
ENDBRANCH  21  23
ENDBRANCH  18  19
ENDBRANCH  17  18
ENDBRANCH   5  17
TORSDOF 6
