REMARK  Name = ZINC14273355
REMARK  4 active torsions:
REMARK  status: ('A' for Active; 'I' for Inactive)
REMARK    1  A    between atoms: C_3  and  C_9
REMARK    2  A    between atoms: C_12  and  C_14
REMARK    3  A    between atoms: N_16  and  C_17
REMARK    4  A    between atoms: C_18  and  C_27
REMARK                            x       y       z     vdW  Elec       q    Type
REMARK                         _______ _______ _______ _____ _____    ______ ____
ROOT
ATOM      1  C   UNL     1      -4.637   2.811  -1.193  0.00  0.00    +0.284 C 
ATOM      2  O   UNL     1      -5.472   3.619  -0.831  0.00  0.00    -0.266 OA
ATOM      3  N   UNL     1      -4.905   1.979  -2.219  0.00  0.00    -0.273 N 
ATOM      4  H   UNL     1      -4.240   1.334  -2.508  0.00  0.00    +0.156 HD
ENDROOT
BRANCH   3   5
ATOM      5  C   UNL     1      -6.130   2.045  -2.862  0.00  0.00    +0.085 A 
ATOM      6  C   UNL     1      -6.585   1.286  -3.930  0.00  0.00    +0.068 A 
ATOM      7  C   UNL     1      -7.930   1.548  -4.423  0.00  0.00    -0.023 A 
ATOM      8  C   UNL     1      -8.589   2.535  -3.780  0.00  0.00    -0.004 A 
ATOM      9  S   UNL     1      -7.463   3.100  -2.534  0.00  0.00    -0.077 S 
ATOM     10  C   UNL     1      -9.964   3.054  -4.065  0.00  0.00    +0.043 C 
ATOM     11  C   UNL     1     -10.937   1.872  -4.184  0.00  0.00    +0.005 C 
ATOM     12  C   UNL     1     -10.966   1.417  -5.639  0.00  0.00    +0.001 C 
ATOM     13  C   UNL     1      -9.595   1.620  -6.282  0.00  0.00    +0.005 C 
ATOM     14  C   UNL     1      -8.546   0.767  -5.577  0.00  0.00    +0.037 C 
BRANCH   6  15
ATOM     15  C   UNL     1      -5.742   0.253  -4.539  0.00  0.00    +0.244 C 
ATOM     16  O   UNL     1      -5.781  -0.889  -4.120  0.00  0.00    -0.270 OA
ATOM     17  N   UNL     1      -4.924   0.567  -5.563  0.00  0.00    -0.325 N 
ATOM     18  H   UNL     1      -4.893   1.477  -5.897  0.00  0.00    +0.145 HD
ATOM     19  H   UNL     1      -4.366  -0.117  -5.966  0.00  0.00    +0.145 HD
ENDBRANCH   6  15
ENDBRANCH   3   5
BRANCH   1  23
ATOM     20  C   UNL     1      -1.304   2.118   0.020  0.00  0.00    +0.137 A 
ATOM     21  C   UNL     1      -1.643   3.125   0.877  0.00  0.00    +0.051 A 
ATOM     22  C   UNL     1      -2.941   3.528   0.545  0.00  0.00    +0.055 A 
ATOM     23  C   UNL     1      -3.342   2.741  -0.513  0.00  0.00    +0.190 A 
ATOM     24  O   UNL     1      -2.332   1.899  -0.817  0.00  0.00    -0.450 OA
BRANCH  20  27
ATOM     25  C   UNL     1       2.385   1.420  -0.013  0.00  0.00    +0.021 A 
ATOM     26  C   UNL     1       1.186   2.102   0.002  0.00  0.00    +0.014 A 
ATOM     27  C   UNL     1      -0.017   1.394   0.010  0.00  0.00    +0.036 A 
ATOM     28  C   UNL     1       0.002  -0.004   0.002  0.00  0.00    +0.053 A 
ATOM     29  C   UNL     1       1.209  -0.674  -0.013  0.00  0.00    +0.040 A 
ATOM     30  C   UNL     1       2.398   0.035  -0.021  0.00  0.00    +0.042 A 
ATOM     31 CL   UNL     1       3.911  -0.815  -0.039  0.00  0.00    -0.083 Cl
ATOM     32 CL   UNL     1      -1.488  -0.895   0.011  0.00  0.00    -0.083 Cl
ENDBRANCH  20  27
ENDBRANCH   1  23
TORSDOF 4
