REMARK  Name = ZINC11963972
REMARK  11 active torsions:
REMARK  status: ('A' for Active; 'I' for Inactive)
REMARK    1  A    between atoms: C_1  and  C_2
REMARK    2  A    between atoms: C_2  and  C_3
REMARK    3  A    between atoms: C_2  and  C_4
REMARK    4  A    between atoms: C_2  and  O_33
REMARK    5  A    between atoms: C_5  and  C_6
REMARK    6  A    between atoms: C_9  and  C_12
REMARK    7  A    between atoms: C_12  and  N_67
REMARK    8  A    between atoms: C_18  and  C_21
REMARK    9  A    between atoms: C_21  and  N_22
REMARK   10  A    between atoms: C_23  and  C_25
REMARK   11  A    between atoms: N_28  and  C_30
REMARK                            x       y       z     vdW  Elec       q    Type
REMARK                         _______ _______ _______ _____ _____    ______ ____
ROOT
ATOM      1  C   UNL     1      -3.790   6.086   1.687  0.00  0.00    -0.076 C 
ATOM      2  C   UNL     1      -3.106   7.189   0.875  0.00  0.00    +0.016 C 
ATOM      3  C   UNL     1      -1.710   7.442   1.445  0.00  0.00    +0.067 C 
ATOM      4  C   UNL     1      -1.035   8.589   0.673  0.00  0.00    +0.037 C 
ATOM      5  C   UNL     1       0.207   7.928   0.026  0.00  0.00    +0.036 C 
ATOM      6  C   UNL     1      -0.182   6.427   0.036  0.00  0.00    +0.136 C 
ATOM      7  O   UNL     1      -0.897   6.272   1.282  0.00  0.00    -0.369 OA
ATOM      8  C   UNL     1      -1.810   7.805   2.926  0.00  0.00    +0.016 C 
ATOM      9  C   UNL     1      -2.535   6.683   3.674  0.00  0.00    -0.076 C 
ATOM     10  N   UNL     1      -3.887   6.519   3.098  0.00  0.00    +0.383 N 
ATOM     11  H   UNL     1      -4.377   7.421   3.136  0.00  0.00    -0.081 HD
ENDROOT
BRANCH  10  12
ATOM     12  C   UNL     1      -4.652   5.525   3.879  0.00  0.00    -0.043 C 
BRANCH  12  16
ATOM     13  C   UNL     1      -4.252   6.408   8.043  0.00  0.00    +0.025 A 
ATOM     14  C   UNL     1      -5.280   6.989   7.299  0.00  0.00    +0.017 A 
ATOM     15  C   UNL     1      -5.403   6.700   5.956  0.00  0.00    +0.003 A 
ATOM     16  C   UNL     1      -4.511   5.836   5.346  0.00  0.00    -0.064 A 
ATOM     17  C   UNL     1      -3.493   5.253   6.080  0.00  0.00    +0.003 A 
ATOM     18  C   UNL     1      -3.355   5.538   7.423  0.00  0.00    +0.017 A 
BRANCH  13  20
ATOM     19  C   UNL     1      -4.009   6.945  10.582  0.00  0.00    -0.063 C 
ATOM     20  C   UNL     1      -4.119   6.703   9.438  0.00  0.00    -0.063 C 
BRANCH  19  22
ATOM     21  C   UNL     1      -2.674   6.487  12.586  0.00  0.00    +0.055 C 
ATOM     22  C   UNL     1      -3.872   7.249  12.016  0.00  0.00    +0.121 C 
ATOM     23  C   UNL     1      -3.655   8.752  12.200  0.00  0.00    +0.055 C 
BRANCH  22  24
ATOM     24  O   UNL     1      -5.060   6.851  12.703  0.00  0.00    -0.377 OA
ATOM     25  H   UNL     1      -5.861   7.295  12.392  0.00  0.00    +0.211 HD
ENDBRANCH  22  24
ENDBRANCH  19  22
ENDBRANCH  13  20
ENDBRANCH  12  16
ENDBRANCH  10  12
BRANCH   6  26
ATOM     26  C   UNL     1       1.069   5.546   0.020  0.00  0.00    +0.136 C 
BRANCH  26  27
ATOM     27  N   UNL     1       0.673   4.136   0.017  0.00  0.00    -0.308 N 
ATOM     28  C   UNL     1       1.615   3.172   0.003  0.00  0.00    +0.264 C 
ATOM     29  O   UNL     1       2.793   3.473  -0.007  0.00  0.00    -0.268 OA
ATOM     30  H   UNL     1      -0.266   3.896   0.025  0.00  0.00    +0.149 HD
BRANCH  28  31
ATOM     31  C   UNL     1       1.216   1.750  -0.000  0.00  0.00    +0.147 A 
ATOM     32  C   UNL     1       2.084   0.632  -0.014  0.00  0.00    +0.054 A 
ATOM     33  C   UNL     1       1.275  -0.454  -0.013  0.00  0.00    +0.109 A 
ATOM     34  N   UNL     1       0.002  -0.004   0.002  0.00  0.00    -0.274 N 
ATOM     35  N   UNL     1      -0.015   1.280   0.009  0.00  0.00    -0.167 NA
ATOM     36  C   UNL     1      -1.188  -0.858   0.008  0.00  0.00    +0.172 C 
ENDBRANCH  28  31
ENDBRANCH  26  27
ENDBRANCH   6  26
TORSDOF 8
