REMARK  Name = ZINC25571678
REMARK  5 active torsions:
REMARK  status: ('A' for Active; 'I' for Inactive)
REMARK    1  A    between atoms: C_1  and  C_2
REMARK    2  A    between atoms: C_2  and  C_4
REMARK    3  A    between atoms: C_2  and  N_11
REMARK    4  A    between atoms: N_22  and  C_24
REMARK    5  A    between atoms: C_24  and  C_25
REMARK                            x       y       z     vdW  Elec       q    Type
REMARK                         _______ _______ _______ _____ _____    ______ ____
ROOT
ATOM      1  N   UNL     1      -0.029   1.464   0.017  0.00  0.00    -0.262 NA
ATOM      2  C   UNL     1       1.334   2.023  -0.060  0.00  0.00    +0.214 C 
ATOM      3  N   UNL     1       1.212   3.473  -0.249  0.00  0.00    -0.300 N 
ATOM      4  C   UNL     1       2.164   4.443  -0.105  0.00  0.00    +0.069 A 
ATOM      5  C   UNL     1       3.507   4.403   0.248  0.00  0.00    +0.028 A 
ATOM      6  C   UNL     1       4.183   5.612   0.295  0.00  0.00    +0.002 A 
ATOM      7  C   UNL     1       3.560   6.813   0.004  0.00  0.00    +0.002 A 
ATOM      8  C   UNL     1       2.224   6.879  -0.350  0.00  0.00    +0.028 A 
ATOM      9  C   UNL     1       1.521   5.670  -0.404  0.00  0.00    +0.066 A 
ATOM     10  N   UNL     1       0.239   5.388  -0.708  0.00  0.00    -0.327 N 
ATOM     11  C   UNL     1       0.044   4.094  -0.622  0.00  0.00    +0.179 A 
ATOM     12  N   UNL     1      -1.136   3.414  -0.860  0.00  0.00    -0.285 N 
ATOM     13  C   UNL     1      -0.865   1.984  -1.076  0.00  0.00    +0.197 C 
ATOM     14  H   UNL     1      -0.454   6.199  -0.975  0.00  0.00    +0.169 HD
ENDROOT
BRANCH   1  16
ATOM     15  C   UNL     1       0.749  -0.486  -1.244  0.00  0.00    +0.029 C 
ATOM     16  C   UNL     1       0.002  -0.004   0.002  0.00  0.00    +0.087 C 
BRANCH  16  17
ATOM     17  C   UNL     1       0.709  -0.504   1.236  0.00  0.00    -0.030 A 
ATOM     18  C   UNL     1       1.559  -1.590   1.153  0.00  0.00    +0.008 A 
ATOM     19  C   UNL     1       2.211  -2.046   2.283  0.00  0.00    +0.038 A 
ATOM     20  C   UNL     1       2.004  -1.421   3.500  0.00  0.00    +0.123 A 
ATOM     21  C   UNL     1       1.148  -0.336   3.584  0.00  0.00    +0.038 A 
ATOM     22  C   UNL     1       0.501   0.122   2.451  0.00  0.00    +0.008 A 
ATOM     23  F   UNL     1       2.637  -1.869   4.606  0.00  0.00    -0.205 F 
ENDBRANCH  16  17
ENDBRANCH   1  16
BRANCH  12  24
ATOM     24  C   UNL     1      -1.855   3.992  -2.003  0.00  0.00    +0.144 C 
BRANCH  24  25
ATOM     25  C   UNL     1      -2.309   5.387  -1.658  0.00  0.00    -0.030 A 
ATOM     26  C   UNL     1      -3.549   5.587  -1.080  0.00  0.00    +0.005 A 
ATOM     27  C   UNL     1      -3.963   6.866  -0.759  0.00  0.00    +0.000 A 
ATOM     28  C   UNL     1      -3.142   7.946  -1.026  0.00  0.00    +0.000 A 
ATOM     29  C   UNL     1      -1.905   7.746  -1.609  0.00  0.00    +0.000 A 
ATOM     30  C   UNL     1      -1.488   6.467  -1.925  0.00  0.00    +0.005 A 
ENDBRANCH  24  25
ENDBRANCH  12  24
TORSDOF 4
