REMARK  Name = ZINC39422220
REMARK  10 active torsions:
REMARK  status: ('A' for Active; 'I' for Inactive)
REMARK    1  A    between atoms: C_1  and  C_2
REMARK    2  A    between atoms: C_5  and  O_27
REMARK    3  A    between atoms: C_6  and  C_8
REMARK    4  A    between atoms: C_8  and  C_10
REMARK    5  A    between atoms: C_8  and  C_19
REMARK    6  A    between atoms: C_13  and  O_18
REMARK    7  A    between atoms: C_14  and  O_16
REMARK    8  A    between atoms: O_16  and  C_17
REMARK    9  A    between atoms: C_20  and  C_26
REMARK   10  A    between atoms: C_23  and  O_25
REMARK                            x       y       z     vdW  Elec       q    Type
REMARK                         _______ _______ _______ _____ _____    ______ ____
ROOT
ATOM      1  C   UNL     1      -0.040  -0.332  -2.528  0.00  0.00    +0.088 C 
ENDROOT
BRANCH   1   7
ATOM      2  C   UNL     1       2.356  -1.485  -0.882  0.00  0.00    +0.065 C 
ATOM      3  C   UNL     1       0.917  -1.433  -0.437  0.00  0.00    +0.041 A 
ATOM      4  N   UNL     1       0.435  -1.870   0.745  0.00  0.00    -0.278 N 
ATOM      5  N   UNL     1      -0.947  -1.639   0.761  0.00  0.00    -0.136 NA
ATOM      6  C   UNL     1      -1.281  -1.080  -0.376  0.00  0.00    +0.236 A 
ATOM      7  C   UNL     1      -0.119  -0.934  -1.149  0.00  0.00    +0.047 A 
ATOM      8  H   UNL     1       0.954  -2.274   1.458  0.00  0.00    +0.189 HD
BRANCH   6  10
ATOM      9  H   UNL     1      -2.789   0.176  -0.429  0.00  0.00    +0.294 HD
ATOM     10  O   UNL     1      -2.535  -0.702  -0.742  0.00  0.00    -0.491 OA
ENDBRANCH   6  10
ENDBRANCH   1   7
BRANCH   1  11
ATOM     11  C   UNL     1       1.000  -1.065  -3.337  0.00  0.00    -0.032 A 
ATOM     12  C   UNL     1       0.925  -2.438  -3.474  0.00  0.00    +0.008 A 
ATOM     13  C   UNL     1       1.877  -3.115  -4.215  0.00  0.00    +0.049 A 
ATOM     14  C   UNL     1       2.907  -2.415  -4.822  0.00  0.00    +0.158 A 
ATOM     15  C   UNL     1       2.981  -1.033  -4.685  0.00  0.00    +0.162 A 
ATOM     16  C   UNL     1       2.022  -0.360  -3.945  0.00  0.00    +0.054 A 
BRANCH  15  17
ATOM     17  O   UNL     1       3.991  -0.342  -5.280  0.00  0.00    -0.491 OA
ATOM     18  C   UNL     1       4.004   1.075  -5.096  0.00  0.00    +0.277 C 
ENDBRANCH  15  17
BRANCH  14  19
ATOM     19  O   UNL     1       3.844  -3.079  -5.551  0.00  0.00    -0.503 OA
ATOM     20  H   UNL     1       3.620  -3.173  -6.487  0.00  0.00    +0.292 HD
ENDBRANCH  14  19
ENDBRANCH   1  11
BRANCH   1  21
ATOM     21  C   UNL     1      -1.381  -0.453  -3.206  0.00  0.00    +0.017 C 
ATOM     22  C   UNL     1      -2.216   0.528  -3.556  0.00  0.00    +0.065 C 
ATOM     23  N   UNL     1      -3.325   0.026  -4.144  0.00  0.00    -0.156 NA
ATOM     24  N   UNL     1      -3.343  -1.203  -4.239  0.00  0.00    -0.151 NA
ATOM     25  C   UNL     1      -2.091  -1.717  -3.656  0.00  0.00    +0.284 C 
ATOM     26  C   UNL     1      -1.959   1.994  -3.326  0.00  0.00    +0.067 C 
BRANCH  25  27
ATOM     27  O   UNL     1      -2.367  -2.566  -2.541  0.00  0.00    -0.366 OA
ATOM     28  H   UNL     1      -2.750  -3.420  -2.782  0.00  0.00    +0.212 HD
ENDBRANCH  25  27
ENDBRANCH   1  21
TORSDOF 7
