REMARK  Name = ZINC07989760
REMARK  6 active torsions:
REMARK  status: ('A' for Active; 'I' for Inactive)
REMARK    1  A    between atoms: C_11  and  C_13
REMARK    2  A    between atoms: C_13  and  C_14
REMARK    3  A    between atoms: C_14  and  C_15
REMARK    4  A    between atoms: N_17  and  C_18
REMARK    5  A    between atoms: N_22  and  C_23
REMARK    6  A    between atoms: C_23  and  C_24
REMARK                            x       y       z     vdW  Elec       q    Type
REMARK                         _______ _______ _______ _____ _____    ______ ____
ROOT
ATOM      1  C   UNL     1       0.002  -0.004   0.002  0.00  0.00    +0.219 C 
ATOM      2  O   UNL     1       1.061  -0.596  -0.011  0.00  0.00    -0.275 OA
ATOM      3  N   UNL     1      -0.016   1.344   0.009  0.00  0.00    -0.271 N 
ATOM      4  H   UNL     1      -0.863   1.817   0.016  0.00  0.00    +0.156 HD
ENDROOT
BRANCH   3   5
ATOM      5  C   UNL     1       1.182   2.057   0.002  0.00  0.00    +0.123 A 
ATOM      6  C   UNL     1       2.435   1.525  -0.013  0.00  0.00    +0.065 A 
ATOM      7  C   UNL     1       3.349   2.583  -0.017  0.00  0.00    +0.136 A 
ATOM      8  N   UNL     1       2.678   3.706  -0.005  0.00  0.00    -0.178 NA
ATOM      9  N   UNL     1       1.310   3.404   0.002  0.00  0.00    -0.246 N 
BRANCH   9  10
ATOM     10  C   UNL     1       0.213   4.374   0.011  0.00  0.00    +0.187 C 
BRANCH  10  11
ATOM     11  C   UNL     1      -0.153   4.705   1.435  0.00  0.00    +0.011 A 
ATOM     12  C   UNL     1       0.337   5.682   2.238  0.00  0.00    +0.013 A 
ATOM     13  C   UNL     1      -0.154   5.801   3.524  0.00  0.00    +0.008 A 
ATOM     14  C   UNL     1      -1.110   4.938   3.946  0.00  0.00    +0.045 A 
ATOM     15  S   UNL     1      -1.351   3.918   2.500  0.00  0.00    -0.100 S 
ENDBRANCH  10  11
ENDBRANCH   9  10
ENDBRANCH   3   5
BRANCH   1  16
ATOM     16  C   UNL     1      -1.293  -0.775   0.010  0.00  0.00    +0.104 C 
BRANCH  16  17
ATOM     17  C   UNL     1      -0.993  -2.276  -0.001  0.00  0.00    +0.083 C 
BRANCH  17  28
ATOM     18  C   UNL     1      -7.036  -4.354   0.049  0.00  0.00    +0.001 A 
ATOM     19  C   UNL     1      -7.002  -2.966   0.056  0.00  0.00    +0.002 A 
ATOM     20  C   UNL     1      -5.803  -2.289   0.047  0.00  0.00    +0.028 A 
ATOM     21  C   UNL     1      -4.605  -3.006   0.031  0.00  0.00    +0.078 A 
ATOM     22  C   UNL     1      -4.643  -4.418   0.024  0.00  0.00    +0.065 A 
ATOM     23  C   UNL     1      -5.867  -5.083   0.033  0.00  0.00    +0.015 A 
ATOM     24  C   UNL     1      -3.363  -5.143   0.007  0.00  0.00    +0.259 A 
ATOM     25  O   UNL     1      -3.326  -6.359   0.001  0.00  0.00    -0.267 OA
ATOM     26  N   UNL     1      -2.229  -4.404  -0.000  0.00  0.00    -0.310 N 
ATOM     27  H   UNL     1      -1.340  -4.862  -0.012  0.00  0.00    +0.170 HD
ATOM     28  C   UNL     1      -2.287  -3.047   0.007  0.00  0.00    +0.111 A 
ATOM     29  N   UNL     1      -3.401  -2.380   0.027  0.00  0.00    -0.234 NA
ENDBRANCH  17  28
ENDBRANCH  16  17
ENDBRANCH   1  16
TORSDOF 6
