REMARK  Name = ZINC34900584
REMARK  11 active torsions:
REMARK  status: ('A' for Active; 'I' for Inactive)
REMARK    1  A    between atoms: C_1  and  C_2
REMARK    2  A    between atoms: C_2  and  C_3
REMARK    3  A    between atoms: C_3  and  C_4
REMARK    4  A    between atoms: C_4  and  O_5
REMARK    5  A    between atoms: O_5  and  C_6
REMARK    6  A    between atoms: C_9  and  C_12
REMARK    7  A    between atoms: C_18  and  C_21
REMARK    8  A    between atoms: N_23  and  C_24
REMARK    9  A    between atoms: C_30  and  N_32
REMARK   10  A    between atoms: C_33  and  C_35
REMARK   11  A    between atoms: C_40  and  C_41
REMARK                            x       y       z     vdW  Elec       q    Type
REMARK                         _______ _______ _______ _____ _____    ______ ____
ROOT
ATOM      1  C   UNL     1       1.894 -11.890  -6.229  0.00  0.00    +0.218 C 
ATOM      2  O   UNL     1       2.513 -12.243  -7.210  0.00  0.00    -0.275 OA
ATOM      3  N   UNL     1       1.354 -12.810  -5.405  0.00  0.00    -0.310 N 
ATOM      4  H   UNL     1       0.859 -12.527  -4.620  0.00  0.00    +0.149 HD
ENDROOT
BRANCH   1  11
ATOM      5  C   UNL     1       1.736  -8.143  -3.236  0.00  0.00    +0.247 C 
ATOM      6  O   UNL     1       1.345  -8.888  -2.358  0.00  0.00    -0.270 OA
ATOM      7  N   UNL     1       2.295  -8.650  -4.352  0.00  0.00    -0.297 N 
ATOM      8  C   UNL     1       2.861  -7.762  -5.376  0.00  0.00    +0.108 C 
ATOM      9  C   UNL     1       2.233  -8.107  -6.730  0.00  0.00    +0.020 C 
ATOM     10  C   UNL     1       2.430  -9.599  -7.013  0.00  0.00    +0.016 C 
ATOM     11  C   UNL     1       1.728 -10.422  -5.931  0.00  0.00    +0.092 C 
ATOM     12  C   UNL     1       2.354 -10.103  -4.566  0.00  0.00    +0.120 C 
BRANCH   5  16
ATOM     13  C   UNL     1       1.342  -3.939  -2.782  0.00  0.00    +0.121 A 
ATOM     14  C   UNL     1       2.542  -4.478  -3.229  0.00  0.00    +0.046 A 
ATOM     15  C   UNL     1       2.674  -5.841  -3.377  0.00  0.00    +0.016 A 
ATOM     16  C   UNL     1       1.599  -6.681  -3.077  0.00  0.00    +0.037 A 
ATOM     17  C   UNL     1       0.394  -6.136  -2.628  0.00  0.00    +0.016 A 
ATOM     18  C   UNL     1       0.272  -4.772  -2.477  0.00  0.00    +0.046 A 
BRANCH  13  19
ATOM     19  O   UNL     1       1.216  -2.595  -2.637  0.00  0.00    -0.492 OA
BRANCH  19  20
ATOM     20  C   UNL     1       2.354  -1.798  -2.967  0.00  0.00    +0.229 C 
BRANCH  20  21
ATOM     21  C   UNL     1       2.025  -0.320  -2.743  0.00  0.00    +0.041 C 
BRANCH  21  23
ATOM     22  C   UNL     1       2.914   2.011  -2.872  0.00  0.00    +0.004 C 
ATOM     23  C   UNL     1       3.244   0.534  -3.096  0.00  0.00    -0.000 C 
ENDBRANCH  21  23
ENDBRANCH  20  21
ENDBRANCH  19  20
ENDBRANCH  13  19
ENDBRANCH   5  16
ENDBRANCH   1  11
BRANCH   3  24
ATOM     24  C   UNL     1       1.516 -14.237  -5.694  0.00  0.00    +0.093 C 
ATOM     25  C   UNL     1       0.426 -14.686  -6.670  0.00  0.00    +0.024 C 
ATOM     26  C   UNL     1       0.595 -16.176  -6.972  0.00  0.00    +0.002 C 
ATOM     27  C   UNL     1       0.478 -16.977  -5.673  0.00  0.00    +0.002 C 
ATOM     28  C   UNL     1       1.567 -16.527  -4.698  0.00  0.00    +0.024 C 
ATOM     29  C   UNL     1       1.399 -15.037  -4.396  0.00  0.00    +0.093 C 
BRANCH  29  30
ATOM     30  N   UNL     1       2.442 -14.607  -3.461  0.00  0.00    -0.307 N 
ATOM     31  C   UNL     1       2.265 -14.764  -2.135  0.00  0.00    +0.245 C 
ATOM     32  O   UNL     1       1.240 -15.262  -1.713  0.00  0.00    -0.270 OA
ATOM     33  H   UNL     1       3.260 -14.210  -3.798  0.00  0.00    +0.149 HD
BRANCH  31  34
ATOM     34  C   UNL     1       3.318 -14.330  -1.192  0.00  0.00    +0.040 A 
ATOM     35  C   UNL     1       4.460 -13.683  -1.666  0.00  0.00    +0.013 A 
ATOM     36  C   UNL     1       5.439 -13.280  -0.781  0.00  0.00    +0.001 A 
ATOM     37  C   UNL     1       5.290 -13.517   0.574  0.00  0.00    +0.000 A 
ATOM     38  C   UNL     1       4.161 -14.158   1.051  0.00  0.00    +0.004 A 
ATOM     39  C   UNL     1       3.172 -14.561   0.177  0.00  0.00    -0.038 A 
ATOM     40  C   UNL     1       1.939 -15.254   0.698  0.00  0.00    +0.044 C 
ENDBRANCH  31  34
ENDBRANCH  29  30
ENDBRANCH   3  24
TORSDOF 9
