REMARK  Name = ZINC36497549
REMARK  17 active torsions:
REMARK  status: ('A' for Active; 'I' for Inactive)
REMARK    1  A    between atoms: C_1  and  C_2
REMARK    2  A    between atoms: C_2  and  C_3
REMARK    3  A    between atoms: C_2  and  C_4
REMARK    4  A    between atoms: C_2  and  C_5
REMARK    5  A    between atoms: C_5  and  C_6
REMARK    6  A    between atoms: C_6  and  C_7
REMARK    7  A    between atoms: C_6  and  C_8
REMARK    8  A    between atoms: C_6  and  N_9
REMARK    9  A    between atoms: C_10  and  C_12
REMARK   10  A    between atoms: C_12  and  C_14
REMARK   11  A    between atoms: C_12  and  N_23
REMARK   12  A    between atoms: C_17  and  O_22
REMARK   13  A    between atoms: C_18  and  O_20
REMARK   14  A    between atoms: O_20  and  C_21
REMARK   15  A    between atoms: N_23  and  C_24
REMARK   16  A    between atoms: C_24  and  C_25
REMARK   17  A    between atoms: C_30  and  C_32
REMARK                            x       y       z     vdW  Elec       q    Type
REMARK                         _______ _______ _______ _____ _____    ______ ____
ROOT
ATOM      1  C   UNL     1       5.691  -1.217  -3.469  0.00  0.00    +0.193 C 
ENDROOT
BRANCH   1   2
ATOM      2  C   UNL     1       4.776  -0.708  -4.553  0.00  0.00    -0.015 A 
ATOM      3  C   UNL     1       4.573   0.652  -4.701  0.00  0.00    +0.010 A 
ATOM      4  C   UNL     1       3.735   1.124  -5.694  0.00  0.00    +0.049 A 
ATOM      5  C   UNL     1       3.096   0.235  -6.543  0.00  0.00    +0.158 A 
ATOM      6  C   UNL     1       3.300  -1.134  -6.394  0.00  0.00    +0.162 A 
ATOM      7  C   UNL     1       4.146  -1.600  -5.400  0.00  0.00    +0.055 A 
BRANCH   6   8
ATOM      8  O   UNL     1       2.676  -2.011  -7.224  0.00  0.00    -0.491 OA
ATOM      9  C   UNL     1       2.844  -3.402  -6.944  0.00  0.00    +0.277 C 
ENDBRANCH   6   8
BRANCH   5  10
ATOM     10  O   UNL     1       2.270   0.698  -7.519  0.00  0.00    -0.503 OA
ATOM     11  H   UNL     1       2.715   0.873  -8.360  0.00  0.00    +0.292 HD
ENDBRANCH   5  10
ENDBRANCH   1   2
BRANCH   1  13
ATOM     12  N   UNL     1       3.867  -2.277  -2.178  0.00  0.00    -0.308 N 
ATOM     13  C   UNL     1       4.904  -1.416  -2.200  0.00  0.00    +0.239 C 
ATOM     14  O   UNL     1       5.204  -0.802  -1.198  0.00  0.00    -0.273 OA
ATOM     15  H   UNL     1       3.627  -2.768  -2.979  0.00  0.00    +0.149 HD
BRANCH  12  16
ATOM     16  C   UNL     1       3.102  -2.470  -0.943  0.00  0.00    +0.030 C 
ATOM     17  C   UNL     1       2.659  -1.111  -0.400  0.00  0.00    +0.031 C 
ATOM     18  C   UNL     1       3.978  -3.174   0.095  0.00  0.00    +0.031 C 
BRANCH  16  19
ATOM     19  C   UNL     1       1.869  -3.328  -1.237  0.00  0.00    +0.031 C 
BRANCH  19  21
ATOM     20  C   UNL     1       1.828  -3.049  -3.719  0.00  0.00    +0.010 C 
ATOM     21  C   UNL     1       1.098  -2.728  -2.414  0.00  0.00    -0.036 C 
ATOM     22  C   UNL     1       1.005  -1.210  -2.241  0.00  0.00    +0.010 C 
ATOM     23  C   UNL     1      -0.311  -3.323  -2.457  0.00  0.00    +0.010 C 
ENDBRANCH  19  21
ENDBRANCH  16  19
ENDBRANCH  12  16
ENDBRANCH   1  13
BRANCH   1  24
ATOM     24  N   UNL     1       6.759  -0.242  -3.234  0.00  0.00    -0.275 N 
ATOM     25  C   UNL     1       7.697  -0.029  -4.178  0.00  0.00    +0.248 C 
ATOM     26  O   UNL     1       8.596   0.763  -3.974  0.00  0.00    -0.270 OA
BRANCH  25  27
ATOM     27  C   UNL     1       7.632  -0.758  -5.462  0.00  0.00    +0.037 A 
ATOM     28  C   UNL     1       6.599  -1.667  -5.700  0.00  0.00    +0.014 A 
ATOM     29  C   UNL     1       6.543  -2.343  -6.901  0.00  0.00    +0.021 A 
ATOM     30  C   UNL     1       7.509  -2.123  -7.869  0.00  0.00    +0.041 A 
ATOM     31  C   UNL     1       8.536  -1.223  -7.638  0.00  0.00    +0.021 A 
ATOM     32  C   UNL     1       8.599  -0.536  -6.444  0.00  0.00    +0.014 A 
ATOM     33 CL   UNL     1       7.433  -2.980  -9.377  0.00  0.00    -0.084 Cl
ENDBRANCH  25  27
BRANCH  24  34
ATOM     34  C   UNL     1       6.808   0.500  -1.972  0.00  0.00    +0.183 C 
BRANCH  34  35
ATOM     35  C   UNL     1       7.408  -0.371  -0.899  0.00  0.00    +0.122 A 
ATOM     36  C   UNL     1       8.722  -0.525  -0.654  0.00  0.00    +0.046 A 
ATOM     37  C   UNL     1       8.833  -1.425   0.431  0.00  0.00    +0.041 A 
ATOM     38  C   UNL     1       7.581  -1.768   0.783  0.00  0.00    +0.195 A 
ATOM     39  O   UNL     1       6.722  -1.122  -0.022  0.00  0.00    -0.466 OA
ENDBRANCH  34  35
ENDBRANCH  24  34
ENDBRANCH   1  24
TORSDOF 11
