REMARK  Name = ZINC39674115
REMARK  8 active torsions:
REMARK  status: ('A' for Active; 'I' for Inactive)
REMARK    1  A    between atoms: C_1  and  C_2
REMARK    2  A    between atoms: C_6  and  C_8
REMARK    3  A    between atoms: C_8  and  C_9
REMARK    4  A    between atoms: C_13  and  C_22
REMARK    5  A    between atoms: N_24  and  C_25
REMARK    6  A    between atoms: C_25  and  C_26
REMARK    7  A    between atoms: C_26  and  C_27
REMARK    8  A    between atoms: C_35  and  C_37
REMARK                            x       y       z     vdW  Elec       q    Type
REMARK                         _______ _______ _______ _____ _____    ______ ____
ROOT
ATOM      1  C   UNL     1       1.186  -3.003   3.003  0.00  0.00    +0.220 C 
ATOM      2  O   UNL     1       2.031  -2.528   2.273  0.00  0.00    -0.275 OA
ATOM      3  N   UNL     1       1.554  -3.689   4.103  0.00  0.00    -0.300 N 
ATOM      4  C   UNL     1       0.676  -4.343   5.102  0.00  0.00    +0.121 C 
ATOM      5  C   UNL     1       1.397  -5.665   5.449  0.00  0.00    +0.100 C 
ATOM      6  C   UNL     1       2.875  -5.407   5.111  0.00  0.00    -0.004 C 
ATOM      7  C   UNL     1       2.929  -3.966   4.584  0.00  0.00    +0.115 C 
ATOM      8  C   UNL     1       3.735  -5.545   6.363  0.00  0.00    -0.010 C 
ATOM      9  C   UNL     1       5.207  -5.342   5.991  0.00  0.00    -0.082 C 
ATOM     10  N   UNL     1       5.602  -6.338   4.988  0.00  0.00    +0.379 N 
ATOM     11  C   UNL     1       4.834  -6.139   3.754  0.00  0.00    -0.082 C 
ATOM     12  C   UNL     1       3.347  -6.376   4.032  0.00  0.00    -0.010 C 
ATOM     13  H   UNL     1       6.587  -6.241   4.790  0.00  0.00    -0.086 HD
ATOM     14  H   UNL     1       5.424  -7.264   5.348  0.00  0.00    -0.086 HD
ENDROOT
BRANCH   5  15
ATOM     15  C   UNL     1       0.854  -6.794   4.612  0.00  0.00    +0.218 C 
ATOM     16  O   UNL     1       0.423  -6.572   3.500  0.00  0.00    -0.275 OA
ATOM     17  N   UNL     1       0.847  -8.051   5.098  0.00  0.00    -0.315 N 
ATOM     18  H   UNL     1       1.192  -8.229   5.987  0.00  0.00    +0.149 HD
BRANCH  17  19
ATOM     19  C   UNL     1       0.320  -9.149   4.284  0.00  0.00    +0.109 C 
BRANCH  19  20
ATOM     20  C   UNL     1       0.428 -10.460   5.065  0.00  0.00    +0.056 C 
BRANCH  20  21
ATOM     21  C   UNL     1      -0.115 -11.589   4.227  0.00  0.00    -0.018 A 
ATOM     22  C   UNL     1       0.643 -12.423   3.291  0.00  0.00    +0.003 A 
ATOM     23  C   UNL     1       1.980 -12.462   2.891  0.00  0.00    +0.010 A 
ATOM     24  C   UNL     1       2.386 -13.388   1.972  0.00  0.00    +0.001 A 
ATOM     25  C   UNL     1       1.479 -14.290   1.432  0.00  0.00    +0.002 A 
ATOM     26  C   UNL     1       0.155 -14.269   1.813  0.00  0.00    +0.026 A 
ATOM     27  C   UNL     1      -0.280 -13.335   2.748  0.00  0.00    +0.047 A 
ATOM     28  N   UNL     1      -1.503 -13.065   3.319  0.00  0.00    -0.358 N 
ATOM     29  C   UNL     1      -1.384 -12.026   4.202  0.00  0.00    +0.017 A 
ATOM     30  H   UNL     1      -2.325 -13.542   3.127  0.00  0.00    +0.166 HD
ATOM     31  C   UNL     1      -2.513 -11.454   5.021  0.00  0.00    +0.063 C 
ENDBRANCH  20  21
ENDBRANCH  19  20
ENDBRANCH  17  19
ENDBRANCH   5  15
BRANCH   1  32
ATOM     32  C   UNL     1      -0.275  -2.827   2.678  0.00  0.00    +0.131 C 
BRANCH  32  38
ATOM     33  C   UNL     1      -0.721   1.584   0.357  0.00  0.00    +0.044 C 
ATOM     34  C   UNL     1      -0.629   0.081   0.297  0.00  0.00    -0.050 A 
ATOM     35  C   UNL     1      -0.673  -0.566  -0.924  0.00  0.00    +0.003 A 
ATOM     36  C   UNL     1      -0.589  -1.945  -0.979  0.00  0.00    +0.001 A 
ATOM     37  C   UNL     1      -0.460  -2.677   0.187  0.00  0.00    +0.004 A 
ATOM     38  C   UNL     1      -0.415  -2.030   1.407  0.00  0.00    -0.038 A 
ATOM     39  C   UNL     1      -0.495  -0.650   1.462  0.00  0.00    +0.007 A 
ENDBRANCH  32  38
ENDBRANCH   1  32
TORSDOF 6
