REMARK  Name = ZINC63229010
REMARK  11 active torsions:
REMARK  status: ('A' for Active; 'I' for Inactive)
REMARK    1  A    between atoms: C_4  and  C_7
REMARK    2  A    between atoms: C_7  and  C_9
REMARK    3  A    between atoms: C_7  and  C_25
REMARK    4  A    between atoms: C_9  and  N_10
REMARK    5  A    between atoms: N_10  and  C_11
REMARK    6  A    between atoms: C_11  and  C_12
REMARK    7  A    between atoms: C_12  and  C_14
REMARK    8  A    between atoms: C_12  and  O_24
REMARK    9  A    between atoms: C_14  and  O_15
REMARK   10  A    between atoms: O_15  and  C_16
REMARK   11  A    between atoms: C_19  and  C_22
REMARK                            x       y       z     vdW  Elec       q    Type
REMARK                         _______ _______ _______ _____ _____    ______ ____
ROOT
ATOM      1  C   UNL     1       3.817  -1.592   1.206  0.00  0.00    -0.070 C 
ENDROOT
BRANCH   1   2
ATOM      2  N   UNL     1       3.861  -0.746   2.406  0.00  0.00    +0.381 N 
ATOM      3  H   UNL     1       4.663  -0.135   2.359  0.00  0.00    -0.086 HD
ATOM      4  H   UNL     1       3.019  -0.192   2.458  0.00  0.00    -0.086 HD
BRANCH   2   5
ATOM      5  C   UNL     1       3.963  -1.595   3.601  0.00  0.00    -0.047 C 
BRANCH   5   6
ATOM      6  C   UNL     1       4.008  -0.714   4.851  0.00  0.00    +0.135 C 
BRANCH   6   7
ATOM      7  O   UNL     1       2.769  -0.017   4.987  0.00  0.00    -0.390 OA
ATOM      8  H   UNL     1       1.999  -0.596   5.074  0.00  0.00    +0.210 HD
ENDBRANCH   6   7
BRANCH   6   9
ATOM      9  C   UNL     1       4.239  -1.590   6.084  0.00  0.00    +0.258 C 
BRANCH   9  10
ATOM     10  O   UNL     1       4.398  -0.759   7.235  0.00  0.00    -0.489 OA
BRANCH  10  11
ATOM     11  C   UNL     1       4.613  -1.384   8.421  0.00  0.00    +0.121 A 
ATOM     12  C   UNL     1       4.675  -2.771   8.472  0.00  0.00    +0.047 A 
ATOM     13  C   UNL     1       4.894  -3.409   9.674  0.00  0.00    +0.022 A 
ATOM     14  C   UNL     1       5.052  -2.659  10.842  0.00  0.00    +0.052 A 
ATOM     15  C   UNL     1       4.989  -1.264  10.786  0.00  0.00    +0.022 A 
ATOM     16  C   UNL     1       4.776  -0.634   9.580  0.00  0.00    +0.047 A 
BRANCH  14  17
ATOM     17  C   UNL     1       5.279  -3.318  12.093  0.00  0.00    +0.099 C 
ATOM     18  N   UNL     1       5.459  -3.841  13.085  0.00  0.00    -0.191 NA
ENDBRANCH  14  17
ENDBRANCH  10  11
ENDBRANCH   9  10
ENDBRANCH   6   9
ENDBRANCH   5   6
ENDBRANCH   2   5
ENDBRANCH   1   2
BRANCH   1  19
ATOM     19  C   UNL     1       3.711  -0.707  -0.038  0.00  0.00    +0.030 C 
BRANCH  19  20
ATOM     20  C   UNL     1       3.790  -1.566  -1.273  0.00  0.00    -0.036 C 
ATOM     21  C   UNL     1       4.716  -1.494  -2.256  0.00  0.00    -0.001 A 
ATOM     22  C   UNL     1       5.883  -0.628  -2.461  0.00  0.00    +0.010 A 
ATOM     23  C   UNL     1       6.640  -0.798  -3.569  0.00  0.00    +0.001 A 
ATOM     24  C   UNL     1       6.338  -1.778  -4.524  0.00  0.00    +0.002 A 
ATOM     25  C   UNL     1       5.284  -2.612  -4.405  0.00  0.00    +0.026 A 
ATOM     26  C   UNL     1       4.420  -2.522  -3.279  0.00  0.00    +0.043 A 
ATOM     27  N   UNL     1       3.352  -3.203  -2.942  0.00  0.00    -0.380 N 
ATOM     28  C   UNL     1       2.853  -2.687  -1.662  0.00  0.00    +0.145 C 
ATOM     29  H   UNL     1       2.959  -3.929  -3.451  0.00  0.00    +0.160 HD
ENDBRANCH  19  20
BRANCH  19  33
ATOM     30  C   UNL     1      -0.017   1.378   0.010  0.00  0.00    +0.000 A 
ATOM     31  C   UNL     1       1.171   2.086   0.002  0.00  0.00    +0.000 A 
ATOM     32  C   UNL     1       2.377   1.411  -0.013  0.00  0.00    +0.004 A 
ATOM     33  C   UNL     1       2.396   0.029  -0.020  0.00  0.00    -0.042 A 
ATOM     34  C   UNL     1       1.208  -0.679  -0.012  0.00  0.00    +0.004 A 
ATOM     35  C   UNL     1       0.002  -0.004   0.002  0.00  0.00    +0.000 A 
ENDBRANCH  19  33
ENDBRANCH   1  19
TORSDOF 11
