REMARK  Name = ZINC53578631
REMARK  7 active torsions:
REMARK  status: ('A' for Active; 'I' for Inactive)
REMARK    1  A    between atoms: C_1  and  C_2
REMARK    2  A    between atoms: C_2  and  C_3
REMARK    3  A    between atoms: C_3  and  C_5
REMARK    4  A    between atoms: C_3  and  N_6
REMARK    5  A    between atoms: C_7  and  C_9
REMARK    6  A    between atoms: C_12  and  N_15
REMARK    7  A    between atoms: C_20  and  C_24
REMARK                            x       y       z     vdW  Elec       q    Type
REMARK                         _______ _______ _______ _____ _____    ______ ____
ROOT
ATOM      1  C   UNL     1       4.152   1.016  -2.691  0.00  0.00    +0.037 A 
ATOM      2  C   UNL     1       4.696   1.052  -1.404  0.00  0.00    +0.015 A 
ATOM      3  C   UNL     1       6.047   1.250  -1.235  0.00  0.00    +0.024 A 
ATOM      4  C   UNL     1       6.872   1.415  -2.344  0.00  0.00    +0.033 A 
ATOM      5  C   UNL     1       6.333   1.379  -3.627  0.00  0.00    +0.024 A 
ATOM      6  C   UNL     1       4.983   1.175  -3.803  0.00  0.00    +0.015 A 
ENDROOT
BRANCH   4   7
ATOM      7  N   UNL     1       8.238   1.616  -2.170  0.00  0.00    -0.292 N 
ATOM      8  C   UNL     1       9.137   1.114  -3.100  0.00  0.00    +0.186 A 
ATOM      9  N   UNL     1      10.430   1.280  -3.164  0.00  0.00    -0.142 NA
ATOM     10  N   UNL     1      11.184   0.696  -4.176  0.00  0.00    -0.212 N 
ATOM     11  C   UNL     1      12.511   0.630  -4.582  0.00  0.00    +0.138 A 
ATOM     12  C   UNL     1      12.564  -0.133  -5.688  0.00  0.00    +0.059 A 
ATOM     13  N   UNL     1      11.320  -0.540  -5.979  0.00  0.00    -0.225 NA
ATOM     14  C   UNL     1      10.499  -0.055  -5.092  0.00  0.00    +0.197 A 
ATOM     15  S   UNL     1       8.824   0.067  -4.512  0.00  0.00    -0.013 S 
ATOM     16  C   UNL     1      13.809  -0.473  -6.466  0.00  0.00    +0.067 C 
ATOM     17  H   UNL     1       8.562   2.107  -1.399  0.00  0.00    +0.154 HD
ENDBRANCH   4   7
BRANCH   1  19
ATOM     18  N   UNL     1       1.903   0.650  -1.802  0.00  0.00    -0.309 N 
ATOM     19  C   UNL     1       2.703   0.803  -2.876  0.00  0.00    +0.244 C 
ATOM     20  O   UNL     1       2.232   0.767  -3.996  0.00  0.00    -0.270 OA
ATOM     21  H   UNL     1       2.278   0.679  -0.909  0.00  0.00    +0.149 HD
BRANCH  18  22
ATOM     22  C   UNL     1       0.465   0.439  -1.986  0.00  0.00    +0.070 C 
ATOM     23  C   UNL     1       0.193  -1.049  -2.218  0.00  0.00    +0.028 C 
BRANCH  22  25
ATOM     24  C   UNL     1      -0.113   2.416  -0.572  0.00  0.00    +0.005 C 
ATOM     25  C   UNL     1      -0.283   0.905  -0.735  0.00  0.00    +0.018 C 
ENDBRANCH  22  25
ENDBRANCH  18  22
ENDBRANCH   1  19
TORSDOF 4
