REMARK  Name = ZINC09412161
REMARK  10 active torsions:
REMARK  status: ('A' for Active; 'I' for Inactive)
REMARK    1  A    between atoms: C_1  and  C_2
REMARK    2  A    between atoms: C_2  and  C_4
REMARK    3  A    between atoms: C_2  and  O_24
REMARK    4  A    between atoms: C_4  and  O_6
REMARK    5  A    between atoms: O_6  and  C_7
REMARK    6  A    between atoms: C_7  and  C_8
REMARK    7  A    between atoms: N_10  and  C_11
REMARK    8  A    between atoms: C_11  and  C_12
REMARK    9  A    between atoms: N_14  and  C_15
REMARK   10  A    between atoms: O_24  and  C_25
REMARK                            x       y       z     vdW  Elec       q    Type
REMARK                         _______ _______ _______ _____ _____    ______ ____
ROOT
ATOM      1  C   UNL     1      -0.573   3.753   1.164  0.00  0.00    +0.251 C 
ATOM      2  O   UNL     1      -0.084   4.434   0.288  0.00  0.00    -0.272 OA
ATOM      3  N   UNL     1      -0.478   2.410   1.105  0.00  0.00    -0.304 N 
ATOM      4  H   UNL     1      -0.870   1.865   1.806  0.00  0.00    +0.149 HD
ENDROOT
BRANCH   1   5
ATOM      5  C   UNL     1      -1.288   4.408   2.317  0.00  0.00    +0.327 C 
BRANCH   5   6
ATOM      6  O   UNL     1      -1.254   5.850   2.151  0.00  0.00    -0.453 OA
BRANCH   6   7
ATOM      7  C   UNL     1      -1.852   6.587   3.101  0.00  0.00    +0.348 C 
ATOM      8  O   UNL     1      -2.385   6.045   4.040  0.00  0.00    -0.247 OA
BRANCH   7  10
ATOM      9  C   UNL     1      -0.416   8.606   2.980  0.00  0.00    +0.064 C 
ATOM     10  C   UNL     1      -1.857   8.090   2.996  0.00  0.00    +0.278 C 
BRANCH  10  11
ATOM     11  O   UNL     1      -2.548   8.644   4.118  0.00  0.00    -0.478 OA
BRANCH  11  12
ATOM     12  C   UNL     1      -3.258   9.783   3.905  0.00  0.00    +0.122 A 
ATOM     13  C   UNL     1      -4.059  10.301   4.913  0.00  0.00    +0.047 A 
ATOM     14  C   UNL     1      -4.775  11.462   4.696  0.00  0.00    +0.019 A 
ATOM     15  C   UNL     1      -4.704  12.101   3.471  0.00  0.00    +0.018 A 
ATOM     16  C   UNL     1      -3.911  11.583   2.463  0.00  0.00    +0.019 A 
ATOM     17  C   UNL     1      -3.189  10.425   2.678  0.00  0.00    +0.047 A 
ATOM     18 BR   UNL     1      -5.691  13.687   3.175  0.00  0.00    -0.050 Br
ENDBRANCH  11  12
ENDBRANCH  10  11
ENDBRANCH   7  10
ENDBRANCH   6   7
ENDBRANCH   5   6
ENDBRANCH   1   5
BRANCH   3  19
ATOM     19  C   UNL     1       0.216   1.773  -0.017  0.00  0.00    +0.200 C 
BRANCH  19  20
ATOM     20  C   UNL     1       0.182   0.276   0.156  0.00  0.00    +0.234 C 
ATOM     21  O   UNL     1      -0.369  -0.211   1.121  0.00  0.00    -0.274 OA
ATOM     22  N   UNL     1       0.763  -0.522  -0.762  0.00  0.00    -0.282 N 
ATOM     23  H   UNL     1       1.147  -0.137  -1.565  0.00  0.00    +0.155 HD
BRANCH  22  24
ATOM     24  C   UNL     1       0.811  -1.907  -0.556  0.00  0.00    +0.072 A 
ATOM     25  C   UNL     1      -0.237  -2.551   0.087  0.00  0.00    +0.029 A 
ATOM     26  C   UNL     1      -0.191  -3.917   0.286  0.00  0.00    +0.043 A 
ATOM     27  C   UNL     1       0.904  -4.646  -0.148  0.00  0.00    +0.161 A 
ATOM     28  C   UNL     1       1.955  -4.006  -0.787  0.00  0.00    +0.195 A 
ATOM     29  C   UNL     1       1.910  -2.637  -0.992  0.00  0.00    +0.182 A 
ATOM     30  F   UNL     1       2.933  -2.013  -1.615  0.00  0.00    -0.200 F 
ATOM     31  F   UNL     1       3.022  -4.718  -1.209  0.00  0.00    -0.199 F 
ATOM     32  F   UNL     1       0.948  -5.981   0.052  0.00  0.00    -0.202 F 
ENDBRANCH  22  24
ENDBRANCH  19  20
ENDBRANCH   3  19
TORSDOF 9
