REMARK  Name = ZINC13189525
REMARK  11 active torsions:
REMARK  status: ('A' for Active; 'I' for Inactive)
REMARK    1  A    between atoms: C_1  and  C_2
REMARK    2  A    between atoms: C_5  and  N_9
REMARK    3  A    between atoms: C_7  and  C_8
REMARK    4  A    between atoms: C_10  and  C_12
REMARK    5  A    between atoms: C_12  and  S_13
REMARK    6  A    between atoms: S_13  and  C_14
REMARK    7  A    between atoms: C_15  and  C_35
REMARK    8  A    between atoms: C_16  and  C_26
REMARK    9  A    between atoms: C_29  and  O_34
REMARK   10  A    between atoms: C_30  and  O_32
REMARK   11  A    between atoms: O_32  and  C_33
REMARK                            x       y       z     vdW  Elec       q    Type
REMARK                         _______ _______ _______ _____ _____    ______ ____
ROOT
ATOM      1  C   UNL     1      -0.356  -8.692  -2.728  0.00  0.00    +0.112 C 
ATOM      2  C   UNL     1      -0.455  -9.467  -3.870  0.00  0.00    +0.073 C 
ATOM      3  C   UNL     1      -0.539 -10.972  -3.684  0.00  0.00    +0.097 C 
ATOM      4  C   UNL     1      -0.504 -11.463  -2.249  0.00  0.00    +0.029 C 
ATOM      5  C   UNL     1      -0.570 -12.779  -1.989  0.00  0.00    +0.162 C 
ATOM      6  C   UNL     1      -0.539 -13.300  -0.577  0.00  0.00    +0.080 C 
ATOM      7  C   UNL     1       0.267 -12.338   0.299  0.00  0.00    +0.014 C 
ATOM      8  C   UNL     1      -0.365 -10.946   0.216  0.00  0.00    +0.056 C 
ATOM      9  C   UNL     1      -0.401 -10.502  -1.227  0.00  0.00    +0.050 C 
ATOM     10  N   UNL     1      -0.329  -9.224  -1.504  0.00  0.00    -0.244 NA
ATOM     11  O   UNL     1      -0.666 -13.651  -3.013  0.00  0.00    -0.292 OA
ENDROOT
BRANCH   3  12
ATOM     12  C   UNL     1       0.614 -11.603  -4.422  0.00  0.00    -0.031 A 
ATOM     13  C   UNL     1       1.913 -11.281  -4.077  0.00  0.00    +0.008 A 
ATOM     14  C   UNL     1       2.973 -11.857  -4.751  0.00  0.00    +0.049 A 
ATOM     15  C   UNL     1       2.735 -12.760  -5.775  0.00  0.00    +0.158 A 
ATOM     16  C   UNL     1       1.427 -13.085  -6.122  0.00  0.00    +0.162 A 
ATOM     17  C   UNL     1       0.369 -12.507  -5.439  0.00  0.00    +0.054 A 
BRANCH  16  18
ATOM     18  O   UNL     1       1.189 -13.970  -7.126  0.00  0.00    -0.491 OA
ATOM     19  C   UNL     1      -0.179 -14.256  -7.428  0.00  0.00    +0.277 C 
ENDBRANCH  16  18
BRANCH  15  20
ATOM     20  O   UNL     1       3.777 -13.327  -6.439  0.00  0.00    -0.503 OA
ATOM     21  H   UNL     1       4.089 -14.155  -6.048  0.00  0.00    +0.292 HD
ENDBRANCH  15  20
ENDBRANCH   3  12
BRANCH   2  22
ATOM     22  C   UNL     1      -0.477  -8.875  -5.174  0.00  0.00    +0.098 C 
ATOM     23  N   UNL     1      -0.495  -8.405  -6.208  0.00  0.00    -0.191 NA
ENDBRANCH   2  22
BRANCH   1  24
ATOM     24  S   UNL     1      -0.255  -6.941  -2.895  0.00  0.00    -0.096 S 
BRANCH  24  25
ATOM     25  C   UNL     1      -0.134  -6.343  -1.187  0.00  0.00    +0.172 C 
BRANCH  25  27
ATOM     26  N   UNL     1       0.059  -4.170  -0.021  0.00  0.00    -0.285 N 
ATOM     27  C   UNL     1      -0.040  -4.839  -1.187  0.00  0.00    +0.227 C 
ATOM     28  O   UNL     1      -0.054  -4.230  -2.236  0.00  0.00    -0.275 OA
ATOM     29  H   UNL     1       0.147  -4.658   0.812  0.00  0.00    +0.155 HD
BRANCH  26  34
ATOM     30  C   UNL     1      -0.041   1.502   0.014  0.00  0.00    +0.044 C 
ATOM     31  C   UNL     1      -0.015  -0.004   0.004  0.00  0.00    -0.047 A 
ATOM     32  C   UNL     1      -0.752  -0.702  -0.935  0.00  0.00    +0.005 A 
ATOM     33  C   UNL     1      -0.730  -2.082  -0.946  0.00  0.00    +0.023 A 
ATOM     34  C   UNL     1       0.034  -2.771  -0.013  0.00  0.00    +0.034 A 
ATOM     35  C   UNL     1       0.773  -2.068   0.929  0.00  0.00    +0.027 A 
ATOM     36  C   UNL     1       0.751  -0.686   0.932  0.00  0.00    -0.046 A 
ATOM     37  C   UNL     1       1.557   0.078   1.950  0.00  0.00    +0.044 C 
ENDBRANCH  26  34
ENDBRANCH  25  27
ENDBRANCH  24  25
ENDBRANCH   1  24
TORSDOF 8
