REMARK  Name = ZINC13064448
REMARK  11 active torsions:
REMARK  status: ('A' for Active; 'I' for Inactive)
REMARK    1  A    between atoms: C_1  and  C_2
REMARK    2  A    between atoms: C_2  and  C_3
REMARK    3  A    between atoms: C_3  and  C_5
REMARK    4  A    between atoms: C_3  and  N_66
REMARK    5  A    between atoms: N_9  and  C_10
REMARK    6  A    between atoms: C_15  and  C_16
REMARK    7  A    between atoms: C_15  and  N_66
REMARK    8  A    between atoms: C_16  and  C_17
REMARK    9  A    between atoms: C_17  and  O_18
REMARK   10  A    between atoms: C_19  and  C_20
REMARK   11  A    between atoms: C_19  and  N_66
REMARK                            x       y       z     vdW  Elec       q    Type
REMARK                         _______ _______ _______ _____ _____    ______ ____
ROOT
ATOM      1  N   UNL     1       3.951   1.611   1.104  0.00  0.00    +0.389 N 
ATOM      2  H   UNL     1       3.721   1.377   2.077  0.00  0.00    -0.080 HD
ENDROOT
BRANCH   1   3
ATOM      3  C   UNL     1       3.397   0.568   0.216  0.00  0.00    +0.003 C 
BRANCH   3   4
ATOM      4  C   UNL     1       3.870   0.774  -1.200  0.00  0.00    +0.138 A 
ATOM      5  N   UNL     1       5.113   0.889  -1.600  0.00  0.00    -0.115 NA
ATOM      6  N   UNL     1       5.106   1.053  -2.878  0.00  0.00    -0.023 NA
ATOM      7  N   UNL     1       3.891   1.044  -3.304  0.00  0.00    -0.044 NA
ATOM      8  N   UNL     1       3.100   0.875  -2.299  0.00  0.00    -0.228 N 
BRANCH   8   9
ATOM      9  C   UNL     1       1.637   0.805  -2.345  0.00  0.00    +0.111 C 
ATOM     10  C   UNL     1       1.192  -0.338  -3.281  0.00  0.00    +0.027 C 
ATOM     11  C   UNL     1      -0.070   0.221  -3.987  0.00  0.00    +0.002 C 
ATOM     12  C   UNL     1       0.294   1.709  -4.211  0.00  0.00    +0.002 C 
ATOM     13  C   UNL     1       1.066   2.106  -2.936  0.00  0.00    +0.027 C 
ENDBRANCH   8   9
ENDBRANCH   3   4
BRANCH   3  15
ATOM     14  C   UNL     1       3.265  -1.068   2.099  0.00  0.00    +0.002 C 
ATOM     15  C   UNL     1       3.858  -0.802   0.715  0.00  0.00    -0.011 C 
ENDBRANCH   3  15
ENDBRANCH   1   3
BRANCH   1  16
ATOM     16  C   UNL     1       3.360   2.924   0.773  0.00  0.00    -0.075 C 
BRANCH  16  17
ATOM     17  C   UNL     1       1.887   2.921   1.189  0.00  0.00    +0.009 C 
BRANCH  17  18
ATOM     18  C   UNL     1       1.248   4.260   0.815  0.00  0.00    +0.154 C 
BRANCH  18  19
ATOM     19  O   UNL     1      -0.127   4.256   1.203  0.00  0.00    -0.395 OA
ATOM     20  H   UNL     1      -0.596   5.076   0.997  0.00  0.00    +0.209 HD
ENDBRANCH  18  19
ENDBRANCH  17  18
ENDBRANCH  16  17
ENDBRANCH   1  16
BRANCH   1  21
ATOM     21  C   UNL     1       5.421   1.668   0.960  0.00  0.00    -0.037 C 
BRANCH  21  22
ATOM     22  C   UNL     1       5.990   2.469   2.103  0.00  0.00    +0.001 A 
ATOM     23  C   UNL     1       6.417   1.836   3.225  0.00  0.00    +0.017 A 
ATOM     24  C   UNL     1       6.964   2.641   4.317  0.00  0.00    +0.002 A 
ATOM     25  C   UNL     1       7.419   2.043   5.498  0.00  0.00    +0.059 A 
ATOM     26  C   UNL     1       7.927   2.828   6.512  0.00  0.00    +0.163 A 
ATOM     27  C   UNL     1       7.990   4.216   6.362  0.00  0.00    +0.164 A 
ATOM     28  C   UNL     1       7.543   4.816   5.197  0.00  0.00    +0.075 A 
ATOM     29  C   UNL     1       7.028   4.040   4.168  0.00  0.00    +0.053 A 
ATOM     30  N   UNL     1       6.577   4.622   3.000  0.00  0.00    -0.322 N 
ATOM     31  H   UNL     1       6.622   5.585   2.898  0.00  0.00    +0.169 HD
ATOM     32  C   UNL     1       6.080   3.872   2.000  0.00  0.00    +0.251 A 
ATOM     33  O   UNL     1       5.695   4.419   0.982  0.00  0.00    -0.268 OA
ATOM     34  O   UNL     1       8.493   4.997   7.356  0.00  0.00    -0.485 OA
ATOM     35  C   UNL     1       8.585   4.406   8.656  0.00  0.00    +0.270 C 
ATOM     36  C   UNL     1       9.207   3.011   8.507  0.00  0.00    +0.270 C 
ATOM     37  O   UNL     1       8.361   2.231   7.657  0.00  0.00    -0.485 OA
ENDBRANCH  21  22
ENDBRANCH   1  21
TORSDOF 10
