REMARK  Name = ZINC58773304
REMARK  8 active torsions:
REMARK  status: ('A' for Active; 'I' for Inactive)
REMARK    1  A    between atoms: C_1  and  C_2
REMARK    2  A    between atoms: C_2  and  C_3
REMARK    3  A    between atoms: C_2  and  N_10
REMARK    4  A    between atoms: C_14  and  C_16
REMARK    5  A    between atoms: C_16  and  N_17
REMARK    6  A    between atoms: C_20  and  C_23
REMARK    7  A    between atoms: N_25  and  C_26
REMARK    8  A    between atoms: N_25  and  C_27
REMARK                            x       y       z     vdW  Elec       q    Type
REMARK                         _______ _______ _______ _____ _____    ______ ____
ROOT
ATOM      1  N   UNL     1       0.763  -0.501   1.217  0.00  0.00    -0.296 N 
ATOM      2  C   UNL     1       0.148  -0.559   2.414  0.00  0.00    +0.306 C 
ATOM      3  O   UNL     1      -1.024  -0.252   2.511  0.00  0.00    -0.252 OA
ATOM      4  N   UNL     1       0.832  -0.959   3.505  0.00  0.00    -0.242 N 
ATOM      5  C   UNL     1       0.216  -1.017   4.703  0.00  0.00    +0.204 C 
ATOM      6  O   UNL     1      -0.952  -0.710   4.799  0.00  0.00    -0.277 OA
ATOM      7  H   UNL     1       1.699  -0.747   1.140  0.00  0.00    +0.151 HD
ATOM      8  H   UNL     1       1.767  -1.204   3.428  0.00  0.00    +0.159 HD
ENDROOT
BRANCH   1  10
ATOM      9  C   UNL     1       0.037   1.461  -0.050  0.00  0.00    +0.028 C 
ATOM     10  C   UNL     1       0.020  -0.067   0.032  0.00  0.00    +0.075 C 
BRANCH  10  11
ATOM     11  C   UNL     1       0.673  -0.652  -1.222  0.00  0.00    +0.012 C 
ATOM     12  C   UNL     1      -0.115  -0.234  -2.485  0.00  0.00    +0.009 C 
ATOM     13  C   UNL     1      -0.601  -1.578  -3.110  0.00  0.00    -0.010 C 
ATOM     14  C   UNL     1       0.698  -2.245  -3.658  0.00  0.00    +0.004 C 
ATOM     15  C   UNL     1       1.486  -2.663  -2.395  0.00  0.00    +0.004 C 
ATOM     16  C   UNL     1       0.589  -2.209  -1.203  0.00  0.00    -0.006 C 
ATOM     17  C   UNL     1      -0.840  -2.430  -1.814  0.00  0.00    +0.007 C 
ENDBRANCH  10  11
ENDBRANCH   1  10
BRANCH   5  18
ATOM     18  C   UNL     1       0.981  -1.463   5.922  0.00  0.00    +0.019 C 
BRANCH  18  19
ATOM     19  N   UNL     1       0.094  -1.440   7.092  0.00  0.00    +0.385 N 
ATOM     20  C   UNL     1      -0.977  -2.428   6.912  0.00  0.00    -0.077 C 
ATOM     21  C   UNL     1      -1.950  -2.352   8.090  0.00  0.00    -0.006 C 
ATOM     22  C   UNL     1      -1.195  -2.647   9.389  0.00  0.00    +0.072 C 
ATOM     23  C   UNL     1      -0.034  -1.658   9.530  0.00  0.00    -0.006 C 
ATOM     24  C   UNL     1       0.868  -1.760   8.298  0.00  0.00    -0.077 C 
ATOM     25  H   UNL     1      -0.312  -0.521   7.188  0.00  0.00    -0.081 HD
BRANCH  22  26
ATOM     26  C   UNL     1      -2.130  -2.498  10.561  0.00  0.00    +0.218 C 
ATOM     27  O   UNL     1      -3.098  -1.772  10.476  0.00  0.00    -0.275 OA
ATOM     28  N   UNL     1      -1.890  -3.170  11.704  0.00  0.00    -0.307 N 
ATOM     29  C   UNL     1      -2.728  -2.933  12.883  0.00  0.00    +0.131 C 
ATOM     30  C   UNL     1      -0.793  -4.139  11.768  0.00  0.00    +0.131 C 
ENDBRANCH  22  26
ENDBRANCH  18  19
ENDBRANCH   5  18
TORSDOF 5
