REMARK  Name = ZINC40386914
REMARK  4 active torsions:
REMARK  status: ('A' for Active; 'I' for Inactive)
REMARK    1  A    between atoms: C_1  and  C_2
REMARK    2  A    between atoms: C_6  and  C_8
REMARK    3  A    between atoms: C_10  and  N_30
REMARK    4  A    between atoms: N_11  and  C_23
REMARK                            x       y       z     vdW  Elec       q    Type
REMARK                         _______ _______ _______ _____ _____    ______ ____
ROOT
ATOM      1  C   UNL     1      -0.155  -2.717   2.544  0.00  0.00    +0.089 A 
ATOM      2  C   UNL     1      -0.799  -3.970   2.651  0.00  0.00    +0.086 A 
ATOM      3  C   UNL     1      -1.566  -4.770   1.813  0.00  0.00    +0.131 A 
ATOM      4  N   UNL     1      -1.902  -5.877   2.504  0.00  0.00    -0.216 N 
ATOM      5  N   UNL     1      -1.363  -5.814   3.794  0.00  0.00    -0.144 NA
ATOM      6  C   UNL     1      -0.693  -4.691   3.933  0.00  0.00    +0.189 A 
ATOM      7  N   UNL     1       0.012  -4.113   4.924  0.00  0.00    -0.193 NA
ATOM      8  C   UNL     1       0.582  -2.940   4.738  0.00  0.00    +0.220 A 
ATOM      9  N   UNL     1       0.512  -2.261   3.596  0.00  0.00    -0.214 NA
ATOM     10  N   UNL     1       1.296  -2.386   5.785  0.00  0.00    -0.298 N 
ATOM     11  C   UNL     1       1.936  -1.081   5.613  0.00  0.00    +0.118 C 
ATOM     12  C   UNL     1       1.268  -0.058   6.540  0.00  0.00    +0.088 C 
ATOM     13  S   UNL     1       1.384  -0.661   8.251  0.00  0.00    -0.158 S 
ATOM     14  C   UNL     1       0.669  -2.330   8.150  0.00  0.00    +0.088 C 
ATOM     15  C   UNL     1       1.396  -3.108   7.054  0.00  0.00    +0.118 C 
ENDROOT
BRANCH   1  21
ATOM     16  C   UNL     1       2.124  -0.015  -0.980  0.00  0.00    +0.044 C 
ATOM     17  C   UNL     1       0.875  -0.635  -0.409  0.00  0.00    -0.050 A 
ATOM     18  C   UNL     1      -0.336  -0.474  -1.061  0.00  0.00    +0.003 A 
ATOM     19  C   UNL     1      -1.487  -1.040  -0.543  0.00  0.00    +0.001 A 
ATOM     20  C   UNL     1      -1.435  -1.770   0.627  0.00  0.00    +0.010 A 
ATOM     21  C   UNL     1      -0.218  -1.936   1.288  0.00  0.00    +0.002 A 
ATOM     22  C   UNL     1       0.941  -1.367   0.758  0.00  0.00    +0.013 A 
ENDBRANCH   1  21
BRANCH   4  23
ATOM     23  C   UNL     1      -2.675  -6.932   2.006  0.00  0.00    +0.070 A 
ATOM     24  C   UNL     1      -3.710  -6.676   1.115  0.00  0.00    +0.028 A 
ATOM     25  C   UNL     1      -4.472  -7.718   0.625  0.00  0.00    +0.005 A 
ATOM     26  C   UNL     1      -4.207  -9.017   1.021  0.00  0.00    +0.038 A 
ATOM     27  C   UNL     1      -3.177  -9.276   1.909  0.00  0.00    +0.125 A 
ATOM     28  C   UNL     1      -2.406  -8.237   2.398  0.00  0.00    +0.066 A 
ATOM     29  F   UNL     1      -2.921 -10.546   2.294  0.00  0.00    -0.205 F 
ENDBRANCH   4  23
BRANCH   3  30
ATOM     30  N   UNL     1      -1.919  -4.483   0.508  0.00  0.00    -0.342 N 
ATOM     31  H   UNL     1      -1.502  -3.740   0.045  0.00  0.00    +0.144 HD
ATOM     32  H   UNL     1      -2.584  -5.025   0.055  0.00  0.00    +0.144 HD
ENDBRANCH   3  30
TORSDOF 3
