REMARK  Name = ZINC63830012
REMARK  10 active torsions:
REMARK  status: ('A' for Active; 'I' for Inactive)
REMARK    1  A    between atoms: C_1  and  C_2
REMARK    2  A    between atoms: N_8  and  C_9
REMARK    3  A    between atoms: C_9  and  C_10
REMARK    4  A    between atoms: N_12  and  C_13
REMARK    5  A    between atoms: C_13  and  C_14
REMARK    6  A    between atoms: C_14  and  C_16
REMARK    7  A    between atoms: C_14  and  C_25
REMARK    8  A    between atoms: C_19  and  N_22
REMARK    9  A    between atoms: N_22  and  C_23
REMARK   10  A    between atoms: N_22  and  C_24
REMARK                            x       y       z     vdW  Elec       q    Type
REMARK                         _______ _______ _______ _____ _____    ______ ____
ROOT
ATOM      1  C   UNL     1      -2.472   0.125   6.419  0.00  0.00    +0.064 C 
ENDROOT
BRANCH   1   2
ATOM      2  C   UNL     1      -1.287  -0.105   7.320  0.00  0.00    -0.033 C 
ATOM      3  C   UNL     1      -0.479   0.837   7.858  0.00  0.00    -0.000 A 
ATOM      4  C   UNL     1      -0.463   2.302   7.768  0.00  0.00    +0.010 A 
ATOM      5  C   UNL     1       0.492   2.990   8.434  0.00  0.00    +0.001 A 
ATOM      6  C   UNL     1       1.466   2.340   9.206  0.00  0.00    +0.002 A 
ATOM      7  C   UNL     1       1.516   0.997   9.337  0.00  0.00    +0.026 A 
ATOM      8  C   UNL     1       0.559   0.175   8.680  0.00  0.00    +0.043 A 
ATOM      9  N   UNL     1       0.399  -1.126   8.651  0.00  0.00    -0.380 N 
ATOM     10  C   UNL     1      -0.763  -1.436   7.811  0.00  0.00    +0.145 C 
ATOM     11  H   UNL     1       0.955  -1.775   9.111  0.00  0.00    +0.160 HD
ENDBRANCH   1   2
BRANCH   1  12
ATOM     12  C   UNL     1      -3.714  -0.425   7.072  0.00  0.00    -0.039 A 
ATOM     13  C   UNL     1      -3.788  -1.768   7.393  0.00  0.00    +0.006 A 
ATOM     14  C   UNL     1      -4.924  -2.275   7.991  0.00  0.00    +0.023 A 
ATOM     15  C   UNL     1      -5.994  -1.435   8.271  0.00  0.00    +0.029 A 
ATOM     16  C   UNL     1      -5.917  -0.086   7.947  0.00  0.00    +0.023 A 
ATOM     17  C   UNL     1      -4.776   0.416   7.353  0.00  0.00    +0.006 A 
BRANCH  15  18
ATOM     18  N   UNL     1      -7.146  -1.945   8.875  0.00  0.00    -0.336 N 
ATOM     19  C   UNL     1      -7.225  -3.367   9.216  0.00  0.00    +0.129 C 
ATOM     20  C   UNL     1      -8.273  -1.057   9.169  0.00  0.00    +0.129 C 
ENDBRANCH  15  18
ENDBRANCH   1  12
BRANCH   1  21
ATOM     21  C   UNL     1      -2.242  -0.583   5.082  0.00  0.00    +0.116 C 
BRANCH  21  24
ATOM     22  C   UNL     1      -0.717  -0.431   3.188  0.00  0.00    +0.230 C 
ATOM     23  O   UNL     1      -1.308  -1.358   2.676  0.00  0.00    -0.274 OA
ATOM     24  N   UNL     1      -1.106   0.032   4.393  0.00  0.00    -0.313 N 
ATOM     25  H   UNL     1      -0.633   0.773   4.803  0.00  0.00    +0.149 HD
BRANCH  22  26
ATOM     26  C   UNL     1       0.452   0.202   2.479  0.00  0.00    +0.204 C 
BRANCH  26  33
ATOM     27  C   UNL     1      -0.019   1.526   0.010  0.00  0.00    +0.029 C 
ATOM     28  C   UNL     1       0.002  -0.004   0.002  0.00  0.00    +0.085 C 
ATOM     29  C   UNL     1       0.726  -0.495  -1.279  0.00  0.00    +0.101 C 
ATOM     30  S   UNL     1       1.538  -1.999  -0.588  0.00  0.00    -0.066 S 
ATOM     31  C   UNL     1       1.496  -1.540   1.136  0.00  0.00    +0.275 C 
ATOM     32  O   UNL     1       2.086  -2.073   2.057  0.00  0.00    -0.263 OA
ATOM     33  N   UNL     1       0.673  -0.477   1.199  0.00  0.00    -0.280 N 
ENDBRANCH  26  33
ENDBRANCH  22  26
ENDBRANCH  21  24
ENDBRANCH   1  21
TORSDOF 7
