REMARK  Name = ZINC39631183
REMARK  12 active torsions:
REMARK  status: ('A' for Active; 'I' for Inactive)
REMARK    1  A    between atoms: C_1  and  C_2
REMARK    2  A    between atoms: C_6  and  C_8
REMARK    3  A    between atoms: C_12  and  C_21
REMARK    4  A    between atoms: N_23  and  C_24
REMARK    5  A    between atoms: C_24  and  C_26
REMARK    6  A    between atoms: C_24  and  C_27
REMARK    7  A    between atoms: C_27  and  C_28
REMARK    8  A    between atoms: C_28  and  C_29
REMARK    9  A    between atoms: C_29  and  C_30
REMARK   10  A    between atoms: C_30  and  C_31
REMARK   11  A    between atoms: C_30  and  C_32
REMARK   12  A    between atoms: C_30  and  O_33
REMARK                            x       y       z     vdW  Elec       q    Type
REMARK                         _______ _______ _______ _____ _____    ______ ____
ROOT
ATOM      1  C   UNL     1       0.053  -2.845   2.455  0.00  0.00    +0.247 C 
ATOM      2  O   UNL     1       0.158  -2.250   3.510  0.00  0.00    -0.270 OA
ATOM      3  N   UNL     1      -0.032  -4.190   2.446  0.00  0.00    -0.296 N 
ATOM      4  C   UNL     1      -0.035  -5.091   1.270  0.00  0.00    +0.121 C 
ATOM      5  C   UNL     1       0.819  -6.303   1.705  0.00  0.00    +0.100 C 
ATOM      6  C   UNL     1       0.743  -6.306   3.241  0.00  0.00    -0.004 C 
ATOM      7  C   UNL     1      -0.135  -5.102   3.610  0.00  0.00    +0.115 C 
ATOM      8  C   UNL     1       0.105  -7.599   3.736  0.00  0.00    -0.010 C 
ATOM      9  C   UNL     1       0.094  -7.604   5.268  0.00  0.00    -0.082 C 
ATOM     10  N   UNL     1       1.468  -7.490   5.769  0.00  0.00    +0.379 N 
ATOM     11  C   UNL     1       2.044  -6.201   5.365  0.00  0.00    -0.082 C 
ATOM     12  C   UNL     1       2.137  -6.138   3.838  0.00  0.00    -0.010 C 
ATOM     13  H   UNL     1       1.464  -7.554   6.776  0.00  0.00    -0.086 HD
ATOM     14  H   UNL     1       2.027  -8.240   5.389  0.00  0.00    -0.086 HD
ENDROOT
BRANCH   1  20
ATOM     15  C   UNL     1       1.181   1.241  -0.178  0.00  0.00    +0.044 C 
ATOM     16  C   UNL     1       0.558  -0.128  -0.089  0.00  0.00    -0.050 A 
ATOM     17  C   UNL     1      -0.049  -0.685  -1.201  0.00  0.00    +0.003 A 
ATOM     18  C   UNL     1      -0.622  -1.941  -1.127  0.00  0.00    +0.001 A 
ATOM     19  C   UNL     1      -0.593  -2.648   0.057  0.00  0.00    +0.013 A 
ATOM     20  C   UNL     1       0.018  -2.093   1.182  0.00  0.00    +0.037 A 
ATOM     21  C   UNL     1       0.600  -0.827   1.100  0.00  0.00    +0.016 A 
ENDBRANCH   1  20
BRANCH   5  22
ATOM     22  C   UNL     1       0.242  -7.579   1.147  0.00  0.00    +0.218 C 
ATOM     23  O   UNL     1      -0.938  -7.641   0.871  0.00  0.00    -0.275 OA
ATOM     24  N   UNL     1       1.036  -8.651   0.955  0.00  0.00    -0.312 N 
ATOM     25  H   UNL     1       1.980  -8.601   1.175  0.00  0.00    +0.149 HD
BRANCH  24  26
ATOM     26  C   UNL     1       0.476  -9.891   0.412  0.00  0.00    +0.070 C 
ATOM     27  C   UNL     1      -0.121 -10.721   1.550  0.00  0.00    +0.028 C 
BRANCH  26  28
ATOM     28  C   UNL     1       1.582 -10.692  -0.278  0.00  0.00    +0.022 C 
BRANCH  28  29
ATOM     29  C   UNL     1       2.093  -9.914  -1.492  0.00  0.00    +0.005 C 
BRANCH  29  30
ATOM     30  C   UNL     1       3.199 -10.715  -2.182  0.00  0.00    +0.034 C 
BRANCH  30  31
ATOM     31  C   UNL     1       3.711  -9.937  -3.396  0.00  0.00    +0.061 C 
ATOM     32  C   UNL     1       4.727 -10.790  -4.157  0.00  0.00    +0.041 C 
ATOM     33  C   UNL     1       2.536  -9.599  -4.317  0.00  0.00    +0.041 C 
BRANCH  31  34
ATOM     34  O   UNL     1       4.335  -8.728  -2.959  0.00  0.00    -0.389 OA
ATOM     35  H   UNL     1       5.090  -8.867  -2.370  0.00  0.00    +0.210 HD
ENDBRANCH  31  34
ENDBRANCH  30  31
ENDBRANCH  29  30
ENDBRANCH  28  29
ENDBRANCH  26  28
ENDBRANCH  24  26
ENDBRANCH   5  22
TORSDOF 8
