REMARK  Name = ZINC03360300
REMARK  11 active torsions:
REMARK  status: ('A' for Active; 'I' for Inactive)
REMARK    1  A    between atoms: C_1  and  N_2
REMARK    2  A    between atoms: C_5  and  C_18
REMARK    3  A    between atoms: C_6  and  N_17
REMARK    4  A    between atoms: N_7  and  C_10
REMARK    5  A    between atoms: C_10  and  C_11
REMARK    6  A    between atoms: C_18  and  C_20
REMARK    7  A    between atoms: C_20  and  N_63
REMARK    8  A    between atoms: C_21  and  C_22
REMARK    9  A    between atoms: C_21  and  N_63
REMARK   10  A    between atoms: C_28  and  C_29
REMARK   11  A    between atoms: C_28  and  N_63
REMARK                            x       y       z     vdW  Elec       q    Type
REMARK                         _______ _______ _______ _____ _____    ______ ____
ROOT
ATOM      1  C   UNL     1       1.429  -0.505   8.091  0.00  0.00    +0.157 C 
ATOM      2  N   UNL     1       0.254   0.355   7.929  0.00  0.00    -0.263 N 
ATOM      3  C   UNL     1      -0.138   0.720   6.691  0.00  0.00    +0.269 A 
ATOM      4  O   UNL     1       0.473   0.341   5.709  0.00  0.00    -0.267 OA
ATOM      5  C   UNL     1      -1.315   1.588   6.553  0.00  0.00    +0.118 A 
ATOM      6  C   UNL     1      -1.980   1.985   7.726  0.00  0.00    +0.116 A 
ATOM      7  N   UNL     1      -1.504   1.555   8.932  0.00  0.00    -0.277 N 
ATOM      8  C   UNL     1      -0.421   0.767   9.014  0.00  0.00    +0.333 A 
ATOM      9  O   UNL     1      -0.037   0.411  10.112  0.00  0.00    -0.246 OA
ENDROOT
BRANCH   6  10
ATOM     10  N   UNL     1      -3.078   2.784   7.662  0.00  0.00    -0.344 N 
ATOM     11  H   UNL     1      -3.527   2.925   6.813  0.00  0.00    +0.144 HD
ATOM     12  H   UNL     1      -3.413   3.214   8.464  0.00  0.00    +0.144 HD
ENDBRANCH   6  10
BRANCH   5  13
ATOM     13  C   UNL     1      -1.768   2.005   5.283  0.00  0.00    +0.155 C 
ATOM     14  O   UNL     1      -2.795   2.645   5.185  0.00  0.00    -0.294 OA
BRANCH  13  15
ATOM     15  C   UNL     1      -0.977   1.655   4.049  0.00  0.00    +0.003 C 
BRANCH  15  16
ATOM     16  N   UNL     1      -1.680   2.190   2.864  0.00  0.00    +0.390 N 
ATOM     17  H   UNL     1      -2.659   1.881   2.889  0.00  0.00    -0.080 HD
BRANCH  16  18
ATOM     18  C   UNL     1      -1.048   1.682   1.629  0.00  0.00    -0.042 C 
BRANCH  18  19
ATOM     19  C   UNL     1      -1.482   0.255   1.415  0.00  0.00    -0.064 A 
ATOM     20  C   UNL     1      -0.665  -0.784   1.817  0.00  0.00    +0.002 A 
ATOM     21  C   UNL     1      -1.066  -2.093   1.626  0.00  0.00    +0.000 A 
ATOM     22  C   UNL     1      -2.280  -2.363   1.023  0.00  0.00    +0.000 A 
ATOM     23  C   UNL     1      -3.095  -1.323   0.615  0.00  0.00    +0.000 A 
ATOM     24  C   UNL     1      -2.696  -0.014   0.811  0.00  0.00    +0.002 A 
ENDBRANCH  18  19
ENDBRANCH  16  18
BRANCH  16  25
ATOM     25  C   UNL     1      -1.643   3.668   2.880  0.00  0.00    -0.042 C 
BRANCH  25  26
ATOM     26  C   UNL     1      -2.723   4.188   1.967  0.00  0.00    -0.064 A 
ATOM     27  C   UNL     1      -2.414   4.555   0.670  0.00  0.00    +0.002 A 
ATOM     28  C   UNL     1      -3.406   5.028  -0.169  0.00  0.00    +0.000 A 
ATOM     29  C   UNL     1      -4.704   5.142   0.291  0.00  0.00    +0.000 A 
ATOM     30  C   UNL     1      -5.012   4.779   1.589  0.00  0.00    +0.000 A 
ATOM     31  C   UNL     1      -4.021   4.302   2.427  0.00  0.00    +0.002 A 
ENDBRANCH  25  26
ENDBRANCH  16  25
ENDBRANCH  15  16
ENDBRANCH  13  15
ENDBRANCH   5  13
BRANCH   7  32
ATOM     32  C   UNL     1      -2.189   1.964  10.161  0.00  0.00    +0.163 C 
BRANCH  32  33
ATOM     33  C   UNL     1      -3.255   0.955  10.501  0.00  0.00    -0.028 A 
ATOM     34  C   UNL     1      -4.539   1.115  10.013  0.00  0.00    +0.005 A 
ATOM     35  C   UNL     1      -5.516   0.187  10.321  0.00  0.00    +0.000 A 
ATOM     36  C   UNL     1      -5.212  -0.896  11.126  0.00  0.00    +0.000 A 
ATOM     37  C   UNL     1      -3.930  -1.053  11.618  0.00  0.00    +0.000 A 
ATOM     38  C   UNL     1      -2.951  -0.127  11.305  0.00  0.00    +0.005 A 
ENDBRANCH  32  33
ENDBRANCH   7  32
TORSDOF 10
