REMARK  Name = ZINC10014224
REMARK  9 active torsions:
REMARK  status: ('A' for Active; 'I' for Inactive)
REMARK    1  A    between atoms: C_1  and  C_2
REMARK    2  A    between atoms: C_4  and  C_16
REMARK    3  A    between atoms: C_5  and  C_15
REMARK    4  A    between atoms: N_6  and  C_7
REMARK    5  A    between atoms: C_16  and  C_18
REMARK    6  A    between atoms: C_18  and  S_19
REMARK    7  A    between atoms: S_19  and  C_20
REMARK    8  A    between atoms: C_23  and  C_26
REMARK    9  A    between atoms: N_24  and  C_25
REMARK                            x       y       z     vdW  Elec       q    Type
REMARK                         _______ _______ _______ _____ _____    ______ ____
ROOT
ATOM      1  C   UNL     1      -0.989   2.829   4.679  0.00  0.00    +0.175 C 
ATOM      2  O   UNL     1      -1.888   3.426   5.234  0.00  0.00    -0.291 OA
ENDROOT
BRANCH   1   6
ATOM      3  C   UNL     1      -0.155   0.651   0.149  0.00  0.00    +0.063 C 
ATOM      4  C   UNL     1      -0.781   1.380   1.310  0.00  0.00    +0.017 A 
ATOM      5  C   UNL     1      -0.189   1.613   2.494  0.00  0.00    +0.034 A 
ATOM      6  C   UNL     1      -1.166   2.348   3.308  0.00  0.00    +0.039 A 
ATOM      7  C   UNL     1      -2.288   2.492   2.513  0.00  0.00    +0.027 A 
ATOM      8  N   UNL     1      -2.037   1.914   1.325  0.00  0.00    -0.343 N 
ATOM      9  C   UNL     1      -3.568   3.184   2.907  0.00  0.00    +0.064 C 
BRANCH   8  10
ATOM     10  C   UNL     1      -2.981   1.861   0.205  0.00  0.00    +0.110 C 
ATOM     11  C   UNL     1      -2.437   2.686  -0.972  0.00  0.00    +0.049 C 
ATOM     12  C   UNL     1      -3.252   2.380  -2.252  0.00  0.00    +0.168 C 
ATOM     13  S   UNL     1      -3.828   0.658  -1.962  0.00  0.00    -0.029 S 
ATOM     14  O   UNL     1      -5.247   0.650  -1.897  0.00  0.00    -0.174 OA
ATOM     15  O   UNL     1      -3.165  -0.210  -2.871  0.00  0.00    -0.174 OA
ATOM     16  C   UNL     1      -3.149   0.389  -0.271  0.00  0.00    +0.191 C 
ENDBRANCH   8  10
ENDBRANCH   1   6
BRANCH   1  17
ATOM     17  C   UNL     1       0.310   2.582   5.402  0.00  0.00    +0.157 C 
BRANCH  17  18
ATOM     18  S   UNL     1       0.220   3.292   7.065  0.00  0.00    -0.078 S 
BRANCH  18  19
ATOM     19  C   UNL     1       1.822   2.870   7.665  0.00  0.00    +0.192 A 
ATOM     20  N   UNL     1       2.751   2.212   7.009  0.00  0.00    -0.122 NA
ATOM     21  N   UNL     1       3.800   2.079   7.740  0.00  0.00    -0.125 NA
ATOM     22  C   UNL     1       3.601   2.637   8.915  0.00  0.00    +0.200 A 
ATOM     23  N   UNL     1       2.326   3.160   8.902  0.00  0.00    -0.303 N 
ATOM     24  C   UNL     1       1.653   3.878   9.986  0.00  0.00    +0.153 C 
BRANCH  22  25
ATOM     25  C   UNL     1       4.557   2.691  10.031  0.00  0.00    +0.172 A 
ATOM     26  C   UNL     1       5.686   1.937  10.155  0.00  0.00    +0.053 A 
ATOM     27  C   UNL     1       6.296   2.317  11.366  0.00  0.00    +0.042 A 
ATOM     28  C   UNL     1       5.517   3.267  11.921  0.00  0.00    +0.196 A 
ATOM     29  O   UNL     1       4.468   3.490  11.112  0.00  0.00    -0.460 OA
ENDBRANCH  22  25
ENDBRANCH  18  19
ENDBRANCH  17  18
ENDBRANCH   1  17
TORSDOF 6
