REMARK  Name = ZINC39733800
REMARK  5 active torsions:
REMARK  status: ('A' for Active; 'I' for Inactive)
REMARK    1  A    between atoms: C_4  and  C_7
REMARK    2  A    between atoms: C_11  and  C_15
REMARK    3  A    between atoms: C_15  and  O_16
REMARK    4  A    between atoms: O_16  and  C_17
REMARK    5  A    between atoms: C_17  and  C_19
REMARK                            x       y       z     vdW  Elec       q    Type
REMARK                         _______ _______ _______ _____ _____    ______ ____
ROOT
ATOM      1  C   UNL     1       3.687  -0.673  -0.038  0.00  0.00    -0.015 C 
ATOM      2  C   UNL     1       4.082  -1.463   1.013  0.00  0.00    +0.075 C 
ATOM      3  C   UNL     1       5.385  -2.135   0.901  0.00  0.00    +0.112 C 
ATOM      4  N   UNL     1       5.824  -2.905   1.871  0.00  0.00    -0.224 NA
ATOM      5  C   UNL     1       5.115  -3.100   2.970  0.00  0.00    +0.161 C 
ATOM      6  N   UNL     1       3.941  -2.551   3.176  0.00  0.00    -0.158 NA
ATOM      7  C   UNL     1       3.356  -1.743   2.287  0.00  0.00    +0.272 C 
ATOM      8  O   UNL     1       2.263  -1.248   2.509  0.00  0.00    -0.268 OA
ATOM      9  S   UNL     1       6.023  -1.641  -0.679  0.00  0.00    -0.100 S 
ATOM     10  C   UNL     1       4.628  -0.573  -1.216  0.00  0.00    +0.112 C 
ENDROOT
BRANCH   1  14
ATOM     11  C   UNL     1      -0.017   1.381   0.010  0.00  0.00    +0.000 A 
ATOM     12  C   UNL     1       1.168   2.099   0.002  0.00  0.00    +0.001 A 
ATOM     13  C   UNL     1       2.377   1.440  -0.013  0.00  0.00    +0.008 A 
ATOM     14  C   UNL     1       2.407   0.037  -0.021  0.00  0.00    -0.020 A 
ATOM     15  C   UNL     1       1.202  -0.681  -0.013  0.00  0.00    +0.008 A 
ATOM     16  C   UNL     1       0.002  -0.004   0.002  0.00  0.00    +0.001 A 
ENDBRANCH   1  14
BRANCH   5  17
ATOM     17  C   UNL     1       5.683  -3.996   4.040  0.00  0.00    +0.305 C 
BRANCH  17  18
ATOM     18  O   UNL     1       4.767  -4.072   5.135  0.00  0.00    -0.454 OA
BRANCH  18  19
ATOM     19  C   UNL     1       5.126  -4.836   6.178  0.00  0.00    +0.352 C 
ATOM     20  O   UNL     1       6.183  -5.422   6.162  0.00  0.00    -0.247 OA
BRANCH  19  21
ATOM     21  C   UNL     1       4.211  -4.964   7.368  0.00  0.00    +0.318 C 
ATOM     22  C   UNL     1       2.920  -5.682   6.954  0.00  0.00    +0.285 C 
ATOM     23  O   UNL     1       2.081  -5.799   8.108  0.00  0.00    -0.484 OA
ATOM     24  C   UNL     1       2.675  -6.232   9.254  0.00  0.00    +0.162 A 
ATOM     25  C   UNL     1       1.887  -6.710  10.290  0.00  0.00    +0.049 A 
ATOM     26  C   UNL     1       2.476  -7.150  11.461  0.00  0.00    +0.004 A 
ATOM     27  C   UNL     1       3.850  -7.114  11.602  0.00  0.00    +0.004 A 
ATOM     28  C   UNL     1       4.641  -6.640  10.573  0.00  0.00    +0.049 A 
ATOM     29  C   UNL     1       4.057  -6.199   9.395  0.00  0.00    +0.163 A 
ATOM     30  O   UNL     1       4.850  -5.741   8.387  0.00  0.00    -0.471 OA
ENDBRANCH  19  21
ENDBRANCH  18  19
ENDBRANCH  17  18
ENDBRANCH   5  17
TORSDOF 5
