REMARK  Name = ZINC63280974
REMARK  6 active torsions:
REMARK  status: ('A' for Active; 'I' for Inactive)
REMARK    1  A    between atoms: C_1  and  C_2
REMARK    2  A    between atoms: N_4  and  C_5
REMARK    3  A    between atoms: C_11  and  C_15
REMARK    4  A    between atoms: N_17  and  C_18
REMARK    5  A    between atoms: C_18  and  C_19
REMARK    6  A    between atoms: C_19  and  C_20
REMARK                            x       y       z     vdW  Elec       q    Type
REMARK                         _______ _______ _______ _____ _____    ______ ____
ROOT
ATOM      1  C   UNL     1      -4.634  -5.874   3.931  0.00  0.00    +0.244 C 
ATOM      2  O   UNL     1      -3.981  -6.044   4.942  0.00  0.00    -0.270 OA
ATOM      3  N   UNL     1      -5.854  -6.434   3.814  0.00  0.00    -0.311 N 
ATOM      4  H   UNL     1      -6.375  -6.298   3.008  0.00  0.00    +0.149 HD
ENDROOT
BRANCH   1  10
ATOM      5  C   UNL     1      -1.136  -2.159   0.001  0.00  0.00    +0.224 C 
ATOM      6  N   UNL     1      -2.474  -2.704  -0.264  0.00  0.00    -0.316 N 
ATOM      7  C   UNL     1      -3.059  -3.487   0.721  0.00  0.00    +0.043 A 
ATOM      8  C   UNL     1      -4.331  -4.090   0.637  0.00  0.00    +0.025 A 
ATOM      9  C   UNL     1      -4.830  -4.850   1.662  0.00  0.00    +0.015 A 
ATOM     10  C   UNL     1      -4.091  -5.054   2.831  0.00  0.00    +0.038 A 
ATOM     11  C   UNL     1      -2.824  -4.466   2.937  0.00  0.00    +0.029 A 
ATOM     12  C   UNL     1      -2.338  -3.707   1.903  0.00  0.00    +0.033 A 
ATOM     13  S   UNL     1      -0.807  -2.825   1.682  0.00  0.00    -0.082 S 
ATOM     14  H   UNL     1      -2.933  -2.523  -1.099  0.00  0.00    +0.149 HD
BRANCH   5  18
ATOM     15  C   UNL     1      -0.018   1.503   0.010  0.00  0.00    +0.109 C 
ATOM     16  C   UNL     1       0.002  -0.004   0.002  0.00  0.00    +0.212 C 
ATOM     17  O   UNL     1       1.060  -0.596  -0.011  0.00  0.00    -0.276 OA
ATOM     18  N   UNL     1      -1.156  -0.694   0.009  0.00  0.00    -0.288 N 
ATOM     19  H   UNL     1      -2.002  -0.220   0.020  0.00  0.00    +0.151 HD
ENDBRANCH   5  18
ENDBRANCH   1  10
BRANCH   3  20
ATOM     20  C   UNL     1      -6.394  -7.247   4.907  0.00  0.00    +0.109 C 
BRANCH  20  21
ATOM     21  C   UNL     1      -7.783  -7.760   4.523  0.00  0.00    +0.052 C 
BRANCH  21  22
ATOM     22  C   UNL     1      -8.338  -8.597   5.646  0.00  0.00    -0.040 C 
ATOM     23  C   UNL     1      -9.165  -8.186   6.635  0.00  0.00    +0.002 A 
ATOM     24  C   UNL     1      -9.771  -6.887   6.947  0.00  0.00    +0.048 A 
ATOM     25  C   UNL     1     -10.575  -6.781   8.031  0.00  0.00    +0.124 A 
ATOM     26  C   UNL     1     -10.843  -7.882   8.861  0.00  0.00    +0.040 A 
ATOM     27  C   UNL     1     -10.322  -9.106   8.637  0.00  0.00    +0.029 A 
ATOM     28  C   UNL     1      -9.463  -9.331   7.525  0.00  0.00    +0.043 A 
ATOM     29  N   UNL     1      -8.845 -10.407   7.104  0.00  0.00    -0.380 N 
ATOM     30  C   UNL     1      -8.089 -10.068   5.893  0.00  0.00    +0.144 C 
ATOM     31  F   UNL     1     -11.135  -5.586   8.322  0.00  0.00    -0.205 F 
ATOM     32  H   UNL     1      -8.883 -11.282   7.521  0.00  0.00    +0.160 HD
ENDBRANCH  21  22
ENDBRANCH  20  21
ENDBRANCH   3  20
TORSDOF 5
