REMARK  Name = ZINC00828843
REMARK  6 active torsions:
REMARK  status: ('A' for Active; 'I' for Inactive)
REMARK    1  A    between atoms: C_1  and  C_2
REMARK    2  A    between atoms: C_5  and  N_8
REMARK    3  A    between atoms: C_9  and  C_11
REMARK    4  A    between atoms: C_12  and  C_30
REMARK    5  A    between atoms: C_17  and  C_19
REMARK    6  A    between atoms: C_28  and  O_29
REMARK                            x       y       z     vdW  Elec       q    Type
REMARK                         _______ _______ _______ _____ _____    ______ ____
ROOT
ATOM      1  C   UNL     1      -1.015  -2.424  -0.454  0.00  0.00    +0.056 C 
ATOM      2  C   UNL     1      -1.949  -3.380  -0.261  0.00  0.00    +0.017 C 
ATOM      3  N   UNL     1      -1.594  -4.650   0.093  0.00  0.00    -0.300 N 
ATOM      4  C   UNL     1      -0.328  -5.041   0.287  0.00  0.00    +0.135 C 
ATOM      5  S   UNL     1      -0.022  -6.664   0.737  0.00  0.00    -0.019 S 
ATOM      6  N   UNL     1       0.713  -4.198   0.138  0.00  0.00    -0.315 N 
ATOM      7  C   UNL     1       0.437  -2.805  -0.250  0.00  0.00    +0.143 C 
ATOM      8  C   UNL     1      -3.405  -3.042  -0.448  0.00  0.00    +0.061 C 
ATOM      9  H   UNL     1      -2.299  -5.305   0.216  0.00  0.00    +0.154 HD
ATOM     10  H   UNL     1       1.623  -4.503   0.283  0.00  0.00    +0.149 HD
ENDROOT
BRANCH   7  11
ATOM     11  C   UNL     1       1.175  -2.525  -1.533  0.00  0.00    +0.026 A 
ATOM     12  C   UNL     1       2.160  -1.524  -1.578  0.00  0.00    -0.009 A 
ATOM     13  C   UNL     1       2.479  -0.764  -0.439  0.00  0.00    +0.009 A 
ATOM     14  C   UNL     1       3.438   0.198  -0.518  0.00  0.00    +0.001 A 
ATOM     15  C   UNL     1       4.111   0.444  -1.714  0.00  0.00    +0.001 A 
ATOM     16  C   UNL     1       3.835  -0.279  -2.834  0.00  0.00    +0.008 A 
ATOM     17  C   UNL     1       2.847  -1.277  -2.793  0.00  0.00    -0.017 A 
ATOM     18  C   UNL     1       2.524  -2.031  -3.935  0.00  0.00    +0.012 A 
ATOM     19  C   UNL     1       1.563  -2.990  -3.860  0.00  0.00    +0.046 A 
ATOM     20  C   UNL     1       0.887  -3.239  -2.661  0.00  0.00    +0.123 A 
BRANCH  20  21
ATOM     21  O   UNL     1      -0.069  -4.203  -2.618  0.00  0.00    -0.506 OA
ATOM     22  H   UNL     1      -0.958  -3.886  -2.827  0.00  0.00    +0.292 HD
ENDBRANCH  20  21
ENDBRANCH   7  11
BRANCH   1  24
ATOM     23  N   UNL     1      -1.622  -0.817  -2.121  0.00  0.00    -0.282 N 
ATOM     24  C   UNL     1      -1.382  -1.108  -0.827  0.00  0.00    +0.248 C 
ATOM     25  O   UNL     1      -1.479  -0.239   0.020  0.00  0.00    -0.270 OA
ATOM     26  H   UNL     1      -1.619  -1.524  -2.786  0.00  0.00    +0.155 HD
BRANCH  23  31
ATOM     27  C   UNL     1      -2.654   4.538  -3.681  0.00  0.00    +0.044 C 
ATOM     28  C   UNL     1      -2.379   3.115  -3.266  0.00  0.00    -0.050 A 
ATOM     29  C   UNL     1      -1.739   2.254  -4.138  0.00  0.00    +0.005 A 
ATOM     30  C   UNL     1      -1.486   0.950  -3.762  0.00  0.00    +0.023 A 
ATOM     31  C   UNL     1      -1.876   0.503  -2.506  0.00  0.00    +0.034 A 
ATOM     32  C   UNL     1      -2.523   1.370  -1.634  0.00  0.00    +0.023 A 
ATOM     33  C   UNL     1      -2.768   2.674  -2.015  0.00  0.00    +0.005 A 
ENDBRANCH  23  31
ENDBRANCH   1  24
TORSDOF 4
