REMARK  Name = ZINC20207727
REMARK  10 active torsions:
REMARK  status: ('A' for Active; 'I' for Inactive)
REMARK    1  A    between atoms: C_1  and  C_2
REMARK    2  A    between atoms: C_4  and  C_34
REMARK    3  A    between atoms: C_6  and  O_8
REMARK    4  A    between atoms: O_8  and  C_9
REMARK    5  A    between atoms: C_9  and  C_10
REMARK    6  A    between atoms: C_10  and  O_11
REMARK    7  A    between atoms: O_11  and  C_12
REMARK    8  A    between atoms: C_15  and  C_18
REMARK    9  A    between atoms: C_28  and  S_30
REMARK   10  A    between atoms: S_30  and  C_33
REMARK                            x       y       z     vdW  Elec       q    Type
REMARK                         _______ _______ _______ _____ _____    ______ ____
ROOT
ATOM      1  C   UNL     1       1.700  -4.649   5.848  0.00  0.00    +0.121 A 
ATOM      2  C   UNL     1       0.813  -4.625   6.919  0.00  0.00    +0.046 A 
ATOM      3  C   UNL     1       0.919  -5.551   7.918  0.00  0.00    +0.011 A 
ATOM      4  C   UNL     1       1.924  -6.527   7.862  0.00  0.00    -0.024 A 
ATOM      5  C   UNL     1       2.815  -6.546   6.779  0.00  0.00    +0.011 A 
ATOM      6  C   UNL     1       2.695  -5.619   5.783  0.00  0.00    +0.046 A 
ENDROOT
BRANCH   4   7
ATOM      7  C   UNL     1       2.044  -7.522   8.930  0.00  0.00    +0.024 C 
ATOM      8  C   UNL     1       0.917  -7.973   9.580  0.00  0.00    +0.081 C 
ATOM      9  C   UNL     1      -0.453  -7.619   9.113  0.00  0.00    +0.153 C 
ATOM     10  N   UNL     1      -0.760  -7.444   7.855  0.00  0.00    -0.283 NA
ATOM     11  N   UNL     1      -1.388  -7.492  10.163  0.00  0.00    -0.150 N 
ATOM     12  C   UNL     1      -1.114  -8.152  11.342  0.00  0.00    +0.182 C 
ATOM     13  N   UNL     1      -0.030  -8.819  11.650  0.00  0.00    -0.152 NA
ATOM     14  C   UNL     1       1.002  -8.842  10.780  0.00  0.00    +0.273 C 
ATOM     15  O   UNL     1       1.975  -9.552  10.974  0.00  0.00    -0.268 OA
ATOM     16  S   UNL     1      -2.576  -7.835  12.294  0.00  0.00    -0.015 S 
ATOM     17  C   UNL     1      -3.398  -6.775  11.113  0.00  0.00    +0.235 C 
ATOM     18  N   UNL     1      -2.563  -6.773  10.114  0.00  0.00    -0.145 NA
ATOM     19  H   UNL     1      -1.668  -7.215   7.605  0.00  0.00    +0.188 HD
BRANCH  17  20
ATOM     20  S   UNL     1      -4.945  -5.943  11.262  0.00  0.00    +0.019 S 
ATOM     21  O   UNL     1      -5.071  -5.658  12.649  0.00  0.00    -0.168 OA
ATOM     22  O   UNL     1      -4.885  -4.891  10.309  0.00  0.00    -0.168 OA
ATOM     23  C   UNL     1      -6.184  -7.170  10.762  0.00  0.00    +0.202 C 
ENDBRANCH  17  20
ENDBRANCH   4   7
BRANCH   1  24
ATOM     24  O   UNL     1       1.589  -3.727   4.859  0.00  0.00    -0.489 OA
BRANCH  24  25
ATOM     25  C   UNL     1       0.545  -2.760   4.986  0.00  0.00    +0.270 C 
BRANCH  25  26
ATOM     26  C   UNL     1       0.578  -1.812   3.786  0.00  0.00    +0.270 C 
BRANCH  26  27
ATOM     27  O   UNL     1       0.274  -2.541   2.595  0.00  0.00    -0.489 OA
BRANCH  27  33
ATOM     28  C   UNL     1       0.820   1.705   0.250  0.00  0.00    +0.044 C 
ATOM     29  C   UNL     1       0.522   0.227   0.247  0.00  0.00    -0.047 A 
ATOM     30  C   UNL     1       0.236  -0.417  -0.942  0.00  0.00    +0.007 A 
ATOM     31  C   UNL     1      -0.037  -1.773  -0.948  0.00  0.00    -0.047 A 
ATOM     32  C   UNL     1      -0.025  -2.486   0.235  0.00  0.00    +0.049 A 
ATOM     33  C   UNL     1       0.262  -1.841   1.430  0.00  0.00    +0.121 A 
ATOM     34  C   UNL     1       0.541  -0.483   1.432  0.00  0.00    +0.049 A 
ATOM     35  C   UNL     1      -0.349  -2.472  -2.245  0.00  0.00    +0.044 C 
ENDBRANCH  27  33
ENDBRANCH  26  27
ENDBRANCH  25  26
ENDBRANCH  24  25
ENDBRANCH   1  24
TORSDOF 7
