REMARK  Name = ZINC30631510
REMARK  9 active torsions:
REMARK  status: ('A' for Active; 'I' for Inactive)
REMARK    1  A    between atoms: C_1  and  C_2
REMARK    2  A    between atoms: C_5  and  S_9
REMARK    3  A    between atoms: C_7  and  C_8
REMARK    4  A    between atoms: S_9  and  N_12
REMARK    5  A    between atoms: N_15  and  C_18
REMARK    6  A    between atoms: C_18  and  C_19
REMARK    7  A    between atoms: N_24  and  C_25
REMARK    8  A    between atoms: C_25  and  C_26
REMARK    9  A    between atoms: C_26  and  C_27
REMARK                            x       y       z     vdW  Elec       q    Type
REMARK                         _______ _______ _______ _____ _____    ______ ____
ROOT
ATOM      1  N   UNL     1      -0.993   2.209   1.554  0.00  0.00    -0.180 NA
ATOM      2  C   UNL     1      -0.242   1.512   0.499  0.00  0.00    +0.091 C 
ATOM      3  C   UNL     1      -0.898   1.815  -0.852  0.00  0.00    -0.061 C 
ATOM      4  N   UNL     1      -1.007   3.270  -1.025  0.00  0.00    +0.387 N 
ATOM      5  C   UNL     1      -1.882   3.863  -0.005  0.00  0.00    -0.061 C 
ATOM      6  C   UNL     1      -1.266   3.645   1.381  0.00  0.00    +0.091 C 
ATOM      7  H   UNL     1      -0.002   3.699  -0.895  0.00  0.00    -0.081 HD
ENDROOT
BRANCH   1   8
ATOM      8  S   UNL     1      -1.523   1.398   2.897  0.00  0.00    +0.061 S 
ATOM      9  O   UNL     1      -2.628   2.132   3.406  0.00  0.00    -0.153 OA
ATOM     10  O   UNL     1      -1.622   0.028   2.532  0.00  0.00    -0.153 OA
BRANCH   8  15
ATOM     11  C   UNL     1       2.846   1.766   7.043  0.00  0.00    +0.044 C 
ATOM     12  C   UNL     1       1.754   1.674   6.008  0.00  0.00    -0.047 A 
ATOM     13  C   UNL     1       1.738   0.620   5.113  0.00  0.00    +0.005 A 
ATOM     14  C   UNL     1       0.734   0.533   4.166  0.00  0.00    +0.029 A 
ATOM     15  C   UNL     1      -0.247   1.505   4.108  0.00  0.00    +0.106 A 
ATOM     16  C   UNL     1      -0.231   2.559   5.003  0.00  0.00    +0.032 A 
ATOM     17  C   UNL     1       0.770   2.643   5.953  0.00  0.00    -0.046 A 
ATOM     18  C   UNL     1       0.788   3.791   6.928  0.00  0.00    +0.044 C 
ENDBRANCH   8  15
ENDBRANCH   1   8
BRANCH   4  19
ATOM     19  C   UNL     1      -1.472   3.606  -2.377  0.00  0.00    +0.019 C 
BRANCH  19  20
ATOM     20  C   UNL     1      -2.874   3.090  -2.569  0.00  0.00    +0.204 C 
ATOM     21  O   UNL     1      -3.393   2.411  -1.709  0.00  0.00    -0.277 OA
ATOM     22  N   UNL     1      -3.552   3.382  -3.697  0.00  0.00    -0.242 N 
ATOM     23  C   UNL     1      -4.806   2.920  -3.869  0.00  0.00    +0.306 C 
ATOM     24  O   UNL     1      -5.326   2.239  -3.007  0.00  0.00    -0.252 OA
ATOM     25  N   UNL     1      -5.484   3.212  -4.997  0.00  0.00    -0.299 N 
ATOM     26  H   UNL     1      -3.081   3.998  -4.477  0.00  0.00    +0.159 HD
ATOM     27  H   UNL     1      -5.013   3.828  -5.777  0.00  0.00    +0.150 HD
BRANCH  25  28
ATOM     28  C   UNL     1      -6.847   2.710  -5.183  0.00  0.00    +0.110 C 
BRANCH  28  29
ATOM     29  C   UNL     1      -7.384   3.182  -6.536  0.00  0.00    +0.049 C 
BRANCH  29  30
ATOM     30  C   UNL     1      -8.786   2.666  -6.728  0.00  0.00    -0.072 C 
ATOM     31  C   UNL     1      -9.769   3.442  -6.402  0.00  0.00    -0.028 C 
ATOM     32  C   UNL     1     -11.216   3.065  -6.527  0.00  0.00    +0.027 C 
ATOM     33  C   UNL     1     -11.368   1.860  -7.459  0.00  0.00    +0.004 C 
ATOM     34  C   UNL     1     -10.376   0.777  -7.017  0.00  0.00    +0.005 C 
ATOM     35  C   UNL     1      -8.957   1.285  -7.291  0.00  0.00    +0.030 C 
ENDBRANCH  29  30
ENDBRANCH  28  29
ENDBRANCH  25  28
ENDBRANCH  19  20
ENDBRANCH   4  19
TORSDOF 7
