REMARK  Name = ZINC43549214
REMARK  12 active torsions:
REMARK  status: ('A' for Active; 'I' for Inactive)
REMARK    1  A    between atoms: C_1  and  C_2
REMARK    2  A    between atoms: C_7  and  C_9
REMARK    3  A    between atoms: C_9  and  S_10
REMARK    4  A    between atoms: S_10  and  C_13
REMARK    5  A    between atoms: C_13  and  C_14
REMARK    6  A    between atoms: C_13  and  C_15
REMARK    7  A    between atoms: C_13  and  C_16
REMARK    8  A    between atoms: C_18  and  C_39
REMARK    9  A    between atoms: C_21  and  O_38
REMARK   10  A    between atoms: C_23  and  C_27
REMARK   11  A    between atoms: C_27  and  C_29
REMARK   12  A    between atoms: C_27  and  C_30
REMARK                            x       y       z     vdW  Elec       q    Type
REMARK                         _______ _______ _______ _____ _____    ______ ____
ROOT
ATOM      1  C   UNL     1       0.832   1.484  -0.849  0.00  0.00    +0.014 C 
ATOM      2  C   UNL     1       0.442   0.014  -0.682  0.00  0.00    +0.042 C 
ATOM      3  C   UNL     1      -1.068  -0.100  -0.558  0.00  0.00    +0.055 A 
ATOM      4  C   UNL     1      -1.627  -0.959   0.335  0.00  0.00    +0.014 A 
ATOM      5  S   UNL     1      -3.360  -0.708   0.076  0.00  0.00    -0.075 S 
ATOM      6  C   UNL     1      -3.233   0.458  -1.134  0.00  0.00    +0.100 A 
ATOM      7  N   UNL     1      -1.940   0.597  -1.279  0.00  0.00    -0.247 NA
ATOM      8  C   UNL     1      -0.922  -1.867   1.282  0.00  0.00    +0.051 C 
ATOM      9  C   UNL     1       0.553  -1.950   0.882  0.00  0.00    -0.022 C 
ATOM     10  C   UNL     1       1.098  -0.549   0.585  0.00  0.00    +0.033 C 
ATOM     11  C   UNL     1       2.607  -0.680   0.318  0.00  0.00    +0.123 C 
ATOM     12  C   UNL     1       2.813  -1.560  -0.917  0.00  0.00    +0.029 C 
ATOM     13  C   UNL     1       2.222  -2.949  -0.674  0.00  0.00    +0.007 C 
ATOM     14  C   UNL     1       0.729  -2.829  -0.354  0.00  0.00    +0.008 C 
ATOM     15  C   UNL     1       1.356  -2.545   2.041  0.00  0.00    +0.012 C 
ENDROOT
BRANCH  12  16
ATOM     16  C   UNL     1       4.310  -1.691  -1.204  0.00  0.00    +0.078 C 
ATOM     17  C   UNL     1       4.903  -0.304  -1.460  0.00  0.00    +0.017 C 
BRANCH  16  18
ATOM     18  C   UNL     1       4.515  -2.557  -2.420  0.00  0.00    +0.219 C 
ATOM     19  O   UNL     1       3.675  -2.584  -3.294  0.00  0.00    -0.275 OA
ATOM     20  N   UNL     1       5.632  -3.302  -2.536  0.00  0.00    -0.300 N 
ATOM     21  C   UNL     1       6.690  -3.179  -1.532  0.00  0.00    +0.118 C 
ATOM     22  C   UNL     1       6.817  -4.497  -0.760  0.00  0.00    +0.088 C 
ATOM     23  S   UNL     1       7.144  -5.837  -1.945  0.00  0.00    -0.158 S 
ATOM     24  C   UNL     1       5.789  -5.667  -3.146  0.00  0.00    +0.088 C 
ATOM     25  C   UNL     1       5.770  -4.228  -3.661  0.00  0.00    +0.118 C 
ENDBRANCH  16  18
ENDBRANCH  12  16
BRANCH  11  26
ATOM     26  O   UNL     1       3.244  -1.279   1.449  0.00  0.00    -0.391 OA
ATOM     27  H   UNL     1       4.199  -1.392   1.348  0.00  0.00    +0.210 HD
ENDBRANCH  11  26
BRANCH   6  28
ATOM     28  C   UNL     1      -4.340   1.168  -1.870  0.00  0.00    +0.229 C 
BRANCH  28  29
ATOM     29  S   UNL     1      -4.785   0.222  -3.352  0.00  0.00    -0.020 S 
ATOM     30  O   UNL     1      -3.674   0.226  -4.238  0.00  0.00    -0.173 OA
ATOM     31  O   UNL     1      -5.337  -1.022  -2.942  0.00  0.00    -0.173 OA
BRANCH  29  32
ATOM     32  C   UNL     1      -6.108   1.223  -4.085  0.00  0.00    +0.080 C 
ATOM     33  C   UNL     1      -5.569   2.617  -4.414  0.00  0.00    +0.035 C 
ATOM     34  C   UNL     1      -6.604   0.553  -5.367  0.00  0.00    +0.035 C 
ATOM     35  C   UNL     1      -7.265   1.345  -3.092  0.00  0.00    +0.035 C 
ENDBRANCH  29  32
ENDBRANCH  28  29
ENDBRANCH   6  28
TORSDOF 6
