REMARK  Name = ZINC05130491
REMARK  10 active torsions:
REMARK  status: ('A' for Active; 'I' for Inactive)
REMARK    1  A    between atoms: C_1  and  C_2
REMARK    2  A    between atoms: C_2  and  O_3
REMARK    3  A    between atoms: O_3  and  C_4
REMARK    4  A    between atoms: C_7  and  C_13
REMARK    5  A    between atoms: C_8  and  O_10
REMARK    6  A    between atoms: O_10  and  C_11
REMARK    7  A    between atoms: C_11  and  C_12
REMARK    8  A    between atoms: C_20  and  N_33
REMARK    9  A    between atoms: C_21  and  C_31
REMARK   10  A    between atoms: C_22  and  C_24
REMARK                            x       y       z     vdW  Elec       q    Type
REMARK                         _______ _______ _______ _____ _____    ______ ____
ROOT
ATOM      1  C   UNL     1       1.135  -6.048   1.756  0.00  0.00    +0.104 A 
ATOM      2  C   UNL     1       0.557  -7.010   0.922  0.00  0.00    +0.054 A 
ATOM      3  C   UNL     1       0.898  -8.242   1.399  0.00  0.00    +0.223 A 
ATOM      4  N   UNL     1       1.663  -8.061   2.496  0.00  0.00    -0.246 N 
ATOM      5  H   UNL     1       2.049  -8.761   3.044  0.00  0.00    +0.192 HD
ATOM      6  N   UNL     1       1.806  -6.679   2.701  0.00  0.00    -0.170 NA
ATOM      7  O   UNL     1       0.495  -9.394   0.807  0.00  0.00    -0.423 OA
ATOM      8  C   UNL     1      -0.031  -9.309  -0.431  0.00  0.00    +0.200 C 
ATOM      9  C   UNL     1      -0.418  -8.149  -1.006  0.00  0.00    +0.098 C 
ATOM     10  C   UNL     1      -0.301  -6.820  -0.302  0.00  0.00    +0.104 C 
ENDROOT
BRANCH  10  11
ATOM     11  C   UNL     1      -1.669  -6.338   0.106  0.00  0.00    +0.001 A 
ATOM     12  C   UNL     1      -2.408  -7.055   1.028  0.00  0.00    +0.007 A 
ATOM     13  C   UNL     1      -3.663  -6.613   1.403  0.00  0.00    +0.000 A 
ATOM     14  C   UNL     1      -4.181  -5.454   0.856  0.00  0.00    +0.003 A 
ATOM     15  C   UNL     1      -3.444  -4.735  -0.066  0.00  0.00    +0.038 A 
ATOM     16  C   UNL     1      -2.184  -5.174  -0.438  0.00  0.00    +0.127 A 
ATOM     17  F   UNL     1      -1.461  -4.470  -1.336  0.00  0.00    -0.205 F 
ENDBRANCH  10  11
BRANCH   1  21
ATOM     18  C   UNL     1       0.804  -1.827   1.312  0.00  0.00    +0.124 A 
ATOM     19  C   UNL     1       1.124  -2.618   0.216  0.00  0.00    +0.046 A 
ATOM     20  C   UNL     1       1.232  -3.986   0.357  0.00  0.00    +0.017 A 
ATOM     21  C   UNL     1       1.020  -4.577   1.601  0.00  0.00    +0.044 A 
ATOM     22  C   UNL     1       0.698  -3.779   2.704  0.00  0.00    +0.133 A 
ATOM     23  C   UNL     1       0.597  -2.406   2.555  0.00  0.00    +0.092 A 
BRANCH  18  24
ATOM     24  O   UNL     1       0.698  -0.480   1.167  0.00  0.00    -0.492 OA
BRANCH  24  26
ATOM     25  C   UNL     1       0.763   1.573  -0.108  0.00  0.00    +0.048 C 
ATOM     26  C   UNL     1       0.924   0.051  -0.141  0.00  0.00    +0.225 C 
ENDBRANCH  24  26
ENDBRANCH  18  24
BRANCH  22  27
ATOM     27  O   UNL     1       0.490  -4.349   3.919  0.00  0.00    -0.491 OA
BRANCH  27  28
ATOM     28  C   UNL     1       0.165  -3.473   5.000  0.00  0.00    +0.226 C 
ATOM     29  C   UNL     1      -0.032  -4.290   6.278  0.00  0.00    +0.048 C 
ENDBRANCH  27  28
ENDBRANCH  22  27
ENDBRANCH   1  21
BRANCH   8  30
ATOM     30  N   UNL     1      -0.181 -10.469  -1.151  0.00  0.00    -0.328 N 
ATOM     31  H   UNL     1       0.087 -11.317  -0.765  0.00  0.00    +0.145 HD
ATOM     32  H   UNL     1      -0.557 -10.440  -2.045  0.00  0.00    +0.145 HD
ENDBRANCH   8  30
BRANCH   9  33
ATOM     33  C   UNL     1      -0.959  -8.182  -2.332  0.00  0.00    +0.101 C 
ATOM     34  N   UNL     1      -1.388  -8.209  -3.383  0.00  0.00    -0.191 NA
ENDBRANCH   9  33
TORSDOF 8
