REMARK  Name = ZINC37225117
REMARK  4 active torsions:
REMARK  status: ('A' for Active; 'I' for Inactive)
REMARK    1  A    between atoms: C_1  and  N_2
REMARK    2  A    between atoms: C_3  and  C_5
REMARK    3  A    between atoms: C_5  and  N_6
REMARK    4  A    between atoms: C_13  and  C_16
REMARK                            x       y       z     vdW  Elec       q    Type
REMARK                         _______ _______ _______ _____ _____    ______ ____
ROOT
ATOM      1  N   UNL     1       0.939  -4.853  -1.566  0.00  0.00    -0.291 N 
ATOM      2  C   UNL     1       1.430  -3.966  -2.453  0.00  0.00    +0.303 C 
ATOM      3  O   UNL     1       1.226  -2.777  -2.301  0.00  0.00    -0.253 OA
ATOM      4  N   UNL     1       2.148  -4.396  -3.510  0.00  0.00    -0.285 N 
ATOM      5  C   UNL     1       2.788  -3.437  -4.421  0.00  0.00    +0.109 C 
ATOM      6  C   UNL     1       4.276  -3.782  -4.534  0.00  0.00    +0.020 C 
ATOM      7  C   UNL     1       4.426  -5.246  -4.956  0.00  0.00    +0.018 C 
ATOM      8  C   UNL     1       3.800  -6.151  -3.893  0.00  0.00    +0.119 C 
ATOM      9  C   UNL     1       2.311  -5.833  -3.768  0.00  0.00    +0.124 C 
ATOM     10  H   UNL     1       1.039  -5.805  -1.726  0.00  0.00    +0.151 HD
ENDROOT
BRANCH   8  11
ATOM     11  C   UNL     1       3.977  -7.593  -4.292  0.00  0.00    +0.361 C 
ATOM     12  O   UNL     1       4.256  -8.430  -3.450  0.00  0.00    -0.246 OA
ATOM     13  O   UNL     1       3.842  -7.924  -5.458  0.00  0.00    -0.246 OA
ENDBRANCH   8  11
BRANCH   1  14
ATOM     14  C   UNL     1       0.255  -4.381  -0.360  0.00  0.00    +0.201 C 
BRANCH  14  17
ATOM     15  C   UNL     1      -1.288  -6.519   2.416  0.00  0.00    +0.128 C 
ATOM     16  N   UNL     1      -0.851  -5.369   1.620  0.00  0.00    -0.317 N 
ATOM     17  C   UNL     1      -0.195  -5.564   0.459  0.00  0.00    +0.230 C 
ATOM     18  O   UNL     1       0.034  -6.690   0.073  0.00  0.00    -0.274 OA
ATOM     19  H   UNL     1      -1.034  -4.468   1.929  0.00  0.00    +0.148 HD
ENDBRANCH  14  17
ENDBRANCH   1  14
TORSDOF 3
