REMARK  Name = ZINC04031877
REMARK  4 active torsions:
REMARK  status: ('A' for Active; 'I' for Inactive)
REMARK    1  A    between atoms: C_9  and  O_27
REMARK    2  A    between atoms: C_10  and  C_11
REMARK    3  A    between atoms: N_12  and  N_13
REMARK    4  A    between atoms: N_16  and  C_17
REMARK                            x       y       z     vdW  Elec       q    Type
REMARK                         _______ _______ _______ _____ _____    ______ ____
ROOT
ATOM      1  N   UNL     1      -2.573   8.058   0.068  0.00  0.00    -0.191 N 
ATOM      2  C   UNL     1      -2.564   9.405   0.074  0.00  0.00    +0.320 C 
ATOM      3  O   UNL     1      -3.613  10.020   0.087  0.00  0.00    -0.251 OA
ATOM      4  N   UNL     1      -1.392  10.071   0.066  0.00  0.00    -0.293 N 
ATOM      5  H   UNL     1      -3.416   7.578   0.073  0.00  0.00    +0.179 HD
ATOM      6  H   UNL     1      -0.555   9.581   0.055  0.00  0.00    +0.151 HD
ENDROOT
BRANCH   4   7
ATOM      7  C   UNL     1      -1.382  11.536   0.073  0.00  0.00    +0.037 C 
ATOM      8  C   UNL     1      -2.112  12.057  -1.167  0.00  0.00    +0.029 C 
ATOM      9  C   UNL     1      -2.102  13.587  -1.160  0.00  0.00    -0.008 C 
ATOM     10  C   UNL     1      -0.656  14.088  -1.171  0.00  0.00    +0.007 C 
ATOM     11  C   UNL     1       0.074  13.567   0.068  0.00  0.00    -0.008 C 
ATOM     12  C   UNL     1       0.064  12.037   0.061  0.00  0.00    +0.029 C 
ATOM     13  C   UNL     1      -0.632  14.076   1.327  0.00  0.00    +0.007 C 
ATOM     14  C   UNL     1      -2.078  13.575   1.338  0.00  0.00    -0.008 C 
ATOM     15  C   UNL     1      -2.808  14.096   0.099  0.00  0.00    +0.007 C 
ATOM     16  C   UNL     1      -2.088  12.045   1.331  0.00  0.00    +0.029 C 
ENDBRANCH   4   7
BRANCH   1  18
ATOM     17  C   UNL     1      -1.373   6.050   0.046  0.00  0.00    +0.142 C 
ATOM     18  N   UNL     1      -1.364   7.349   0.052  0.00  0.00    -0.186 NA
BRANCH  17  28
ATOM     19  C   UNL     1      -0.013   1.076   0.008  0.00  0.00    +0.001 A 
ATOM     20  C   UNL     1      -1.234   1.745   0.017  0.00  0.00    +0.001 A 
ATOM     21  C   UNL     1      -1.286   3.107   0.032  0.00  0.00    +0.009 A 
ATOM     22  C   UNL     1      -0.096   3.845   0.024  0.00  0.00    -0.006 A 
ATOM     23  C   UNL     1       1.148   3.168   0.008  0.00  0.00    -0.017 A 
ATOM     24  C   UNL     1       1.163   1.762   0.000  0.00  0.00    +0.008 A 
ATOM     25  C   UNL     1       2.341   3.910   0.000  0.00  0.00    +0.012 A 
ATOM     26  C   UNL     1       2.315   5.269   0.007  0.00  0.00    +0.046 A 
ATOM     27  C   UNL     1       1.116   5.980   0.022  0.00  0.00    +0.126 A 
ATOM     28  C   UNL     1      -0.105   5.306   0.031  0.00  0.00    +0.044 A 
BRANCH  27  29
ATOM     29  O   UNL     1       1.137   7.338   0.028  0.00  0.00    -0.506 OA
ATOM     30  H   UNL     1       1.135   7.735  -0.854  0.00  0.00    +0.292 HD
ENDBRANCH  27  29
ENDBRANCH  17  28
ENDBRANCH   1  18
TORSDOF 4
