REMARK  Name = ZINC09492437
REMARK  10 active torsions:
REMARK  status: ('A' for Active; 'I' for Inactive)
REMARK    1  A    between atoms: C_1  and  C_2
REMARK    2  A    between atoms: C_2  and  C_4
REMARK    3  A    between atoms: C_2  and  N_59
REMARK    4  A    between atoms: N_6  and  C_7
REMARK    5  A    between atoms: C_9  and  N_15
REMARK    6  A    between atoms: C_12  and  O_13
REMARK    7  A    between atoms: O_13  and  C_14
REMARK    8  A    between atoms: N_20  and  S_23
REMARK    9  A    between atoms: S_23  and  C_26
REMARK   10  A    between atoms: C_27  and  C_28
REMARK                            x       y       z     vdW  Elec       q    Type
REMARK                         _______ _______ _______ _____ _____    ______ ____
ROOT
ATOM      1  C   UNL     1      -4.873  -2.679  -1.077  0.00  0.00    -0.060 C 
ATOM      2  C   UNL     1      -4.467  -4.153  -0.971  0.00  0.00    +0.091 C 
ATOM      3  N   UNL     1      -5.685  -4.964  -0.822  0.00  0.00    -0.181 NA
ATOM      4  C   UNL     1      -6.651  -4.584   0.221  0.00  0.00    +0.091 C 
ATOM      5  C   UNL     1      -6.971  -3.093   0.067  0.00  0.00    -0.060 C 
ATOM      6  N   UNL     1      -5.705  -2.330   0.096  0.00  0.00    +0.389 N 
ATOM      7  H   UNL     1      -5.190  -2.570   0.951  0.00  0.00    -0.081 HD
ENDROOT
BRANCH   3   8
ATOM      8  S   UNL     1      -5.962  -6.270  -1.801  0.00  0.00    +0.054 S 
ATOM      9  O   UNL     1      -4.691  -6.703  -2.269  0.00  0.00    -0.153 OA
ATOM     10  O   UNL     1      -6.846  -7.128  -1.093  0.00  0.00    -0.153 OA
BRANCH   8  11
ATOM     11  C   UNL     1      -6.845  -5.687  -3.210  0.00  0.00    +0.153 C 
ATOM     12  C   UNL     1      -6.287  -5.741  -4.411  0.00  0.00    +0.028 C 
BRANCH  12  13
ATOM     13  C   UNL     1      -7.028  -5.252  -5.593  0.00  0.00    -0.024 A 
ATOM     14  C   UNL     1      -8.318  -4.739  -5.448  0.00  0.00    +0.008 A 
ATOM     15  C   UNL     1      -9.002  -4.279  -6.554  0.00  0.00    +0.001 A 
ATOM     16  C   UNL     1      -8.417  -4.337  -7.806  0.00  0.00    +0.000 A 
ATOM     17  C   UNL     1      -7.141  -4.849  -7.957  0.00  0.00    +0.001 A 
ATOM     18  C   UNL     1      -6.444  -5.307  -6.858  0.00  0.00    +0.008 A 
ENDBRANCH  12  13
ENDBRANCH   8  11
ENDBRANCH   3   8
BRANCH   6  20
ATOM     19  C   UNL     1      -7.040  -0.537  -0.960  0.00  0.00    -0.004 C 
ATOM     20  C   UNL     1      -5.989  -0.880   0.098  0.00  0.00    +0.017 C 
BRANCH  20  21
ATOM     21  C   UNL     1      -6.503  -0.491   1.460  0.00  0.00    +0.203 C 
ATOM     22  O   UNL     1      -6.869  -1.347   2.238  0.00  0.00    -0.277 OA
ATOM     23  N   UNL     1      -6.554   0.808   1.816  0.00  0.00    -0.284 N 
ATOM     24  H   UNL     1      -6.319   1.496   1.174  0.00  0.00    +0.155 HD
BRANCH  23  25
ATOM     25  C   UNL     1      -6.948   1.165   3.112  0.00  0.00    +0.078 A 
ATOM     26  C   UNL     1      -7.805   0.343   3.830  0.00  0.00    +0.059 A 
ATOM     27  C   UNL     1      -8.191   0.697   5.109  0.00  0.00    +0.128 A 
ATOM     28  C   UNL     1      -7.729   1.871   5.674  0.00  0.00    +0.036 A 
ATOM     29  C   UNL     1      -6.871   2.693   4.967  0.00  0.00    +0.050 A 
ATOM     30  C   UNL     1      -6.479   2.345   3.684  0.00  0.00    +0.141 A 
BRANCH  27  31
ATOM     31  N   UNL     1      -9.106  -0.181   5.873  0.00  0.00    +0.056 N 
ATOM     32  O   UNL     1      -9.517  -1.213   5.375  0.00  0.00    -0.126 OA
ATOM     33  O   UNL     1      -9.443   0.127   7.002  0.00  0.00    -0.126 OA
ENDBRANCH  27  31
BRANCH  30  34
ATOM     34  O   UNL     1      -5.639   3.155   2.986  0.00  0.00    -0.493 OA
ATOM     35  C   UNL     1      -5.199   4.349   3.635  0.00  0.00    +0.277 C 
ENDBRANCH  30  34
ENDBRANCH  23  25
ENDBRANCH  20  21
ENDBRANCH   6  20
TORSDOF 8
