REMARK  Name = ZINC02740977
REMARK  11 active torsions:
REMARK  status: ('A' for Active; 'I' for Inactive)
REMARK    1  A    between atoms: C_1  and  C_2
REMARK    2  A    between atoms: C_3  and  C_31
REMARK    3  A    between atoms: C_4  and  C_21
REMARK    4  A    between atoms: C_10  and  C_15
REMARK    5  A    between atoms: C_26  and  O_27
REMARK    6  A    between atoms: O_27  and  C_28
REMARK    7  A    between atoms: C_28  and  C_29
REMARK    8  A    between atoms: C_28  and  C_30
REMARK    9  A    between atoms: C_31  and  O_33
REMARK   10  A    between atoms: O_33  and  C_34
REMARK   11  A    between atoms: C_34  and  C_35
REMARK                            x       y       z     vdW  Elec       q    Type
REMARK                         _______ _______ _______ _____ _____    ______ ____
ROOT
ATOM      1  C   UNL     1      -3.062   6.756  -1.995  0.00  0.00    +0.061 C 
ATOM      2  C   UNL     1      -2.173   6.302  -0.867  0.00  0.00    +0.016 C 
ATOM      3  C   UNL     1      -1.065   5.589  -1.135  0.00  0.00    +0.065 C 
ATOM      4  C   UNL     1      -0.161   5.113  -0.036  0.00  0.00    +0.096 C 
ATOM      5  C   UNL     1      -0.411   5.877   1.240  0.00  0.00    +0.024 C 
ATOM      6  C   UNL     1      -1.552   6.578   1.411  0.00  0.00    +0.016 C 
ATOM      7  N   UNL     1      -2.498   6.618   0.423  0.00  0.00    -0.321 N 
ATOM      8  C   UNL     1      -1.817   7.329   2.692  0.00  0.00    +0.059 C 
ATOM      9  C   UNL     1      -0.493   7.806   3.292  0.00  0.00    +0.032 C 
ATOM     10  C   UNL     1       0.400   6.585   3.536  0.00  0.00    +0.088 C 
ATOM     11  C   UNL     1       0.576   5.840   2.241  0.00  0.00    +0.162 C 
ATOM     12  O   UNL     1       1.589   5.195   2.057  0.00  0.00    -0.292 OA
ATOM     13  H   UNL     1      -3.529   6.908   0.675  0.00  0.00    +0.152 HD
ENDROOT
BRANCH   9  14
ATOM     14  C   UNL     1      -0.753   8.512   4.598  0.00  0.00    -0.044 A 
ATOM     15  C   UNL     1      -1.387   7.845   5.630  0.00  0.00    +0.004 A 
ATOM     16  C   UNL     1      -1.621   8.491   6.829  0.00  0.00    +0.000 A 
ATOM     17  C   UNL     1      -1.232   9.807   6.993  0.00  0.00    +0.000 A 
ATOM     18  C   UNL     1      -0.602  10.475   5.960  0.00  0.00    +0.000 A 
ATOM     19  C   UNL     1      -0.363   9.828   4.762  0.00  0.00    +0.004 A 
ENDBRANCH   9  14
BRANCH   4  20
ATOM     20  C   UNL     1      -0.408   3.647   0.208  0.00  0.00    +0.006 A 
ATOM     21  C   UNL     1      -1.663   3.212   0.592  0.00  0.00    +0.008 A 
ATOM     22  C   UNL     1      -1.892   1.867   0.812  0.00  0.00    +0.001 A 
ATOM     23  C   UNL     1      -0.864   0.954   0.659  0.00  0.00    +0.004 A 
ATOM     24  C   UNL     1       0.391   1.383   0.276  0.00  0.00    +0.046 A 
ATOM     25  C   UNL     1       0.623   2.732   0.050  0.00  0.00    +0.125 A 
BRANCH  25  26
ATOM     26  O   UNL     1       1.857   3.158  -0.327  0.00  0.00    -0.489 OA
BRANCH  26  27
ATOM     27  C   UNL     1       2.903   2.184  -0.337  0.00  0.00    +0.167 C 
ATOM     28  C   UNL     1       4.022   2.647  -1.273  0.00  0.00    +0.051 C 
ATOM     29  C   UNL     1       3.459   2.018   1.079  0.00  0.00    +0.051 C 
ENDBRANCH  26  27
ENDBRANCH  25  26
ENDBRANCH   4  20
BRANCH   3  30
ATOM     30  C   UNL     1      -0.747   5.281  -2.478  0.00  0.00    +0.338 C 
ATOM     31  O   UNL     1      -1.500   5.614  -3.374  0.00  0.00    -0.245 OA
BRANCH  30  32
ATOM     32  O   UNL     1       0.393   4.619  -2.767  0.00  0.00    -0.457 OA
BRANCH  32  33
ATOM     33  C   UNL     1       0.652   4.342  -4.144  0.00  0.00    +0.268 C 
BRANCH  33  34
ATOM     34  C   UNL     1       1.959   3.603  -4.271  0.00  0.00    -0.010 A 
ATOM     35  C   UNL     1       3.137   4.306  -4.436  0.00  0.00    +0.007 A 
ATOM     36  C   UNL     1       4.337   3.628  -4.548  0.00  0.00    +0.000 A 
ATOM     37  C   UNL     1       4.356   2.246  -4.505  0.00  0.00    +0.000 A 
ATOM     38  C   UNL     1       3.177   1.543  -4.346  0.00  0.00    +0.000 A 
ATOM     39  C   UNL     1       1.978   2.221  -4.229  0.00  0.00    +0.007 A 
ENDBRANCH  33  34
ENDBRANCH  32  33
ENDBRANCH  30  32
ENDBRANCH   3  30
TORSDOF 8
