REMARK  Name = ZINC03130748
REMARK  8 active torsions:
REMARK  status: ('A' for Active; 'I' for Inactive)
REMARK    1  A    between atoms: C_1  and  N_2
REMARK    2  A    between atoms: N_2  and  C_3
REMARK    3  A    between atoms: N_6  and  C_7
REMARK    4  A    between atoms: C_7  and  C_9
REMARK    5  A    between atoms: C_7  and  N_13
REMARK    6  A    between atoms: N_13  and  C_14
REMARK    7  A    between atoms: C_14  and  N_16
REMARK    8  A    between atoms: N_16  and  C_17
REMARK                            x       y       z     vdW  Elec       q    Type
REMARK                         _______ _______ _______ _____ _____    ______ ____
ROOT
ATOM      1  N   UNL     1      -2.930   1.240  -1.312  0.00  0.00    -0.305 N 
ATOM      2  H   UNL     1      -3.514   1.969  -1.574  0.00  0.00    +0.150 HD
ENDROOT
BRANCH   1   3
ATOM      3  C   UNL     1      -2.908   0.102  -2.033  0.00  0.00    +0.136 C 
ATOM      4  S   UNL     1      -1.878  -1.185  -1.570  0.00  0.00    -0.019 S 
BRANCH   3   5
ATOM      5  N   UNL     1      -3.698  -0.024  -3.118  0.00  0.00    -0.296 N 
ATOM      6  H   UNL     1      -4.330   0.677  -3.342  0.00  0.00    +0.154 HD
BRANCH   5   7
ATOM      7  C   UNL     1      -3.605  -1.165  -3.922  0.00  0.00    +0.046 A 
ATOM      8  C   UNL     1      -3.580  -2.426  -3.341  0.00  0.00    +0.024 A 
ATOM      9  C   UNL     1      -3.495  -3.551  -4.138  0.00  0.00    +0.002 A 
ATOM     10  C   UNL     1      -3.422  -3.422  -5.513  0.00  0.00    +0.001 A 
ATOM     11  C   UNL     1      -3.441  -2.168  -6.095  0.00  0.00    +0.016 A 
ATOM     12  C   UNL     1      -3.532  -1.039  -5.304  0.00  0.00    +0.035 A 
ATOM     13  I   UNL     1      -3.559   0.861  -6.187  0.00  0.00    -0.042 I 
ENDBRANCH   5   7
ENDBRANCH   3   5
ENDBRANCH   1   3
BRANCH   1  14
ATOM     14  C   UNL     1      -2.072   1.377  -0.133  0.00  0.00    +0.212 C 
BRANCH  14  20
ATOM     15  C   UNL     1       2.688   1.979  -0.955  0.00  0.00    +0.133 C 
ATOM     16  N   UNL     1       1.340   2.543  -0.844  0.00  0.00    -0.292 N 
ATOM     17  C   UNL     1       1.141   3.991  -0.946  0.00  0.00    +0.133 C 
ATOM     18  C   UNL     1       0.283   1.730  -0.648  0.00  0.00    +0.303 C 
ATOM     19  O   UNL     1       0.435   0.524  -0.654  0.00  0.00    -0.253 OA
ATOM     20  N   UNL     1      -0.943   2.255  -0.449  0.00  0.00    -0.277 N 
ATOM     21  H   UNL     1      -1.077   3.213  -0.516  0.00  0.00    +0.152 HD
ENDBRANCH  14  20
BRANCH  14  22
ATOM     22  C   UNL     1      -2.879   1.980   1.018  0.00  0.00    +0.225 C 
ATOM     23 CL   UNL     1      -3.497   3.603   0.533  0.00  0.00    -0.080 Cl
ATOM     24 CL   UNL     1      -4.269   0.900   1.408  0.00  0.00    -0.080 Cl
ATOM     25 CL   UNL     1      -1.823   2.148   2.470  0.00  0.00    -0.080 Cl
ENDBRANCH  14  22
ENDBRANCH   1  14
TORSDOF 6
