REMARK  Name = ZINC66255101
REMARK  4 active torsions:
REMARK  status: ('A' for Active; 'I' for Inactive)
REMARK    1  A    between atoms: C_4  and  S_10
REMARK    2  A    between atoms: C_5  and  N_7
REMARK    3  A    between atoms: S_10  and  N_13
REMARK    4  A    between atoms: N_13  and  C_14
REMARK                            x       y       z     vdW  Elec       q    Type
REMARK                         _______ _______ _______ _____ _____    ______ ____
ROOT
ATOM      1  S   UNL     1       3.858  -0.946  -0.222  0.00  0.00    +0.096 S 
ATOM      2  O   UNL     1       3.618  -1.984  -1.162  0.00  0.00    -0.148 OA
ATOM      3  O   UNL     1       4.907  -0.001  -0.382  0.00  0.00    -0.148 OA
ENDROOT
BRANCH   1   7
ATOM      4  C   UNL     1       0.016   1.428   0.090  0.00  0.00    +0.002 A 
ATOM      5  C   UNL     1       1.224   2.084  -0.062  0.00  0.00    +0.002 A 
ATOM      6  C   UNL     1       2.397   1.359  -0.157  0.00  0.00    +0.031 A 
ATOM      7  C   UNL     1       2.363  -0.022  -0.100  0.00  0.00    +0.140 A 
ATOM      8  C   UNL     1       1.156  -0.678   0.052  0.00  0.00    +0.153 A 
ATOM      9  C   UNL     1      -0.018   0.047   0.146  0.00  0.00    +0.035 A 
BRANCH   8  10
ATOM     10  N   UNL     1       1.119  -2.156   0.113  0.00  0.00    +0.058 N 
ATOM     11  O   UNL     1       0.221  -2.761  -0.425  0.00  0.00    -0.126 OA
ATOM     12  O   UNL     1       1.988  -2.759   0.699  0.00  0.00    -0.126 OA
ENDBRANCH   8  10
ENDBRANCH   1   7
BRANCH   1  13
ATOM     13  N   UNL     1       4.101  -1.680   1.242  0.00  0.00    -0.070 NA
BRANCH  13  14
ATOM     14  C   UNL     1       5.207  -2.476   1.438  0.00  0.00    +0.202 A 
ATOM     15  N   UNL     1       5.555  -3.139   2.530  0.00  0.00    -0.226 NA
ATOM     16  C   UNL     1       6.643  -3.869   2.586  0.00  0.00    +0.061 A 
ATOM     17  C   UNL     1       7.389  -3.884   1.401  0.00  0.00    +0.079 A 
ATOM     18  S   UNL     1       6.434  -2.843   0.341  0.00  0.00    -0.046 S 
ATOM     19  C   UNL     1       8.572  -4.585   1.203  0.00  0.00    +0.172 C 
ATOM     20  O   UNL     1       9.174  -4.529   0.148  0.00  0.00    -0.291 OA
ATOM     21  C   UNL     1       9.082  -5.423   2.361  0.00  0.00    +0.080 C 
ATOM     22  C   UNL     1       8.666  -4.773   3.681  0.00  0.00    +0.014 C 
ATOM     23  C   UNL     1       7.141  -4.664   3.783  0.00  0.00    +0.057 C 
ENDBRANCH  13  14
ENDBRANCH   1  13
TORSDOF 4
