REMARK  Name = ZINC42014972
REMARK  4 active torsions:
REMARK  status: ('A' for Active; 'I' for Inactive)
REMARK    1  A    between atoms: C_3  and  C_9
REMARK    2  A    between atoms: C_4  and  N_8
REMARK    3  A    between atoms: C_6  and  N_7
REMARK    4  A    between atoms: N_13  and  C_14
REMARK                            x       y       z     vdW  Elec       q    Type
REMARK                         _______ _______ _______ _____ _____    ______ ____
ROOT
ATOM      1  C   UNL     1       3.651   2.182   0.010  0.00  0.00    +0.189 A 
ATOM      2  N   UNL     1       4.868   1.679   0.068  0.00  0.00    -0.108 NA
ATOM      3  N   UNL     1       5.745   2.613  -0.004  0.00  0.00    -0.022 NA
ATOM      4  N   UNL     1       5.175   3.764  -0.111  0.00  0.00    -0.039 NA
ATOM      5  N   UNL     1       3.788   3.535  -0.113  0.00  0.00    -0.191 N 
ENDROOT
BRANCH   5   6
ATOM      6  C   UNL     1       2.766   4.489  -0.215  0.00  0.00    +0.089 A 
ATOM      7  C   UNL     1       1.702   4.468   0.676  0.00  0.00    +0.049 A 
ATOM      8  C   UNL     1       0.696   5.410   0.573  0.00  0.00    +0.043 A 
ATOM      9  C   UNL     1       0.749   6.375  -0.418  0.00  0.00    +0.021 A 
ATOM     10  C   UNL     1       1.807   6.399  -1.307  0.00  0.00    +0.023 A 
ATOM     11  C   UNL     1       2.819   5.463  -1.205  0.00  0.00    +0.067 A 
ATOM     12 CL   UNL     1       4.152   5.498  -2.318  0.00  0.00    -0.081 Cl
ATOM     13 CL   UNL     1      -0.635   5.383   1.687  0.00  0.00    -0.083 Cl
ENDBRANCH   5   6
BRANCH   1  16
ATOM     14  C   UNL     1       0.199   0.969  -0.828  0.00  0.00    +0.023 A 
ATOM     15  C   UNL     1       1.381   1.675  -0.877  0.00  0.00    +0.015 A 
ATOM     16  C   UNL     1       2.383   1.427   0.062  0.00  0.00    +0.042 A 
ATOM     17  C   UNL     1       2.181   0.457   1.056  0.00  0.00    +0.037 A 
ATOM     18  C   UNL     1       0.989  -0.247   1.098  0.00  0.00    +0.046 A 
ATOM     19  C   UNL     1      -0.001   0.007   0.158  0.00  0.00    +0.026 A 
BRANCH  19  20
ATOM     20  N   UNL     1      -1.200  -0.703   0.202  0.00  0.00    -0.358 N 
ATOM     21  H   UNL     1      -1.893  -0.526  -0.453  0.00  0.00    +0.142 HD
ATOM     22  H   UNL     1      -1.341  -1.374   0.888  0.00  0.00    +0.142 HD
ENDBRANCH  19  20
BRANCH  17  23
ATOM     23  N   UNL     1       3.176   0.204   1.997  0.00  0.00    -0.357 N 
ATOM     24  H   UNL     1       4.011   0.698   1.966  0.00  0.00    +0.142 HD
ATOM     25  H   UNL     1       3.035  -0.467   2.684  0.00  0.00    +0.142 HD
ENDBRANCH  17  23
ENDBRANCH   1  16
TORSDOF 4
