REMARK  Name = ZINC67128979
REMARK  6 active torsions:
REMARK  status: ('A' for Active; 'I' for Inactive)
REMARK    1  A    between atoms: C_1  and  N_2
REMARK    2  A    between atoms: N_2  and  C_3
REMARK    3  A    between atoms: C_14  and  C_16
REMARK    4  A    between atoms: C_16  and  N_17
REMARK    5  A    between atoms: C_19  and  O_27
REMARK    6  A    between atoms: C_22  and  C_24
REMARK                            x       y       z     vdW  Elec       q    Type
REMARK                         _______ _______ _______ _____ _____    ______ ____
ROOT
ATOM      1  C   UNL     1       0.682   1.552  -0.110  0.00  0.00    +0.132 C 
ATOM      2  N   UNL     1       0.796   0.092  -0.111  0.00  0.00    -0.299 N 
ATOM      3  C   UNL     1       0.627  -0.596  -1.258  0.00  0.00    +0.199 C 
ATOM      4  O   UNL     1       0.722  -1.805  -1.259  0.00  0.00    -0.278 OA
ENDROOT
BRANCH   2   5
ATOM      5  C   UNL     1       1.093  -0.621   1.134  0.00  0.00    +0.106 C 
ATOM      6  C   UNL     1       2.443  -0.152   1.672  0.00  0.00    +0.027 C 
ATOM      7  C   UNL     1       2.636  -0.741   3.075  0.00  0.00    +0.007 C 
ATOM      8  C   UNL     1       1.656  -0.053   4.024  0.00  0.00    +0.035 C 
ATOM      9  C   UNL     1       0.259  -0.092   3.463  0.00  0.00    -0.042 A 
ATOM     10  C   UNL     1       0.001  -0.348   2.135  0.00  0.00    -0.024 A 
ATOM     11  C   UNL     1      -1.311  -0.363   1.681  0.00  0.00    +0.006 A 
ATOM     12  C   UNL     1      -2.357  -0.126   2.549  0.00  0.00    +0.000 A 
ATOM     13  C   UNL     1      -2.097   0.128   3.883  0.00  0.00    +0.000 A 
ATOM     14  C   UNL     1      -0.795   0.144   4.335  0.00  0.00    +0.004 A 
ENDBRANCH   2   5
BRANCH   3  15
ATOM     15  C   UNL     1       0.322   0.137  -2.538  0.00  0.00    +0.020 C 
BRANCH  15  16
ATOM     16  N   UNL     1       0.184  -0.831  -3.635  0.00  0.00    +0.395 N 
ATOM     17  C   UNL     1       1.497  -1.448  -3.921  0.00  0.00    -0.045 C 
ATOM     18  C   UNL     1       1.518  -1.641  -5.458  0.00  0.00    +0.097 C 
ATOM     19  C   UNL     1       0.783  -0.364  -5.943  0.00  0.00    +0.023 C 
ATOM     20  C   UNL     1      -0.283  -0.139  -4.851  0.00  0.00    +0.022 C 
ATOM     21  H   UNL     1      -0.477  -1.547  -3.377  0.00  0.00    -0.080 HD
BRANCH  20  22
ATOM     22  C   UNL     1      -0.433   1.335  -4.577  0.00  0.00    +0.197 C 
ATOM     23  O   UNL     1       0.510   1.974  -4.161  0.00  0.00    -0.278 OA
ATOM     24  N   UNL     1      -1.616   1.943  -4.793  0.00  0.00    -0.331 N 
ATOM     25  H   UNL     1      -2.371   1.433  -5.125  0.00  0.00    +0.145 HD
ATOM     26  H   UNL     1      -1.713   2.892  -4.617  0.00  0.00    +0.145 HD
ENDBRANCH  20  22
BRANCH  18  27
ATOM     27  O   UNL     1       2.858  -1.680  -5.950  0.00  0.00    -0.394 OA
ATOM     28  H   UNL     1       2.922  -1.800  -6.908  0.00  0.00    +0.210 HD
ENDBRANCH  18  27
ENDBRANCH  15  16
ENDBRANCH   3  15
TORSDOF 5
