REMARK  Name = ZINC08788993
REMARK  9 active torsions:
REMARK  status: ('A' for Active; 'I' for Inactive)
REMARK    1  A    between atoms: C_1  and  C_2
REMARK    2  A    between atoms: C_2  and  C_4
REMARK    3  A    between atoms: C_2  and  C_5
REMARK    4  A    between atoms: C_5  and  C_7
REMARK    5  A    between atoms: C_5  and  N_20
REMARK    6  A    between atoms: N_9  and  C_10
REMARK    7  A    between atoms: C_10  and  C_11
REMARK    8  A    between atoms: C_11  and  C_12
REMARK    9  A    between atoms: C_23  and  C_39
REMARK                            x       y       z     vdW  Elec       q    Type
REMARK                         _______ _______ _______ _____ _____    ______ ____
ROOT
ATOM      1  N   UNL     1       2.250   1.209  -0.189  0.00  0.00    -0.211 N 
ATOM      2  C   UNL     1       2.121   2.543  -0.017  0.00  0.00    +0.253 C 
ATOM      3  O   UNL     1       3.011   3.363   0.052  0.00  0.00    -0.272 OA
ATOM      4  C   UNL     1       0.635   2.797   0.071  0.00  0.00    +0.153 C 
ATOM      5  C   UNL     1       0.263   3.478   1.366  0.00  0.00    +0.053 A 
ATOM      6  C   UNL     1      -0.648   2.971   2.228  0.00  0.00    -0.015 A 
ATOM      7  C   UNL     1      -0.742   3.913   3.330  0.00  0.00    +0.003 A 
ATOM      8  C   UNL     1      -1.515   3.926   4.495  0.00  0.00    +0.010 A 
ATOM      9  C   UNL     1      -1.345   4.997   5.339  0.00  0.00    +0.001 A 
ATOM     10  C   UNL     1      -0.453   6.019   5.060  0.00  0.00    +0.002 A 
ATOM     11  C   UNL     1       0.323   6.030   3.915  0.00  0.00    +0.026 A 
ATOM     12  C   UNL     1       0.171   4.957   3.039  0.00  0.00    +0.047 A 
ATOM     13  N   UNL     1       0.763   4.658   1.847  0.00  0.00    -0.356 N 
ATOM     14  H   UNL     1       1.436   5.199   1.406  0.00  0.00    +0.166 HD
ATOM     15  C   UNL     1      -1.408   1.679   2.069  0.00  0.00    +0.056 C 
ATOM     16  C   UNL     1      -1.292   1.167   0.626  0.00  0.00    +0.115 C 
ATOM     17  N   UNL     1       0.074   1.429   0.170  0.00  0.00    -0.266 N 
ATOM     18  C   UNL     1       1.061   0.587  -0.141  0.00  0.00    +0.313 C 
ATOM     19  O   UNL     1       0.903  -0.599  -0.353  0.00  0.00    -0.252 OA
ATOM     20  C   UNL     1       0.109   3.549  -1.153  0.00  0.00    +0.048 C 
ENDROOT
BRANCH   1  21
ATOM     21  C   UNL     1       3.528   0.526  -0.404  0.00  0.00    +0.174 C 
BRANCH  21  22
ATOM     22  C   UNL     1       3.501  -0.186  -1.731  0.00  0.00    +0.234 C 
ATOM     23  O   UNL     1       2.454  -0.312  -2.331  0.00  0.00    -0.274 OA
ATOM     24  N   UNL     1       4.640  -0.682  -2.253  0.00  0.00    -0.313 N 
ATOM     25  H   UNL     1       5.487  -0.525  -1.807  0.00  0.00    +0.149 HD
BRANCH  24  26
ATOM     26  C   UNL     1       4.599  -1.460  -3.494  0.00  0.00    +0.109 C 
BRANCH  26  27
ATOM     27  C   UNL     1       6.016  -1.903  -3.865  0.00  0.00    +0.058 C 
BRANCH  27  28
ATOM     28  C   UNL     1       5.974  -2.702  -5.142  0.00  0.00    +0.008 A 
ATOM     29  C   UNL     1       5.813  -4.077  -5.093  0.00  0.00    +0.128 A 
ATOM     30  C   UNL     1       5.769  -4.809  -6.267  0.00  0.00    +0.039 A 
ATOM     31  C   UNL     1       5.897  -4.170  -7.486  0.00  0.00    +0.004 A 
ATOM     32  C   UNL     1       6.064  -2.799  -7.534  0.00  0.00    +0.020 A 
ATOM     33  C   UNL     1       6.103  -2.065  -6.362  0.00  0.00    +0.047 A 
ATOM     34 CL   UNL     1       6.313  -0.342  -6.424  0.00  0.00    -0.083 Cl
ATOM     35  F   UNL     1       5.693  -4.701  -3.902  0.00  0.00    -0.205 F 
ENDBRANCH  27  28
ENDBRANCH  26  27
ENDBRANCH  24  26
ENDBRANCH  21  22
BRANCH  21  37
ATOM     36  C   UNL     1       3.635   0.207   2.072  0.00  0.00    +0.009 C 
ATOM     37  C   UNL     1       3.757  -0.491   0.716  0.00  0.00    +0.013 C 
ATOM     38  C   UNL     1       5.155  -1.096   0.577  0.00  0.00    +0.009 C 
ENDBRANCH  21  37
ENDBRANCH   1  21
TORSDOF 6
