REMARK  Name = ZINC35904197
REMARK  5 active torsions:
REMARK  status: ('A' for Active; 'I' for Inactive)
REMARK    1  A    between atoms: C_5  and  C_7
REMARK    2  A    between atoms: N_9  and  C_10
REMARK    3  A    between atoms: N_9  and  N_18
REMARK    4  A    between atoms: C_10  and  C_11
REMARK    5  A    between atoms: C_11  and  C_13
REMARK                            x       y       z     vdW  Elec       q    Type
REMARK                         _______ _______ _______ _____ _____    ______ ____
ROOT
ATOM      1  C   UNL     1       1.250  -2.159  -0.012  0.00  0.00    +0.265 C 
ATOM      2  O   UNL     1       2.312  -2.746  -0.093  0.00  0.00    -0.268 OA
ATOM      3  N   UNL     1       0.101  -2.856   0.086  0.00  0.00    -0.199 N 
ENDROOT
BRANCH   3   4
ATOM      4  N   UNL     1      -1.128  -2.183   0.103  0.00  0.00    -0.152 N 
ATOM      5  C   UNL     1      -1.869  -2.004  -0.996  0.00  0.00    +0.243 C 
ATOM      6  O   UNL     1      -1.579  -2.392  -2.107  0.00  0.00    -0.273 OA
ATOM      7  C   UNL     1      -3.127  -1.246  -0.637  0.00  0.00    +0.096 C 
ATOM      8  C   UNL     1      -4.339  -2.221  -0.761  0.00  0.00    +0.025 C 
ATOM      9  C   UNL     1      -5.251  -1.694   0.406  0.00  0.00    +0.016 C 
ATOM     10  C   UNL     1      -4.137  -1.904   1.495  0.00  0.00    +0.025 C 
ATOM     11  C   UNL     1      -2.978  -1.011   0.895  0.00  0.00    +0.096 C 
ATOM     12  C   UNL     1      -1.657  -1.670   1.220  0.00  0.00    +0.243 C 
ATOM     13  O   UNL     1      -1.153  -1.725   2.321  0.00  0.00    -0.273 OA
ATOM     14  C   UNL     1      -3.720  -3.343   1.169  0.00  0.00    -0.027 C 
ATOM     15  C   UNL     1      -3.829  -3.533  -0.151  0.00  0.00    -0.027 C 
ENDBRANCH   3   4
BRANCH   1  20
ATOM     16  C   UNL     1      -0.017   1.373  -0.136  0.00  0.00    +0.001 A 
ATOM     17  C   UNL     1       1.164   2.087  -0.036  0.00  0.00    +0.001 A 
ATOM     18  C   UNL     1       2.373   1.425   0.073  0.00  0.00    +0.021 A 
ATOM     19  C   UNL     1       2.409   0.044   0.082  0.00  0.00    +0.053 A 
ATOM     20  C   UNL     1       1.220  -0.682  -0.020  0.00  0.00    +0.057 A 
ATOM     21  C   UNL     1       0.004  -0.006  -0.129  0.00  0.00    +0.014 A 
ATOM     22 CL   UNL     1       3.928  -0.786   0.217  0.00  0.00    -0.083 Cl
ENDBRANCH   1  20
BRANCH   3  23
ATOM     23  C   UNL     1       0.136  -4.318   0.175  0.00  0.00    +0.211 C 
BRANCH  23  24
ATOM     24  C   UNL     1       0.204  -4.904  -1.211  0.00  0.00    +0.189 C 
ATOM     25  O   UNL     1       0.222  -4.172  -2.180  0.00  0.00    -0.290 OA
BRANCH  24  26
ATOM     26  C   UNL     1       0.248  -6.306  -1.384  0.00  0.00    +0.056 A 
ATOM     27  C   UNL     1       0.318  -7.043  -2.562  0.00  0.00    +0.019 A 
ATOM     28  C   UNL     1       0.346  -8.405  -2.410  0.00  0.00    +0.008 A 
ATOM     29  C   UNL     1       0.305  -8.932  -1.159  0.00  0.00    +0.046 A 
ATOM     30  S   UNL     1       0.235  -7.591  -0.149  0.00  0.00    -0.094 S 
ENDBRANCH  24  26
ENDBRANCH  23  24
ENDBRANCH   3  23
TORSDOF 5
