REMARK  Name = ZINC14745444
REMARK  11 active torsions:
REMARK  status: ('A' for Active; 'I' for Inactive)
REMARK    1  A    between atoms: C_1  and  C_2
REMARK    2  A    between atoms: C_2  and  C_3
REMARK    3  A    between atoms: C_2  and  N_4
REMARK    4  A    between atoms: N_4  and  S_5
REMARK    5  A    between atoms: S_5  and  C_8
REMARK    6  A    between atoms: C_10  and  C_27
REMARK    7  A    between atoms: C_12  and  N_14
REMARK    8  A    between atoms: N_14  and  C_15
REMARK    9  A    between atoms: C_15  and  C_16
REMARK   10  A    between atoms: C_20  and  C_22
REMARK   11  A    between atoms: N_29  and  C_30
REMARK                            x       y       z     vdW  Elec       q    Type
REMARK                         _______ _______ _______ _____ _____    ______ ____
ROOT
ATOM      1  C   UNL     1      -2.447   5.661   0.044  0.00  0.00    +0.108 A 
ATOM      2  C   UNL     1      -2.431   4.281   0.031  0.00  0.00    +0.041 A 
ATOM      3  C   UNL     1      -1.214   3.597   0.027  0.00  0.00    +0.040 A 
ATOM      4  C   UNL     1      -0.017   4.313   0.026  0.00  0.00    +0.036 A 
ATOM      5  C   UNL     1      -0.044   5.699   0.033  0.00  0.00    +0.030 A 
ATOM      6  C   UNL     1      -1.261   6.371   0.043  0.00  0.00    +0.051 A 
ENDROOT
BRANCH   3   7
ATOM      7  C   UNL     1      -1.194   2.119   0.019  0.00  0.00    +0.245 C 
ATOM      8  O   UNL     1      -2.238   1.497   0.021  0.00  0.00    -0.270 OA
ATOM      9  N   UNL     1      -0.018   1.461   0.010  0.00  0.00    -0.300 N 
ATOM     10  H   UNL     1       0.816   1.957   0.005  0.00  0.00    +0.150 HD
BRANCH   9  11
ATOM     11  C   UNL     1       0.002  -0.004   0.002  0.00  0.00    +0.159 C 
ATOM     12  C   UNL     1       1.320  -0.497  -0.600  0.00  0.00    +0.032 C 
ATOM     13  C   UNL     1       1.159  -1.892  -1.176  0.00  0.00    +0.004 C 
ATOM     14  C   UNL     1       0.896  -2.960  -0.130  0.00  0.00    +0.019 C 
ATOM     15  C   UNL     1      -0.472  -2.757   0.524  0.00  0.00    +0.104 C 
ATOM     16  N   UNL     1      -0.321  -1.818   1.648  0.00  0.00    -0.314 N 
ATOM     17  C   UNL     1      -0.102  -0.522   1.421  0.00  0.00    +0.233 C 
ATOM     18  O   UNL     1       0.015   0.244   2.354  0.00  0.00    -0.274 OA
ATOM     19  H   UNL     1      -0.382  -2.144   2.560  0.00  0.00    +0.149 HD
ENDBRANCH   9  11
ENDBRANCH   3   7
BRANCH   1  20
ATOM     20  S   UNL     1      -3.985   6.521   0.057  0.00  0.00    +0.059 S 
ATOM     21  O   UNL     1      -4.944   5.629   0.608  0.00  0.00    -0.153 OA
ATOM     22  O   UNL     1      -3.729   7.803   0.614  0.00  0.00    -0.153 OA
BRANCH  20  23
ATOM     23  N   UNL     1      -4.420   6.769  -1.521  0.00  0.00    -0.187 NA
ATOM     24  H   UNL     1      -4.471   7.671  -1.874  0.00  0.00    +0.148 HD
BRANCH  23  26
ATOM     25  C   UNL     1      -5.845   6.008  -3.358  0.00  0.00    +0.025 C 
ATOM     26  C   UNL     1      -4.728   5.626  -2.385  0.00  0.00    +0.070 C 
ATOM     27  C   UNL     1      -3.477   5.232  -3.173  0.00  0.00    +0.025 C 
ENDBRANCH  23  26
ENDBRANCH  20  23
ENDBRANCH   1  20
BRANCH   5  28
ATOM     28  N   UNL     1       1.152   6.421   0.031  0.00  0.00    -0.340 N 
ATOM     29  H   UNL     1       1.133   7.391   0.036  0.00  0.00    +0.146 HD
BRANCH  28  30
ATOM     30  C   UNL     1       2.435   5.714   0.021  0.00  0.00    +0.137 C 
BRANCH  30  31
ATOM     31  C   UNL     1       3.561   6.715   0.020  0.00  0.00    -0.030 A 
ATOM     32  C   UNL     1       4.074   7.176  -1.179  0.00  0.00    +0.005 A 
ATOM     33  C   UNL     1       5.104   8.100  -1.188  0.00  0.00    +0.001 A 
ATOM     34  C   UNL     1       5.634   8.559   0.000  0.00  0.00    +0.011 A 
ATOM     35  C   UNL     1       5.125   8.094   1.213  0.00  0.00    +0.018 A 
ATOM     36  C   UNL     1       4.081   7.166   1.216  0.00  0.00    +0.016 A 
BRANCH  35  37
ATOM     37  C   UNL     1       5.687   8.582   2.490  0.00  0.00    +0.135 A 
ATOM     38  C   UNL     1       6.702   9.476   2.625  0.00  0.00    +0.050 A 
ATOM     39  C   UNL     1       6.906   9.652   4.008  0.00  0.00    +0.042 A 
ATOM     40  C   UNL     1       6.021   8.858   4.642  0.00  0.00    +0.196 A 
ATOM     41  O   UNL     1       5.286   8.213   3.722  0.00  0.00    -0.463 OA
ENDBRANCH  35  37
ENDBRANCH  30  31
ENDBRANCH  28  30
ENDBRANCH   5  28
TORSDOF 9
