REMARK  Name = ZINC35581368
REMARK  6 active torsions:
REMARK  status: ('A' for Active; 'I' for Inactive)
REMARK    1  A    between atoms: C_1  and  C_2
REMARK    2  A    between atoms: C_2  and  C_3
REMARK    3  A    between atoms: C_3  and  N_4
REMARK    4  A    between atoms: N_4  and  C_5
REMARK    5  A    between atoms: C_5  and  C_7
REMARK    6  A    between atoms: C_5  and  C_19
REMARK                            x       y       z     vdW  Elec       q    Type
REMARK                         _______ _______ _______ _____ _____    ______ ____
ROOT
ATOM      1  C   UNL     1      -2.792  -2.511   0.015  0.00  0.00    -0.003 C 
ENDROOT
BRANCH   1   2
ATOM      2  C   UNL     1      -2.772  -4.013   0.131  0.00  0.00    -0.055 A 
ATOM      3  C   UNL     1      -1.824  -4.746  -0.563  0.00  0.00    +0.004 A 
ATOM      4  C   UNL     1      -1.798  -6.123  -0.464  0.00  0.00    +0.028 A 
ATOM      5  C   UNL     1      -2.725  -6.775   0.335  0.00  0.00    +0.067 A 
ATOM      6  C   UNL     1      -3.681  -6.036   1.035  0.00  0.00    +0.067 A 
ATOM      7  C   UNL     1      -3.696  -4.654   0.933  0.00  0.00    +0.030 A 
ATOM      8  N   UNL     1      -4.460  -6.951   1.739  0.00  0.00    -0.306 N 
ATOM      9  H   UNL     1      -5.208  -6.734   2.317  0.00  0.00    +0.170 HD
ATOM     10  C   UNL     1      -3.999  -8.189   1.479  0.00  0.00    +0.325 A 
ATOM     11  O   UNL     1      -4.459  -9.219   1.937  0.00  0.00    -0.247 OA
ATOM     12  N   UNL     1      -2.953  -8.116   0.635  0.00  0.00    -0.306 N 
ATOM     13  H   UNL     1      -2.444  -8.868   0.295  0.00  0.00    +0.170 HD
ENDBRANCH   1   2
BRANCH   1  14
ATOM     14  C   UNL     1      -3.483  -2.115  -1.264  0.00  0.00    -0.019 A 
ATOM     15  C   UNL     1      -4.754  -1.682  -1.448  0.00  0.00    +0.011 A 
ATOM     16  C   UNL     1      -5.178  -1.371  -2.727  0.00  0.00    +0.023 A 
ATOM     17  C   UNL     1      -4.309  -1.509  -3.759  0.00  0.00    +0.055 A 
ATOM     18  S   UNL     1      -2.837  -2.086  -2.928  0.00  0.00    -0.088 S 
ATOM     19 BR   UNL     1      -4.582  -1.170  -5.599  0.00  0.00    -0.043 Br
ENDBRANCH   1  14
BRANCH   1  20
ATOM     20  N   UNL     1      -1.413  -2.002   0.005  0.00  0.00    +0.387 N 
ATOM     21  H   UNL     1      -0.941  -2.328  -0.825  0.00  0.00    -0.085 HD
ATOM     22  H   UNL     1      -0.925  -2.337   0.822  0.00  0.00    -0.085 HD
BRANCH  20  23
ATOM     23  C   UNL     1      -1.433  -0.534   0.013  0.00  0.00    -0.082 C 
BRANCH  23  25
ATOM     24  C   UNL     1      -0.019   1.526   0.010  0.00  0.00    +0.002 C 
ATOM     25  C   UNL     1       0.002  -0.004   0.002  0.00  0.00    -0.022 C 
ENDBRANCH  23  25
ENDBRANCH  20  23
ENDBRANCH   1  20
TORSDOF 5
