REMARK  Name = ZINC46867148
REMARK  9 active torsions:
REMARK  status: ('A' for Active; 'I' for Inactive)
REMARK    1  A    between atoms: C_1  and  C_2
REMARK    2  A    between atoms: C_2  and  N_3
REMARK    3  A    between atoms: N_3  and  C_4
REMARK    4  A    between atoms: N_3  and  C_20
REMARK    5  A    between atoms: C_4  and  C_5
REMARK    6  A    between atoms: C_5  and  N_6
REMARK    7  A    between atoms: N_9  and  N_10
REMARK    8  A    between atoms: C_11  and  C_13
REMARK    9  A    between atoms: C_25  and  C_26
REMARK                            x       y       z     vdW  Elec       q    Type
REMARK                         _______ _______ _______ _____ _____    ______ ____
ROOT
ATOM      1  N   UNL     1      -1.210  -3.265  -2.397  0.00  0.00    -0.297 N 
ATOM      2  C   UNL     1      -0.499  -4.354  -2.752  0.00  0.00    +0.316 C 
ATOM      3  O   UNL     1       0.406  -4.747  -2.042  0.00  0.00    -0.251 OA
ATOM      4  N   UNL     1      -0.793  -5.008  -3.894  0.00  0.00    -0.218 N 
ATOM      5  H   UNL     1      -1.932  -2.951  -2.964  0.00  0.00    +0.150 HD
ATOM      6  H   UNL     1      -0.282  -5.791  -4.149  0.00  0.00    +0.174 HD
ENDROOT
BRANCH   4   7
ATOM      7  N   UNL     1      -1.836  -4.554  -4.712  0.00  0.00    -0.229 N 
ATOM      8  C   UNL     1      -2.130  -5.208  -5.853  0.00  0.00    +0.260 C 
ATOM      9  O   UNL     1      -1.489  -6.190  -6.173  0.00  0.00    -0.269 OA
ATOM     10  H   UNL     1      -2.347  -3.771  -4.456  0.00  0.00    +0.173 HD
BRANCH   8  11
ATOM     11  C   UNL     1      -3.230  -4.730  -6.716  0.00  0.00    +0.038 A 
ATOM     12  C   UNL     1      -3.963  -3.599  -6.354  0.00  0.00    +0.016 A 
ATOM     13  C   UNL     1      -4.988  -3.157  -7.162  0.00  0.00    +0.039 A 
ATOM     14  C   UNL     1      -5.292  -3.834  -8.333  0.00  0.00    +0.123 A 
ATOM     15  C   UNL     1      -4.567  -4.959  -8.697  0.00  0.00    +0.039 A 
ATOM     16  C   UNL     1      -3.536  -5.405  -7.899  0.00  0.00    +0.016 A 
ATOM     17  F   UNL     1      -6.298  -3.397  -9.122  0.00  0.00    -0.205 F 
ENDBRANCH   8  11
ENDBRANCH   4   7
BRANCH   1  18
ATOM     18  C   UNL     1      -0.890  -2.555  -1.156  0.00  0.00    +0.124 C 
BRANCH  18  19
ATOM     19  C   UNL     1      -1.838  -1.365  -0.991  0.00  0.00    +0.124 C 
BRANCH  19  20
ATOM     20  N   UNL     1      -1.438  -0.580   0.179  0.00  0.00    -0.328 N 
BRANCH  20  21
ATOM     21  C   UNL     1      -2.045  -0.810   1.415  0.00  0.00    +0.033 A 
ATOM     22  C   UNL     1      -3.282  -0.245   1.700  0.00  0.00    +0.023 A 
ATOM     23  C   UNL     1      -3.880  -0.475   2.923  0.00  0.00    +0.002 A 
ATOM     24  C   UNL     1      -3.249  -1.267   3.865  0.00  0.00    +0.000 A 
ATOM     25  C   UNL     1      -2.017  -1.830   3.586  0.00  0.00    +0.005 A 
ATOM     26  C   UNL     1      -1.417  -1.609   2.362  0.00  0.00    -0.029 A 
ATOM     27  C   UNL     1      -0.078  -2.229   2.056  0.00  0.00    +0.045 C 
ENDBRANCH  20  21
BRANCH  20  29
ATOM     28  C   UNL     1      -1.048   1.786  -0.305  0.00  0.00    +0.024 C 
ATOM     29  C   UNL     1      -0.400   0.446   0.052  0.00  0.00    +0.102 C 
ENDBRANCH  20  29
ENDBRANCH  19  20
ENDBRANCH  18  19
ENDBRANCH   1  18
TORSDOF 7
