REMARK  Name = ZINC24381178
REMARK  4 active torsions:
REMARK  status: ('A' for Active; 'I' for Inactive)
REMARK    1  A    between atoms: C_9  and  N_11
REMARK    2  A    between atoms: N_11  and  S_12
REMARK    3  A    between atoms: S_12  and  C_15
REMARK    4  A    between atoms: C_17  and  C_22
REMARK                            x       y       z     vdW  Elec       q    Type
REMARK                         _______ _______ _______ _____ _____    ______ ____
ROOT
ATOM      1  S   UNL     1      -1.293   5.959   0.959  0.00  0.00    +0.093 S 
ATOM      2  O   UNL     1      -1.221   7.373   0.832  0.00  0.00    -0.148 OA
ATOM      3  O   UNL     1      -2.462   5.223   0.625  0.00  0.00    -0.148 OA
ENDROOT
BRANCH   1   4
ATOM      4  C   UNL     1      -0.924   5.584   2.640  0.00  0.00    +0.129 A 
ATOM      5  C   UNL     1      -0.700   6.605   3.540  0.00  0.00    +0.045 A 
ATOM      6  C   UNL     1      -0.408   6.306   4.872  0.00  0.00    +0.065 A 
ATOM      7  C   UNL     1      -0.346   4.974   5.286  0.00  0.00    +0.016 A 
ATOM      8  C   UNL     1      -0.573   3.962   4.377  0.00  0.00    +0.023 A 
ATOM      9  C   UNL     1      -0.867   4.265   3.057  0.00  0.00    +0.068 A 
ATOM     10 CL   UNL     1      -1.157   2.985   1.921  0.00  0.00    -0.082 Cl
BRANCH   6  11
ATOM     11  C   UNL     1      -0.167   7.395   5.840  0.00  0.00    +0.387 C 
ATOM     12  O   UNL     1      -0.222   8.553   5.478  0.00  0.00    -0.241 OA
ATOM     13  O   UNL     1       0.114   7.103   7.125  0.00  0.00    -0.241 OA
ENDBRANCH   6  11
ENDBRANCH   1   4
BRANCH   1  14
ATOM     14  N   UNL     1      -0.064   5.339   0.038  0.00  0.00    -0.096 NA
BRANCH  14  23
ATOM     15  C   UNL     1       2.969   6.907   1.422  0.00  0.00    +0.003 A 
ATOM     16  C   UNL     1       3.772   6.991   0.322  0.00  0.00    +0.012 A 
ATOM     17  C   UNL     1       3.316   6.517  -0.916  0.00  0.00    +0.021 A 
ATOM     18  C   UNL     1       3.891   6.457  -2.209  0.00  0.00    +0.113 A 
ATOM     19  N   UNL     1       3.032   5.914  -3.022  0.00  0.00    -0.284 N 
ATOM     20  N   UNL     1       1.861   5.590  -2.326  0.00  0.00    -0.172 NA
ATOM     21  H   UNL     1       3.290   5.776  -4.083  0.00  0.00    +0.188 HD
ATOM     22  C   UNL     1       2.028   5.962  -1.016  0.00  0.00    +0.117 A 
ATOM     23  C   UNL     1       1.218   5.889   0.122  0.00  0.00    +0.102 A 
ATOM     24  C   UNL     1       1.694   6.364   1.330  0.00  0.00    +0.029 A 
ENDBRANCH  14  23
ENDBRANCH   1  14
TORSDOF 4
