REMARK  Name = ZINC44925046
REMARK  5 active torsions:
REMARK  status: ('A' for Active; 'I' for Inactive)
REMARK    1  A    between atoms: C_1  and  C_2
REMARK    2  A    between atoms: C_2  and  C_4
REMARK    3  A    between atoms: C_2  and  N_9
REMARK    4  A    between atoms: N_9  and  C_10
REMARK    5  A    between atoms: C_19  and  N_20
REMARK                            x       y       z     vdW  Elec       q    Type
REMARK                         _______ _______ _______ _____ _____    ______ ____
ROOT
ATOM      1  C   UNL     1       2.019  -0.338  -1.368  0.00  0.00    +0.059 A 
ATOM      2  C   UNL     1       2.627  -0.357  -2.644  0.00  0.00    +0.022 A 
ATOM      3  C   UNL     1       1.929   0.053  -3.790  0.00  0.00    +0.027 A 
ATOM      4  C   UNL     1       2.548   0.021  -5.003  0.00  0.00    +0.019 A 
ATOM      5  C   UNL     1       3.867  -0.415  -5.120  0.00  0.00    +0.017 A 
ATOM      6  C   UNL     1       4.572  -0.819  -4.028  0.00  0.00    +0.027 A 
ATOM      7  C   UNL     1       3.967  -0.800  -2.760  0.00  0.00    +0.048 A 
ATOM      8  N   UNL     1       4.639  -1.191  -1.672  0.00  0.00    -0.359 N 
ATOM      9  C   UNL     1       4.090  -1.180  -0.479  0.00  0.00    +0.107 A 
ATOM     10  C   UNL     1       2.779  -0.753  -0.280  0.00  0.00    +0.063 A 
ATOM     11 BR   UNL     1       1.607   0.573  -6.547  0.00  0.00    -0.050 Br
ATOM     12  H   UNL     1       5.557  -1.492  -1.766  0.00  0.00    +0.165 HD
ENDROOT
BRANCH  10  13
ATOM     13  N   UNL     1       2.226  -0.748   1.009  0.00  0.00    -0.355 N 
ATOM     14  H   UNL     1       1.281  -0.568   1.131  0.00  0.00    +0.142 HD
ATOM     15  H   UNL     1       2.790  -0.924   1.779  0.00  0.00    +0.142 HD
ENDBRANCH  10  13
BRANCH   1  16
ATOM     16  N   UNL     1       0.705   0.089  -1.205  0.00  0.00    -0.332 N 
ATOM     17  H   UNL     1       0.472   1.016  -1.371  0.00  0.00    +0.147 HD
BRANCH  16  19
ATOM     18  C   UNL     1      -1.563  -0.095  -0.308  0.00  0.00    +0.036 C 
ATOM     19  C   UNL     1      -0.327  -0.861  -0.783  0.00  0.00    +0.139 C 
BRANCH  19  20
ATOM     20  C   UNL     1      -0.700  -1.746  -1.944  0.00  0.00    +0.196 A 
ATOM     21  N   UNL     1      -0.858  -3.062  -1.916  0.00  0.00    -0.109 NA
ATOM     22  N   UNL     1      -1.176  -3.441  -3.107  0.00  0.00    -0.021 NA
ATOM     23  N   UNL     1      -1.222  -2.411  -3.877  0.00  0.00    -0.021 NA
ATOM     24  N   UNL     1      -0.940  -1.358  -3.188  0.00  0.00    -0.109 NA
ENDBRANCH  19  20
ENDBRANCH  16  19
ENDBRANCH   1  16
TORSDOF 4
