REMARK  Name = ZINC39152814
REMARK  7 active torsions:
REMARK  status: ('A' for Active; 'I' for Inactive)
REMARK    1  A    between atoms: C_4  and  C_7
REMARK    2  A    between atoms: C_9  and  C_36
REMARK    3  A    between atoms: C_11  and  N_22
REMARK    4  A    between atoms: C_14  and  C_16
REMARK    5  A    between atoms: C_23  and  C_25
REMARK    6  A    between atoms: C_25  and  S_26
REMARK    7  A    between atoms: S_26  and  C_27
REMARK                            x       y       z     vdW  Elec       q    Type
REMARK                         _______ _______ _______ _____ _____    ______ ____
ROOT
ATOM      1  C   UNL     1       3.919  -0.446   0.166  0.00  0.00    +0.073 C 
ATOM      2  C   UNL     1       3.842  -1.221  -1.173  0.00  0.00    +0.149 C 
ATOM      3  C   UNL     1       4.306  -2.639  -0.754  0.00  0.00    +0.224 C 
ATOM      4  O   UNL     1       3.735  -2.806   0.561  0.00  0.00    -0.349 OA
ATOM      5  C   UNL     1       3.877  -1.546   1.245  0.00  0.00    +0.159 C 
ENDROOT
BRANCH   1   9
ATOM      6  C   UNL     1       0.570   2.174   0.573  0.00  0.00    +0.000 A 
ATOM      7  C   UNL     1       0.369   0.816   0.414  0.00  0.00    +0.000 A 
ATOM      8  C   UNL     1       1.453  -0.032   0.282  0.00  0.00    +0.004 A 
ATOM      9  C   UNL     1       2.737   0.478   0.308  0.00  0.00    -0.040 A 
ATOM     10  C   UNL     1       2.938   1.837   0.467  0.00  0.00    +0.004 A 
ATOM     11  C   UNL     1       1.854   2.684   0.600  0.00  0.00    +0.000 A 
ENDBRANCH   1   9
BRANCH   5  12
ATOM     12  C   UNL     1       2.701  -1.321   2.159  0.00  0.00    -0.018 A 
ATOM     13  C   UNL     1       1.585  -2.132   2.062  0.00  0.00    +0.006 A 
ATOM     14  C   UNL     1       0.506  -1.926   2.902  0.00  0.00    +0.000 A 
ATOM     15  C   UNL     1       0.543  -0.910   3.838  0.00  0.00    +0.000 A 
ATOM     16  C   UNL     1       1.659  -0.100   3.936  0.00  0.00    +0.000 A 
ATOM     17  C   UNL     1       2.740  -0.309   3.099  0.00  0.00    +0.006 A 
ENDBRANCH   5  12
BRANCH   3  18
ATOM     18  N   UNL     1       3.781  -3.647  -1.679  0.00  0.00    -0.288 N 
ATOM     19  C   UNL     1       4.521  -4.732  -1.983  0.00  0.00    +0.225 C 
ATOM     20  O   UNL     1       5.620  -4.874  -1.491  0.00  0.00    -0.275 OA
ATOM     21  H   UNL     1       2.902  -3.534  -2.073  0.00  0.00    +0.151 HD
BRANCH  19  22
ATOM     22  C   UNL     1       3.982  -5.769  -2.934  0.00  0.00    +0.173 C 
BRANCH  22  23
ATOM     23  S   UNL     1       5.202  -7.096  -3.138  0.00  0.00    -0.079 S 
BRANCH  23  24
ATOM     24  C   UNL     1       4.434  -8.213  -4.263  0.00  0.00    +0.168 A 
ATOM     25  N   UNL     1       3.245  -8.052  -4.790  0.00  0.00    -0.222 NA
ATOM     26  C   UNL     1       2.964  -9.098  -5.611  0.00  0.00    +0.090 A 
ATOM     27  C   UNL     1       1.863  -9.425  -6.406  0.00  0.00    +0.030 A 
ATOM     28  C   UNL     1       1.875 -10.587  -7.146  0.00  0.00    +0.002 A 
ATOM     29  C   UNL     1       2.971 -11.435  -7.107  0.00  0.00    +0.002 A 
ATOM     30  C   UNL     1       4.067 -11.126  -6.327  0.00  0.00    +0.028 A 
ATOM     31  C   UNL     1       4.073  -9.961  -5.576  0.00  0.00    +0.067 A 
ATOM     32  N   UNL     1       4.990  -9.374  -4.720  0.00  0.00    -0.333 N 
ATOM     33  H   UNL     1       5.864  -9.724  -4.486  0.00  0.00    +0.168 HD
ENDBRANCH  23  24
ENDBRANCH  22  23
ENDBRANCH  19  22
ENDBRANCH   3  18
BRANCH   2  34
ATOM     34  C   UNL     1       2.462  -1.248  -1.685  0.00  0.00    +0.071 C 
ATOM     35  N   UNL     1       1.397  -1.270  -2.080  0.00  0.00    -0.196 NA
ENDBRANCH   2  34
TORSDOF 7
