REMARK  Name = ZINC04541728
REMARK  6 active torsions:
REMARK  status: ('A' for Active; 'I' for Inactive)
REMARK    1  A    between atoms: C_1  and  C_2
REMARK    2  A    between atoms: C_2  and  C_25
REMARK    3  A    between atoms: C_6  and  C_23
REMARK    4  A    between atoms: C_6  and  C_24
REMARK    5  A    between atoms: N_7  and  C_8
REMARK    6  A    between atoms: C_10  and  C_17
REMARK                            x       y       z     vdW  Elec       q    Type
REMARK                         _______ _______ _______ _____ _____    ______ ____
ROOT
ATOM      1  C   UNL     1      -1.056   4.743  -0.203  0.00  0.00    +0.042 A 
ATOM      2  C   UNL     1       0.155   5.383  -0.400  0.00  0.00    +0.050 A 
ATOM      3  C   UNL     1       0.188   6.776  -0.524  0.00  0.00    +0.049 A 
ATOM      4  C   UNL     1      -2.112   6.943  -0.269  0.00  0.00    +0.049 A 
ATOM      5  C   UNL     1      -2.227   5.538  -0.140  0.00  0.00    +0.019 A 
ATOM      6  C   UNL     1      -3.488   4.959   0.051  0.00  0.00    +0.012 A 
ATOM      7  C   UNL     1      -4.594   5.755   0.106  0.00  0.00    +0.001 A 
ATOM      8  C   UNL     1      -4.486   7.137  -0.026  0.00  0.00    +0.002 A 
ATOM      9  C   UNL     1      -3.274   7.732  -0.201  0.00  0.00    +0.026 A 
ATOM     10  N   UNL     1      -0.908   7.582  -0.465  0.00  0.00    -0.354 N 
ATOM     11  H   UNL     1      -0.840   8.602  -0.561  0.00  0.00    +0.166 HD
ENDROOT
BRANCH   1  18
ATOM     12  C   UNL     1       0.573   3.171  -1.849  0.00  0.00    +0.031 C 
ATOM     13  C   UNL     1      -0.776   2.683  -1.306  0.00  0.00    +0.030 C 
ATOM     14  C   UNL     1      -0.746   1.164  -1.159  0.00  0.00    +0.025 C 
ATOM     15  C   UNL     1       0.077   0.763   0.064  0.00  0.00    +0.004 C 
ATOM     16  C   UNL     1      -0.562   1.381   1.306  0.00  0.00    +0.025 C 
ATOM     17  C   UNL     1      -0.586   2.904   1.189  0.00  0.00    +0.030 C 
ATOM     18  N   UNL     1      -1.121   3.364  -0.076  0.00  0.00    -0.319 N 
ATOM     19  C   UNL     1       0.823   3.459   1.429  0.00  0.00    +0.031 C 
ATOM     20  C   UNL     1      -1.489   3.443   2.320  0.00  0.00    +0.031 C 
ATOM     21  C   UNL     1      -1.846   3.028  -2.365  0.00  0.00    +0.031 C 
ENDBRANCH   1  18
BRANCH   3  22
ATOM     22  C   UNL     1       1.490   7.453  -0.735  0.00  0.00    -0.002 A 
ATOM     23  C   UNL     1       2.664   6.705  -0.803  0.00  0.00    +0.010 A 
ATOM     24  C   UNL     1       3.873   7.340  -1.004  0.00  0.00    +0.001 A 
ATOM     25  C   UNL     1       3.922   8.717  -1.128  0.00  0.00    +0.000 A 
ATOM     26  C   UNL     1       2.760   9.465  -1.058  0.00  0.00    +0.001 A 
ATOM     27  C   UNL     1       1.546   8.840  -0.861  0.00  0.00    +0.010 A 
ENDBRANCH   3  22
TORSDOF 2
