REMARK  Name = ZINC40005468
REMARK  7 active torsions:
REMARK  status: ('A' for Active; 'I' for Inactive)
REMARK    1  A    between atoms: C_1  and  C_2
REMARK    2  A    between atoms: C_7  and  N_12
REMARK    3  A    between atoms: C_9  and  C_11
REMARK    4  A    between atoms: C_13  and  C_15
REMARK    5  A    between atoms: C_15  and  C_17
REMARK    6  A    between atoms: C_15  and  N_18
REMARK    7  A    between atoms: N_18  and  C_19
REMARK                            x       y       z     vdW  Elec       q    Type
REMARK                         _______ _______ _______ _____ _____    ______ ____
ROOT
ATOM      1  C   UNL     1      -2.287  -4.298   1.743  0.00  0.00    +0.154 C 
ATOM      2  C   UNL     1      -2.822  -4.349   0.311  0.00  0.00    +0.038 C 
ENDROOT
BRANCH   1   4
ATOM      3  N   UNL     1      -0.612  -2.548   1.244  0.00  0.00    -0.311 N 
ATOM      4  C   UNL     1      -0.873  -3.776   1.733  0.00  0.00    +0.233 C 
ATOM      5  O   UNL     1       0.030  -4.462   2.164  0.00  0.00    -0.274 OA
ATOM      6  H   UNL     1      -1.333  -2.000   0.898  0.00  0.00    +0.149 HD
BRANCH   3  12
ATOM      7  C   UNL     1      -0.019   1.526   0.010  0.00  0.00    +0.008 C 
ATOM      8  C   UNL     1       0.002  -0.004   0.002  0.00  0.00    -0.009 C 
ATOM      9  C   UNL     1       0.718  -0.497  -1.257  0.00  0.00    +0.003 C 
ATOM     10  C   UNL     1       0.739  -2.027  -1.265  0.00  0.00    +0.002 C 
ATOM     11  C   UNL     1       1.479  -2.534  -0.026  0.00  0.00    +0.022 C 
ATOM     12  C   UNL     1       0.763  -2.041   1.233  0.00  0.00    +0.076 C 
ATOM     13  C   UNL     1       0.742  -0.511   1.242  0.00  0.00    +0.009 C 
ATOM     14  C   UNL     1       0.026  -0.018   2.500  0.00  0.00    +0.009 C 
ENDBRANCH   3  12
ENDBRANCH   1   4
BRANCH   1  15
ATOM     15  N   UNL     1      -2.306  -5.644   2.320  0.00  0.00    -0.333 N 
ATOM     16  H   UNL     1      -1.510  -6.197   2.288  0.00  0.00    +0.147 HD
BRANCH  15  17
ATOM     17  C   UNL     1      -3.474  -6.133   2.917  0.00  0.00    +0.031 A 
ATOM     18  C   UNL     1      -4.615  -5.343   2.957  0.00  0.00    +0.027 A 
ATOM     19  C   UNL     1      -5.771  -5.824   3.545  0.00  0.00    +0.051 A 
ATOM     20  C   UNL     1      -5.788  -7.095   4.094  0.00  0.00    +0.162 A 
ATOM     21  C   UNL     1      -4.648  -7.886   4.056  0.00  0.00    +0.164 A 
ATOM     22  C   UNL     1      -3.491  -7.410   3.464  0.00  0.00    +0.072 A 
ATOM     23  O   UNL     1      -4.678  -9.137   4.600  0.00  0.00    -0.488 OA
ATOM     24  C   UNL     1      -4.800  -9.198   6.022  0.00  0.00    +0.232 C 
ATOM     25  C   UNL     1      -6.258  -9.102   6.444  0.00  0.00    +0.082 C 
ATOM     26  C   UNL     1      -6.875  -7.758   6.092  0.00  0.00    +0.232 C 
ATOM     27  O   UNL     1      -6.925  -7.578   4.676  0.00  0.00    -0.488 OA
ENDBRANCH  15  17
ENDBRANCH   1  15
TORSDOF 4
