REMARK  Name = ZINC36146067
REMARK  12 active torsions:
REMARK  status: ('A' for Active; 'I' for Inactive)
REMARK    1  A    between atoms: C_4  and  C_7
REMARK    2  A    between atoms: C_7  and  N_8
REMARK    3  A    between atoms: N_8  and  C_9
REMARK    4  A    between atoms: N_8  and  C_24
REMARK    5  A    between atoms: C_9  and  C_10
REMARK    6  A    between atoms: C_13  and  C_16
REMARK    7  A    between atoms: C_24  and  C_25
REMARK    8  A    between atoms: C_25  and  C_27
REMARK    9  A    between atoms: C_25  and  O_36
REMARK   10  A    between atoms: C_27  and  O_28
REMARK   11  A    between atoms: O_28  and  C_29
REMARK   12  A    between atoms: C_29  and  C_30
REMARK                            x       y       z     vdW  Elec       q    Type
REMARK                         _______ _______ _______ _____ _____    ______ ____
ROOT
ATOM      1  N   UNL     1       4.043  -0.939   1.434  0.00  0.00    +0.387 N 
ATOM      2  H   UNL     1       3.920  -0.068   1.929  0.00  0.00    -0.081 HD
ENDROOT
BRANCH   1   3
ATOM      3  C   UNL     1       3.829  -0.720  -0.003  0.00  0.00    -0.043 C 
BRANCH   3   7
ATOM      4  C   UNL     1       4.280  -4.418  -2.092  0.00  0.00    +0.000 A 
ATOM      5  C   UNL     1       3.035  -4.033  -1.629  0.00  0.00    +0.000 A 
ATOM      6  C   UNL     1       2.890  -2.836  -0.953  0.00  0.00    +0.002 A 
ATOM      7  C   UNL     1       3.988  -2.025  -0.739  0.00  0.00    -0.064 A 
ATOM      8  C   UNL     1       5.233  -2.411  -1.201  0.00  0.00    +0.002 A 
ATOM      9  C   UNL     1       5.378  -3.607  -1.879  0.00  0.00    +0.000 A 
ENDBRANCH   3   7
ENDBRANCH   1   3
BRANCH   1  10
ATOM     10  C   UNL     1       5.407  -1.439   1.655  0.00  0.00    -0.030 C 
BRANCH  10  11
ATOM     11  C   UNL     1       6.417  -0.362   1.255  0.00  0.00    +0.194 C 
ATOM     12  C   UNL     1       7.867  -0.871   1.429  0.00  0.00    +0.104 C 
ATOM     13  C   UNL     1       8.591   0.361   1.938  0.00  0.00    +0.091 C 
ATOM     14  N   UNL     1       7.706   1.216   2.331  0.00  0.00    -0.089 NA
ATOM     15  O   UNL     1       6.381   0.747   2.176  0.00  0.00    -0.392 OA
BRANCH  13  16
ATOM     16  C   UNL     1      10.054   0.551   1.976  0.00  0.00    +0.001 A 
ATOM     17  C   UNL     1      10.904  -0.455   1.513  0.00  0.00    +0.011 A 
ATOM     18  C   UNL     1      12.270  -0.272   1.552  0.00  0.00    +0.022 A 
ATOM     19  C   UNL     1      12.801   0.907   2.048  0.00  0.00    +0.059 A 
ATOM     20  C   UNL     1      11.963   1.910   2.509  0.00  0.00    +0.060 A 
ATOM     21  C   UNL     1      10.593   1.740   2.471  0.00  0.00    +0.031 A 
ATOM     22 CL   UNL     1      12.637   3.384   3.130  0.00  0.00    -0.082 Cl
ATOM     23 CL   UNL     1      14.522   1.129   2.093  0.00  0.00    -0.082 Cl
ENDBRANCH  13  16
ENDBRANCH  10  11
ENDBRANCH   1  10
BRANCH   1  24
ATOM     24  C   UNL     1       3.073  -1.924   1.929  0.00  0.00    -0.044 C 
BRANCH  24  25
ATOM     25  C   UNL     1       1.661  -1.344   1.829  0.00  0.00    +0.124 C 
BRANCH  25  26
ATOM     26  O   UNL     1       1.563  -0.185   2.659  0.00  0.00    -0.391 OA
ATOM     27  H   UNL     1       1.736  -0.355   3.595  0.00  0.00    +0.210 HD
ENDBRANCH  25  26
BRANCH  25  28
ATOM     28  C   UNL     1       0.646  -2.391   2.294  0.00  0.00    +0.189 C 
BRANCH  28  29
ATOM     29  O   UNL     1      -0.678  -1.892   2.092  0.00  0.00    -0.373 OA
BRANCH  29  30
ATOM     30  C   UNL     1      -1.708  -2.798   2.496  0.00  0.00    +0.195 C 
BRANCH  30  31
ATOM     31  C   UNL     1      -3.055  -2.173   2.240  0.00  0.00    -0.022 A 
ATOM     32  C   UNL     1      -3.658  -1.405   3.218  0.00  0.00    +0.006 A 
ATOM     33  C   UNL     1      -4.894  -0.832   2.983  0.00  0.00    +0.000 A 
ATOM     34  C   UNL     1      -5.526  -1.026   1.769  0.00  0.00    +0.000 A 
ATOM     35  C   UNL     1      -4.922  -1.793   0.790  0.00  0.00    +0.000 A 
ATOM     36  C   UNL     1      -3.685  -2.362   1.024  0.00  0.00    +0.006 A 
ENDBRANCH  30  31
ENDBRANCH  29  30
ENDBRANCH  28  29
ENDBRANCH  25  28
ENDBRANCH  24  25
ENDBRANCH   1  24
TORSDOF 12
