REMARK  Name = ZINC18960343
REMARK  15 active torsions:
REMARK  status: ('A' for Active; 'I' for Inactive)
REMARK    1  A    between atoms: C_1  and  C_2
REMARK    2  A    between atoms: C_2  and  C_3
REMARK    3  A    between atoms: C_2  and  C_4
REMARK    4  A    between atoms: C_2  and  C_5
REMARK    5  A    between atoms: C_9  and  S_11
REMARK    6  A    between atoms: S_11  and  C_12
REMARK    7  A    between atoms: C_12  and  C_13
REMARK    8  A    between atoms: N_15  and  C_16
REMARK    9  A    between atoms: N_15  and  C_20
REMARK   10  A    between atoms: C_16  and  C_17
REMARK   11  A    between atoms: C_17  and  O_18
REMARK   12  A    between atoms: O_18  and  C_19
REMARK   13  A    between atoms: C_20  and  C_21
REMARK   14  A    between atoms: N_29  and  C_34
REMARK   15  A    between atoms: N_32  and  C_33
REMARK                            x       y       z     vdW  Elec       q    Type
REMARK                         _______ _______ _______ _____ _____    ______ ____
ROOT
ATOM      1  C   UNL     1      -2.798   4.027   4.886  0.00  0.00    +0.138 A 
ATOM      2  N   UNL     1      -2.639   2.742   4.628  0.00  0.00    -0.213 NA
ATOM      3  C   UNL     1      -2.013   2.350   3.527  0.00  0.00    +0.154 A 
ATOM      4  C   UNL     1      -1.522   3.327   2.640  0.00  0.00    +0.114 A 
ATOM      5  C   UNL     1      -1.714   4.681   2.955  0.00  0.00    +0.115 A 
ATOM      6  N   UNL     1      -2.356   4.976   4.087  0.00  0.00    -0.224 NA
ATOM      7  C   UNL     1      -0.827   2.887   1.427  0.00  0.00    +0.268 A 
ATOM      8  O   UNL     1      -0.381   3.695   0.633  0.00  0.00    -0.267 OA
ATOM      9  N   UNL     1      -0.698   1.558   1.213  0.00  0.00    -0.263 N 
ATOM     10  C   UNL     1      -1.184   0.664   2.089  0.00  0.00    +0.333 A 
ATOM     11  O   UNL     1      -1.038  -0.519   1.853  0.00  0.00    -0.246 OA
ATOM     12  N   UNL     1      -1.825   1.020   3.217  0.00  0.00    -0.281 N 
ATOM     13  C   UNL     1      -2.327  -0.015   4.124  0.00  0.00    +0.155 C 
ATOM     14  C   UNL     1      -0.013   1.086   0.008  0.00  0.00    +0.157 C 
ENDROOT
BRANCH   1  16
ATOM     15  C   UNL     1      -3.583   5.950   6.241  0.00  0.00    +0.019 C 
ATOM     16  C   UNL     1      -3.516   4.424   6.150  0.00  0.00    +0.022 C 
ATOM     17  C   UNL     1      -4.935   3.852   6.132  0.00  0.00    +0.019 C 
ATOM     18  C   UNL     1      -2.760   3.874   7.361  0.00  0.00    +0.019 C 
ENDBRANCH   1  16
BRANCH   5  19
ATOM     19  S   UNL     1      -1.125   5.953   1.888  0.00  0.00    -0.096 S 
BRANCH  19  20
ATOM     20  C   UNL     1      -1.661   7.413   2.813  0.00  0.00    +0.171 C 
BRANCH  20  21
ATOM     21  C   UNL     1      -1.254   8.658   2.068  0.00  0.00    +0.226 C 
ATOM     22  O   UNL     1      -0.658   8.567   1.016  0.00  0.00    -0.275 OA
ATOM     23  N   UNL     1      -1.550   9.872   2.572  0.00  0.00    -0.294 N 
BRANCH  23  24
ATOM     24  C   UNL     1      -2.269   9.982   3.844  0.00  0.00    +0.136 C 
BRANCH  24  25
ATOM     25  C   UNL     1      -1.263  10.033   4.995  0.00  0.00    +0.178 C 
BRANCH  25  26
ATOM     26  O   UNL     1      -0.486  11.228   4.896  0.00  0.00    -0.381 OA
ATOM     27  C   UNL     1       0.490  11.374   5.930  0.00  0.00    +0.194 C 
ENDBRANCH  25  26
ENDBRANCH  24  25
ENDBRANCH  23  24
BRANCH  23  28
ATOM     28  C   UNL     1      -1.154  11.082   1.848  0.00  0.00    +0.143 C 
BRANCH  28  29
ATOM     29  C   UNL     1      -2.255  11.485   0.901  0.00  0.00    -0.030 A 
ATOM     30  C   UNL     1      -2.266  10.999  -0.393  0.00  0.00    +0.005 A 
ATOM     31  C   UNL     1      -3.279  11.364  -1.260  0.00  0.00    +0.000 A 
ATOM     32  C   UNL     1      -4.275  12.223  -0.836  0.00  0.00    +0.000 A 
ATOM     33  C   UNL     1      -4.261  12.713   0.457  0.00  0.00    +0.000 A 
ATOM     34  C   UNL     1      -3.252  12.344   1.325  0.00  0.00    +0.005 A 
ENDBRANCH  28  29
ENDBRANCH  23  28
ENDBRANCH  20  21
ENDBRANCH  19  20
ENDBRANCH   5  19
TORSDOF 9
