REMARK  Name = ZINC64477703
REMARK  5 active torsions:
REMARK  status: ('A' for Active; 'I' for Inactive)
REMARK    1  A    between atoms: C_1  and  N_2
REMARK    2  A    between atoms: C_6  and  N_13
REMARK    3  A    between atoms: N_9  and  C_12
REMARK    4  A    between atoms: N_13  and  S_14
REMARK    5  A    between atoms: S_14  and  C_17
REMARK                            x       y       z     vdW  Elec       q    Type
REMARK                         _______ _______ _______ _____ _____    ______ ____
ROOT
ATOM      1  C   UNL     1      -0.018   1.461   0.010  0.00  0.00    +0.154 C 
ATOM      2  N   UNL     1       0.002  -0.004   0.002  0.00  0.00    -0.295 N 
ATOM      3  C   UNL     1      -1.118  -0.836   0.003  0.00  0.00    +0.070 A 
ATOM      4  C   UNL     1      -2.483  -0.592   0.011  0.00  0.00    +0.030 A 
ATOM      5  C   UNL     1      -3.372  -1.649   0.009  0.00  0.00    +0.029 A 
ATOM      6  C   UNL     1      -2.903  -2.958  -0.001  0.00  0.00    +0.076 A 
ATOM      7  C   UNL     1      -1.539  -3.208  -0.009  0.00  0.00    +0.054 A 
ATOM      8  C   UNL     1      -0.644  -2.150  -0.007  0.00  0.00    +0.071 A 
ATOM      9  N   UNL     1       0.747  -2.075  -0.014  0.00  0.00    -0.295 N 
ATOM     10  C   UNL     1       1.104  -0.777  -0.013  0.00  0.00    +0.330 A 
ATOM     11  O   UNL     1       2.249  -0.365  -0.022  0.00  0.00    -0.246 OA
ATOM     12  C   UNL     1       1.666  -3.217  -0.025  0.00  0.00    +0.154 C 
ENDROOT
BRANCH   6  13
ATOM     13  N   UNL     1      -3.808  -4.024  -0.002  0.00  0.00    -0.098 NA
BRANCH  13  14
ATOM     14  S   UNL     1      -5.438  -3.726   0.009  0.00  0.00    +0.094 S 
ATOM     15  O   UNL     1      -5.731  -3.118   1.259  0.00  0.00    -0.148 OA
ATOM     16  O   UNL     1      -5.745  -3.105  -1.232  0.00  0.00    -0.148 OA
BRANCH  14  17
ATOM     17  C   UNL     1      -6.252  -5.289   0.005  0.00  0.00    +0.148 A 
ATOM     18  C   UNL     1      -7.019  -5.671   1.089  0.00  0.00    +0.070 A 
ATOM     19  C   UNL     1      -7.660  -6.898   1.086  0.00  0.00    +0.125 A 
ATOM     20  C   UNL     1      -7.532  -7.742  -0.004  0.00  0.00    +0.041 A 
ATOM     21  C   UNL     1      -6.766  -7.360  -1.088  0.00  0.00    +0.043 A 
ATOM     22  C   UNL     1      -6.129  -6.131  -1.087  0.00  0.00    +0.150 A 
ATOM     23  F   UNL     1      -5.384  -5.755  -2.149  0.00  0.00    -0.203 F 
ATOM     24  F   UNL     1      -8.409  -7.272   2.146  0.00  0.00    -0.205 F 
ENDBRANCH  14  17
ENDBRANCH  13  14
ENDBRANCH   6  13
TORSDOF 3
