REMARK  Name = ZINC14881139
REMARK  7 active torsions:
REMARK  status: ('A' for Active; 'I' for Inactive)
REMARK    1  A    between atoms: C_3  and  C_6
REMARK    2  A    between atoms: C_6  and  N_59
REMARK    3  A    between atoms: C_13  and  C_24
REMARK    4  A    between atoms: C_15  and  O_16
REMARK    5  A    between atoms: O_16  and  C_17
REMARK    6  A    between atoms: C_17  and  C_18
REMARK    7  A    between atoms: C_27  and  C_30
REMARK                            x       y       z     vdW  Elec       q    Type
REMARK                         _______ _______ _______ _____ _____    ______ ____
ROOT
ATOM      1  C   UNL     1       3.731  -0.635   2.027  0.00  0.00    -0.036 C 
ATOM      2  C   UNL     1       3.914  -0.586   3.529  0.00  0.00    +0.211 C 
ATOM      3  O   UNL     1       5.299  -0.443   3.866  0.00  0.00    -0.490 OA
ATOM      4  C   UNL     1       5.766   0.835   3.881  0.00  0.00    +0.163 A 
ATOM      5  C   UNL     1       5.888   1.543   2.701  0.00  0.00    -0.018 A 
ATOM      6  C   UNL     1       6.327   2.848   2.705  0.00  0.00    +0.015 A 
ATOM      7  C   UNL     1       6.672   3.457   3.912  0.00  0.00    +0.006 A 
ATOM      8  C   UNL     1       6.569   2.741   5.104  0.00  0.00    +0.059 A 
ATOM      9  C   UNL     1       6.116   1.434   5.090  0.00  0.00    +0.163 A 
ATOM     10  C   UNL     1       5.545   0.860   1.390  0.00  0.00    -0.038 C 
ATOM     11  N   UNL     1       4.079   0.639   1.363  0.00  0.00    +0.389 N 
ATOM     12  H   UNL     1       3.621   1.408   1.865  0.00  0.00    -0.081 HD
ENDROOT
BRANCH   7  13
ATOM     13  C   UNL     1       7.148   4.861   3.928  0.00  0.00    +0.089 A 
ATOM     14  C   UNL     1       6.815   5.693   4.997  0.00  0.00    +0.067 A 
ATOM     15  C   UNL     1       7.267   7.002   4.997  0.00  0.00    +0.036 A 
ATOM     16  C   UNL     1       8.037   7.436   3.927  0.00  0.00    +0.074 A 
ATOM     17  C   UNL     1       8.330   6.558   2.901  0.00  0.00    +0.124 A 
ATOM     18  N   UNL     1       7.892   5.315   2.928  0.00  0.00    -0.253 NA
ATOM     19 CL   UNL     1       5.847   5.096   6.309  0.00  0.00    -0.081 Cl
BRANCH  16  20
ATOM     20  C   UNL     1       8.550   8.853   3.885  0.00  0.00    +0.419 C 
ATOM     21  F   UNL     1       9.802   8.914   4.507  0.00  0.00    -0.166 F 
ATOM     22  F   UNL     1       8.670   9.266   2.554  0.00  0.00    -0.166 F 
ATOM     23  F   UNL     1       7.655   9.693   4.556  0.00  0.00    -0.166 F 
ENDBRANCH  16  20
ENDBRANCH   7  13
BRANCH  11  24
ATOM     24  C   UNL     1       3.599   0.625  -0.028  0.00  0.00    -0.003 C 
BRANCH  24  27
ATOM     25  C   UNL     1      -0.016   1.341   0.009  0.00  0.00    +0.041 A 
ATOM     26  C   UNL     1       1.331   1.769  -0.001  0.00  0.00    +0.042 A 
ATOM     27  C   UNL     1       2.092   0.660  -0.014  0.00  0.00    +0.089 A 
ATOM     28  O   UNL     1       1.282  -0.411  -0.012  0.00  0.00    -0.470 OA
ATOM     29  C   UNL     1       0.002  -0.004   0.002  0.00  0.00    +0.195 A 
ENDBRANCH  24  27
ENDBRANCH  11  24
BRANCH   9  30
ATOM     30  O   UNL     1       6.013   0.735   6.253  0.00  0.00    -0.486 OA
BRANCH  30  31
ATOM     31  C   UNL     1       6.390   1.413   7.453  0.00  0.00    +0.260 C 
BRANCH  31  32
ATOM     32  C   UNL     1       6.208   0.475   8.647  0.00  0.00    +0.156 C 
ATOM     33  C   UNL     1       6.497   1.235   9.959  0.00  0.00    +0.037 C 
ATOM     34  C   UNL     1       7.255   0.167  10.797  0.00  0.00    +0.031 C 
ATOM     35  C   UNL     1       8.030  -0.585   9.687  0.00  0.00    +0.160 C 
ATOM     36  O   UNL     1       7.140  -0.610   8.559  0.00  0.00    -0.373 OA
ENDBRANCH  31  32
ENDBRANCH  30  31
ENDBRANCH   9  30
TORSDOF 7
