REMARK  Name = ZINC65525107
REMARK  9 active torsions:
REMARK  status: ('A' for Active; 'I' for Inactive)
REMARK    1  A    between atoms: C_1  and  C_2
REMARK    2  A    between atoms: N_4  and  C_5
REMARK    3  A    between atoms: C_7  and  N_13
REMARK    4  A    between atoms: C_14  and  C_16
REMARK    5  A    between atoms: N_18  and  C_19
REMARK    6  A    between atoms: C_19  and  C_20
REMARK    7  A    between atoms: C_20  and  N_26
REMARK    8  A    between atoms: N_26  and  C_27
REMARK    9  A    between atoms: N_26  and  C_28
REMARK                            x       y       z     vdW  Elec       q    Type
REMARK                         _______ _______ _______ _____ _____    ______ ____
ROOT
ATOM      1  N   UNL     1       1.063  -5.010   0.231  0.00  0.00    -0.275 N 
ATOM      2  C   UNL     1       2.237  -4.372   0.411  0.00  0.00    +0.303 C 
ATOM      3  O   UNL     1       2.255  -3.168   0.568  0.00  0.00    -0.265 OA
ATOM      4  H   UNL     1       1.052  -5.963   0.050  0.00  0.00    +0.155 HD
ENDROOT
BRANCH   1   7
ATOM      5  C   UNL     1      -1.383  -2.272  -0.034  0.00  0.00    +0.071 A 
ATOM      6  C   UNL     1      -0.190  -2.975  -0.109  0.00  0.00    +0.052 A 
ATOM      7  C   UNL     1      -0.139  -4.298   0.306  0.00  0.00    +0.071 A 
ATOM      8  C   UNL     1      -1.284  -4.917   0.798  0.00  0.00    +0.147 A 
ATOM      9  C   UNL     1      -2.473  -4.213   0.872  0.00  0.00    +0.080 A 
ATOM     10  C   UNL     1      -2.525  -2.892   0.462  0.00  0.00    +0.147 A 
ATOM     11  F   UNL     1      -3.686  -2.206   0.541  0.00  0.00    -0.203 F 
ATOM     12  F   UNL     1      -1.236  -6.205   1.202  0.00  0.00    -0.203 F 
BRANCH   5  16
ATOM     13  C   UNL     1      -0.779   0.897  -1.978  0.00  0.00    +0.109 C 
ATOM     14  C   UNL     1      -0.658  -0.516  -1.469  0.00  0.00    +0.214 C 
ATOM     15  O   UNL     1       0.141  -1.276  -1.975  0.00  0.00    -0.276 OA
ATOM     16  N   UNL     1      -1.437  -0.936  -0.453  0.00  0.00    -0.283 N 
ATOM     17  H   UNL     1      -2.035  -0.313  -0.011  0.00  0.00    +0.155 HD
ENDBRANCH   5  16
ENDBRANCH   1   7
BRANCH   2  18
ATOM     18  C   UNL     1       3.514  -5.145   0.418  0.00  0.00    +0.299 C 
ATOM     19  O   UNL     1       3.496  -6.348   0.261  0.00  0.00    -0.265 OA
ATOM     20  N   UNL     1       4.687  -4.507   0.598  0.00  0.00    -0.309 N 
ATOM     21  H   UNL     1       4.702  -3.545   0.723  0.00  0.00    +0.149 HD
BRANCH  20  22
ATOM     22  C   UNL     1       5.941  -5.265   0.604  0.00  0.00    +0.093 C 
BRANCH  22  23
ATOM     23  C   UNL     1       7.102  -4.329   0.942  0.00  0.00    -0.050 C 
ATOM     24  C   UNL     1       8.422  -5.094   0.835  0.00  0.00    -0.010 C 
ATOM     25  C   UNL     1       8.412  -6.268   1.816  0.00  0.00    -0.001 C 
ATOM     26  C   UNL     1       8.243  -5.739   3.242  0.00  0.00    -0.000 C 
ATOM     27  C   UNL     1       6.923  -4.973   3.349  0.00  0.00    -0.001 C 
ATOM     28  C   UNL     1       6.933  -3.800   2.367  0.00  0.00    -0.010 C 
BRANCH  23  29
ATOM     29  N   UNL     1       7.112  -3.202  -0.001  0.00  0.00    +0.381 N 
ATOM     30  C   UNL     1       8.288  -2.359   0.256  0.00  0.00    -0.096 C 
ATOM     31  C   UNL     1       7.168  -3.714  -1.376  0.00  0.00    -0.096 C 
ATOM     32  H   UNL     1       6.273  -2.654   0.120  0.00  0.00    -0.082 HD
ENDBRANCH  23  29
ENDBRANCH  22  23
ENDBRANCH  20  22
ENDBRANCH   2  18
TORSDOF 6
