REMARK  Name = ZINC23418378
REMARK  10 active torsions:
REMARK  status: ('A' for Active; 'I' for Inactive)
REMARK    1  A    between atoms: C_1  and  C_2
REMARK    2  A    between atoms: C_2  and  C_4
REMARK    3  A    between atoms: C_2  and  O_20
REMARK    4  A    between atoms: N_6  and  C_7
REMARK    5  A    between atoms: C_7  and  C_8
REMARK    6  A    between atoms: N_10  and  C_11
REMARK    7  A    between atoms: O_20  and  C_21
REMARK    8  A    between atoms: C_21  and  C_23
REMARK    9  A    between atoms: C_23  and  O_24
REMARK   10  A    between atoms: O_24  and  C_25
REMARK                            x       y       z     vdW  Elec       q    Type
REMARK                         _______ _______ _______ _____ _____    ______ ____
ROOT
ATOM      1  C   UNL     1      -3.707   1.407  -0.010  0.00  0.00    +0.254 C 
ATOM      2  O   UNL     1      -3.945   2.596  -0.007  0.00  0.00    -0.272 OA
ATOM      3  N   UNL     1      -2.430   0.976  -0.007  0.00  0.00    -0.304 N 
ATOM      4  H   UNL     1      -2.214  -0.103  -0.009  0.00  0.00    +0.149 HD
ENDROOT
BRANCH   1   6
ATOM      5  C   UNL     1      -4.823  -0.386   1.289  0.00  0.00    +0.062 C 
ATOM      6  C   UNL     1      -4.838   0.412  -0.016  0.00  0.00    +0.259 C 
BRANCH   6   7
ATOM      7  O   UNL     1      -6.102   1.117  -0.138  0.00  0.00    -0.450 OA
BRANCH   7   8
ATOM      8  C   UNL     1      -7.102   0.472  -0.758  0.00  0.00    +0.346 C 
ATOM      9  O   UNL     1      -6.928  -0.645  -1.186  0.00  0.00    -0.247 OA
BRANCH   8  10
ATOM     10  C   UNL     1      -8.443   1.140  -0.922  0.00  0.00    +0.349 C 
BRANCH  10  11
ATOM     11  O   UNL     1      -9.334   0.259  -1.608  0.00  0.00    -0.481 OA
BRANCH  11  12
ATOM     12  C   UNL     1     -10.594   0.712  -1.838  0.00  0.00    +0.122 A 
ATOM     13  C   UNL     1     -10.967   1.977  -1.407  0.00  0.00    +0.046 A 
ATOM     14  C   UNL     1     -12.248   2.437  -1.645  0.00  0.00    +0.005 A 
ATOM     15  C   UNL     1     -13.161   1.635  -2.305  0.00  0.00    +0.015 A 
ATOM     16  C   UNL     1     -12.793   0.372  -2.732  0.00  0.00    +0.021 A 
ATOM     17  C   UNL     1     -11.511  -0.091  -2.500  0.00  0.00    +0.061 A 
ATOM     18 BR   UNL     1     -14.044  -0.723  -3.633  0.00  0.00    -0.050 Br
ENDBRANCH  11  12
ENDBRANCH  10  11
ENDBRANCH   8  10
ENDBRANCH   7   8
ENDBRANCH   6   7
ENDBRANCH   1   6
BRANCH   3  19
ATOM     19  C   UNL     1      -1.330   1.943  -0.001  0.00  0.00    +0.200 C 
BRANCH  19  20
ATOM     20  C   UNL     1      -0.014   1.208   0.001  0.00  0.00    +0.234 C 
ATOM     21  O   UNL     1       0.003  -0.005  -0.002  0.00  0.00    -0.274 OA
ATOM     22  N   UNL     1       1.143   1.898   0.001  0.00  0.00    -0.282 N 
ATOM     23  H   UNL     1       1.129   2.996  -0.070  0.00  0.00    +0.155 HD
BRANCH  22  24
ATOM     24  C   UNL     1       2.365   1.218   0.092  0.00  0.00    +0.072 A 
ATOM     25  C   UNL     1       2.514  -0.025  -0.508  0.00  0.00    +0.029 A 
ATOM     26  C   UNL     1       3.720  -0.694  -0.422  0.00  0.00    +0.043 A 
ATOM     27  C   UNL     1       4.779  -0.131   0.270  0.00  0.00    +0.161 A 
ATOM     28  C   UNL     1       4.633   1.108   0.875  0.00  0.00    +0.195 A 
ATOM     29  C   UNL     1       3.427   1.784   0.787  0.00  0.00    +0.182 A 
ATOM     30  F   UNL     1       3.284   2.991   1.375  0.00  0.00    -0.200 F 
ATOM     31  F   UNL     1       5.667   1.656   1.550  0.00  0.00    -0.199 F 
ATOM     32  F   UNL     1       5.955  -0.789   0.356  0.00  0.00    -0.202 F 
ENDBRANCH  22  24
ENDBRANCH  19  20
ENDBRANCH   3  19
TORSDOF 9
