REMARK  Name = ZINC12525900
REMARK  14 active torsions:
REMARK  status: ('A' for Active; 'I' for Inactive)
REMARK    1  A    between atoms: C_1  and  C_2
REMARK    2  A    between atoms: C_2  and  N_3
REMARK    3  A    between atoms: N_3  and  C_4
REMARK    4  A    between atoms: C_4  and  C_5
REMARK    5  A    between atoms: N_7  and  C_8
REMARK    6  A    between atoms: C_8  and  C_9
REMARK    7  A    between atoms: C_14  and  C_16
REMARK    8  A    between atoms: C_19  and  C_35
REMARK    9  A    between atoms: C_20  and  S_22
REMARK   10  A    between atoms: S_22  and  N_25
REMARK   11  A    between atoms: N_25  and  C_26
REMARK   12  A    between atoms: C_29  and  O_32
REMARK   13  A    between atoms: O_32  and  C_33
REMARK   14  A    between atoms: C_33  and  C_34
REMARK                            x       y       z     vdW  Elec       q    Type
REMARK                         _______ _______ _______ _____ _____    ______ ____
ROOT
ATOM      1  C   UNL     1      -2.026  -0.866  -2.061  0.00  0.00    +0.039 A 
ATOM      2  C   UNL     1      -2.849  -0.532  -0.984  0.00  0.00    +0.013 A 
ATOM      3  C   UNL     1      -4.218  -0.519  -1.144  0.00  0.00    +0.006 A 
ATOM      4  C   UNL     1      -4.778  -0.836  -2.369  0.00  0.00    -0.024 A 
ATOM      5  C   UNL     1      -3.969  -1.168  -3.441  0.00  0.00    +0.112 A 
ATOM      6  C   UNL     1      -2.597  -1.179  -3.296  0.00  0.00    +0.042 A 
ATOM      7  C   UNL     1      -6.276  -0.820  -2.537  0.00  0.00    +0.046 C 
ENDROOT
BRANCH   1   9
ATOM      8  N   UNL     1      -0.007  -1.449  -0.804  0.00  0.00    -0.289 N 
ATOM      9  C   UNL     1      -0.557  -0.882  -1.897  0.00  0.00    +0.247 C 
ATOM     10  O   UNL     1       0.155  -0.384  -2.747  0.00  0.00    -0.270 OA
BRANCH   8  12
ATOM     11  C   UNL     1       2.064  -2.701  -1.154  0.00  0.00    +0.024 C 
ATOM     12  C   UNL     1       1.445  -1.411  -0.612  0.00  0.00    +0.105 C 
ENDBRANCH   8  12
BRANCH   8  13
ATOM     13  C   UNL     1      -0.861  -2.102   0.190  0.00  0.00    +0.203 C 
BRANCH  13  14
ATOM     14  C   UNL     1      -1.149  -1.140   1.315  0.00  0.00    +0.231 C 
ATOM     15  O   UNL     1      -0.686  -0.020   1.287  0.00  0.00    -0.274 OA
ATOM     16  N   UNL     1      -1.921  -1.526   2.350  0.00  0.00    -0.309 N 
ATOM     17  H   UNL     1      -2.291  -2.422   2.372  0.00  0.00    +0.149 HD
BRANCH  16  18
ATOM     18  C   UNL     1      -2.200  -0.591   3.443  0.00  0.00    +0.146 C 
BRANCH  18  19
ATOM     19  C   UNL     1      -3.079  -1.263   4.466  0.00  0.00    +0.007 A 
ATOM     20  C   UNL     1      -2.721  -1.980   5.560  0.00  0.00    +0.013 A 
ATOM     21  C   UNL     1      -3.711  -2.509   6.367  0.00  0.00    +0.008 A 
ATOM     22  C   UNL     1      -5.009  -2.296   6.042  0.00  0.00    +0.045 A 
ATOM     23  S   UNL     1      -4.861  -1.315   4.558  0.00  0.00    -0.100 S 
ENDBRANCH  18  19
ENDBRANCH  16  18
ENDBRANCH  13  14
ENDBRANCH   8  13
ENDBRANCH   1   9
BRANCH   5  24
ATOM     24  S   UNL     1      -4.692  -1.570  -4.997  0.00  0.00    +0.073 S 
ATOM     25  O   UNL     1      -5.615  -0.532  -5.296  0.00  0.00    -0.150 OA
ATOM     26  O   UNL     1      -3.620  -1.912  -5.866  0.00  0.00    -0.150 OA
BRANCH  24  27
ATOM     27  N   UNL     1      -5.583  -2.949  -4.780  0.00  0.00    -0.216 N 
ATOM     28  H   UNL     1      -6.541  -2.936  -4.935  0.00  0.00    +0.174 HD
BRANCH  27  29
ATOM     29  C   UNL     1      -4.955  -4.132  -4.374  0.00  0.00    +0.048 A 
ATOM     30  C   UNL     1      -3.761  -4.522  -4.965  0.00  0.00    +0.028 A 
ATOM     31  C   UNL     1      -3.142  -5.689  -4.563  0.00  0.00    +0.047 A 
ATOM     32  C   UNL     1      -3.713  -6.472  -3.570  0.00  0.00    +0.121 A 
ATOM     33  C   UNL     1      -4.906  -6.082  -2.980  0.00  0.00    +0.047 A 
ATOM     34  C   UNL     1      -5.524  -4.912  -3.376  0.00  0.00    +0.028 A 
BRANCH  32  35
ATOM     35  O   UNL     1      -3.102  -7.621  -3.175  0.00  0.00    -0.492 OA
BRANCH  35  36
ATOM     36  C   UNL     1      -3.746  -8.377  -2.147  0.00  0.00    +0.225 C 
ATOM     37  C   UNL     1      -2.918  -9.626  -1.839  0.00  0.00    +0.048 C 
ENDBRANCH  35  36
ENDBRANCH  32  35
ENDBRANCH  27  29
ENDBRANCH  24  27
ENDBRANCH   5  24
TORSDOF 11
