REMARK  Name = ZINC13271600
REMARK  9 active torsions:
REMARK  status: ('A' for Active; 'I' for Inactive)
REMARK    1  A    between atoms: C_1  and  C_2
REMARK    2  A    between atoms: C_2  and  C_3
REMARK    3  A    between atoms: C_2  and  C_4
REMARK    4  A    between atoms: C_4  and  C_6
REMARK    5  A    between atoms: C_4  and  N_8
REMARK    6  A    between atoms: C_9  and  C_25
REMARK    7  A    between atoms: C_12  and  S_13
REMARK    8  A    between atoms: S_13  and  C_14
REMARK    9  A    between atoms: C_14  and  C_15
REMARK                            x       y       z     vdW  Elec       q    Type
REMARK                         _______ _______ _______ _____ _____    ______ ____
ROOT
ATOM      1  N   UNL     1       0.625   3.616   1.265  0.00  0.00    -0.287 N 
ATOM      2  C   UNL     1       1.207   4.424   0.313  0.00  0.00    +0.172 A 
ATOM      3  N   UNL     1       2.447   4.636   0.696  0.00  0.00    -0.128 NA
ATOM      4  N   UNL     1       2.675   4.026   1.803  0.00  0.00    -0.122 NA
ATOM      5  C   UNL     1       1.596   3.391   2.201  0.00  0.00    +0.193 A 
ENDROOT
BRANCH   2   6
ATOM      6  C   UNL     1       0.563   4.951  -0.901  0.00  0.00    +0.056 A 
ATOM      7  C   UNL     1       0.975   5.966  -1.727  0.00  0.00    +0.019 A 
ATOM      8  C   UNL     1       0.200   6.283  -2.820  0.00  0.00    +0.008 A 
ATOM      9  C   UNL     1      -0.949   5.593  -3.041  0.00  0.00    +0.046 A 
ATOM     10  S   UNL     1      -0.962   4.441  -1.677  0.00  0.00    -0.094 S 
ENDBRANCH   2   6
BRANCH   1  11
ATOM     11  C   UNL     1      -0.750   3.109   1.275  0.00  0.00    +0.206 C 
BRANCH  11  13
ATOM     12  C   UNL     1      -0.013   1.086   0.008  0.00  0.00    +0.010 C 
ATOM     13  C   UNL     1      -0.729   1.579   1.267  0.00  0.00    +0.017 C 
ATOM     14  C   UNL     1      -2.164   1.050   1.278  0.00  0.00    +0.010 C 
ENDBRANCH  11  13
BRANCH  11  15
ATOM     15  C   UNL     1      -1.455   3.595   2.515  0.00  0.00    +0.379 C 
ATOM     16  O   UNL     1      -1.896   2.800   3.310  0.00  0.00    -0.244 OA
ATOM     17  O   UNL     1      -1.593   4.912   2.736  0.00  0.00    -0.244 OA
ENDBRANCH  11  15
ENDBRANCH   1  11
BRANCH   5  18
ATOM     18  S   UNL     1       1.431   2.426   3.666  0.00  0.00    -0.080 S 
BRANCH  18  19
ATOM     19  C   UNL     1       3.097   2.608   4.351  0.00  0.00    +0.133 C 
BRANCH  19  20
ATOM     20  C   UNL     1       3.194   1.844   5.646  0.00  0.00    +0.059 A 
ATOM     21  C   UNL     1       3.866   0.641   5.702  0.00  0.00    +0.095 A 
ATOM     22  C   UNL     1       3.950  -0.049   6.911  0.00  0.00    +0.259 A 
ATOM     23  O   UNL     1       4.549  -1.112   6.968  0.00  0.00    -0.267 OA
ATOM     24  N   UNL     1       3.357   0.462   8.031  0.00  0.00    -0.262 N 
ATOM     25  C   UNL     1       3.346  -0.100   9.285  0.00  0.00    +0.104 A 
ATOM     26  C   UNL     1       2.729   0.500  10.302  0.00  0.00    +0.067 A 
ATOM     27  S   UNL     1       2.087   1.974   9.524  0.00  0.00    -0.058 S 
ATOM     28  C   UNL     1       2.706   1.658   7.885  0.00  0.00    +0.180 A 
ATOM     29  N   UNL     1       2.628   2.314   6.754  0.00  0.00    -0.227 NA
ENDBRANCH  19  20
ENDBRANCH  18  19
ENDBRANCH   5  18
TORSDOF 7
