REMARK  Name = ZINC36737335
REMARK  3 active torsions:
REMARK  status: ('A' for Active; 'I' for Inactive)
REMARK    1  A    between atoms: C_5  and  N_8
REMARK    2  A    between atoms: C_6  and  N_7
REMARK    3  A    between atoms: C_9  and  C_11
REMARK                            x       y       z     vdW  Elec       q    Type
REMARK                         _______ _______ _______ _____ _____    ______ ____
ROOT
ATOM      1  N   UNL     1       1.247  -2.083  -0.022  0.00  0.00    -0.279 N 
ATOM      2  C   UNL     1       2.411  -2.736   0.166  0.00  0.00    +0.255 C 
ATOM      3  O   UNL     1       3.422  -2.114   0.432  0.00  0.00    -0.269 OA
ATOM      4  H   UNL     1       0.427  -2.582  -0.162  0.00  0.00    +0.155 HD
ENDROOT
BRANCH   1   9
ATOM      5  C   UNL     1       1.006   1.394   1.186  0.00  0.00    +0.040 A 
ATOM      6  C   UNL     1       1.170   2.091   0.002  0.00  0.00    +0.021 A 
ATOM      7  C   UNL     1       1.359   1.408  -1.186  0.00  0.00    +0.032 A 
ATOM      8  C   UNL     1       1.385   0.024  -1.196  0.00  0.00    +0.042 A 
ATOM      9  C   UNL     1       1.222  -0.681  -0.013  0.00  0.00    +0.069 A 
ATOM     10  C   UNL     1       1.030   0.008   1.184  0.00  0.00    +0.048 A 
ATOM     11 BR   UNL     1       1.643  -0.904  -2.823  0.00  0.00    -0.048 Br
ATOM     12 BR   UNL     1       1.136   3.981   0.007  0.00  0.00    -0.050 Br
BRANCH  10  13
ATOM     13  N   UNL     1       0.865  -0.698   2.381  0.00  0.00    -0.356 N 
ATOM     14  H   UNL     1       0.732  -0.218   3.213  0.00  0.00    +0.142 HD
ATOM     15  H   UNL     1       0.882  -1.668   2.378  0.00  0.00    +0.142 HD
ENDBRANCH  10  13
ENDBRANCH   1   9
BRANCH   2  16
ATOM     16  C   UNL     1       2.458  -4.197   0.048  0.00  0.00    +0.075 A 
ATOM     17  C   UNL     1       3.532  -5.048   0.205  0.00  0.00    +0.024 A 
ATOM     18  C   UNL     1       3.287  -6.412   0.033  0.00  0.00    -0.036 A 
ATOM     19  C   UNL     1       2.013  -6.767  -0.275  0.00  0.00    -0.006 A 
ATOM     20  S   UNL     1       1.141  -5.337  -0.327  0.00  0.00    -0.088 S 
ATOM     21  C   UNL     1       1.873  -8.258  -0.442  0.00  0.00    +0.043 C 
ATOM     22  C   UNL     1       3.319  -8.767  -0.626  0.00  0.00    +0.010 C 
ATOM     23  C   UNL     1       4.134  -7.684   0.108  0.00  0.00    +0.036 C 
ENDBRANCH   2  16
TORSDOF 3
