REMARK  Name = ZINC33037108
REMARK  7 active torsions:
REMARK  status: ('A' for Active; 'I' for Inactive)
REMARK    1  A    between atoms: C_1  and  C_2
REMARK    2  A    between atoms: C_3  and  C_30
REMARK    3  A    between atoms: C_4  and  N_26
REMARK    4  A    between atoms: N_5  and  C_7
REMARK    5  A    between atoms: C_10  and  C_13
REMARK    6  A    between atoms: C_23  and  C_25
REMARK    7  A    between atoms: C_27  and  C_29
REMARK                            x       y       z     vdW  Elec       q    Type
REMARK                         _______ _______ _______ _____ _____    ______ ____
ROOT
ATOM      1  C   UNL     1       6.051  -2.598   0.595  0.00  0.00    +0.067 A 
ATOM      2  C   UNL     1       5.161  -3.649   0.400  0.00  0.00    +0.028 A 
ATOM      3  C   UNL     1       3.817  -3.395   0.245  0.00  0.00    +0.015 A 
ATOM      4  C   UNL     1       3.347  -2.080   0.284  0.00  0.00    +0.037 A 
ATOM      5  C   UNL     1       4.244  -1.026   0.474  0.00  0.00    +0.015 A 
ATOM      6  C   UNL     1       5.587  -1.288   0.634  0.00  0.00    +0.028 A 
ENDROOT
BRANCH   4   7
ATOM      7  C   UNL     1       1.906  -1.804   0.118  0.00  0.00    +0.251 C 
ATOM      8  O   UNL     1       1.115  -2.725   0.045  0.00  0.00    -0.270 OA
ATOM      9  N   UNL     1       1.467  -0.531   0.049  0.00  0.00    -0.264 N 
ATOM     10  C   UNL     1       0.124  -0.149   0.002  0.00  0.00    +0.040 A 
ATOM     11  C   UNL     1      -1.024  -0.944   0.017  0.00  0.00    +0.024 A 
ATOM     12  C   UNL     1      -2.273  -0.363  -0.036  0.00  0.00    +0.002 A 
ATOM     13  C   UNL     1      -2.398   1.013  -0.105  0.00  0.00    +0.000 A 
ATOM     14  C   UNL     1      -1.266   1.807  -0.121  0.00  0.00    +0.005 A 
ATOM     15  C   UNL     1      -0.012   1.229  -0.067  0.00  0.00    -0.024 A 
ATOM     16  C   UNL     1       1.367   1.849  -0.068  0.00  0.00    +0.059 C 
ATOM     17  C   UNL     1       2.329   0.653   0.010  0.00  0.00    +0.083 C 
ATOM     18  C   UNL     1       3.229   0.615  -1.227  0.00  0.00    +0.029 C 
ENDBRANCH   4   7
BRANCH   1  23
ATOM     19  C   UNL     1      10.243  -4.801   2.056  0.00  0.00    +0.068 C 
ATOM     20  C   UNL     1       9.272  -3.848   1.408  0.00  0.00    +0.070 A 
ATOM     21  C   UNL     1       9.614  -2.731   0.620  0.00  0.00    +0.045 A 
ATOM     22  C   UNL     1       8.434  -2.133   0.218  0.00  0.00    +0.137 A 
ATOM     23  N   UNL     1       7.415  -2.860   0.752  0.00  0.00    -0.218 N 
ATOM     24  N   UNL     1       7.970  -3.918   1.482  0.00  0.00    -0.169 NA
BRANCH  21  25
ATOM     25  C   UNL     1      10.987  -2.283   0.281  0.00  0.00    -0.013 A 
ATOM     26  C   UNL     1      11.456  -1.055   0.744  0.00  0.00    +0.008 A 
ATOM     27  C   UNL     1      12.736  -0.645   0.430  0.00  0.00    +0.001 A 
ATOM     28  C   UNL     1      13.549  -1.445  -0.353  0.00  0.00    +0.000 A 
ATOM     29  C   UNL     1      13.086  -2.663  -0.819  0.00  0.00    +0.001 A 
ATOM     30  C   UNL     1      11.810  -3.086  -0.506  0.00  0.00    +0.008 A 
ENDBRANCH  21  25
BRANCH  22  31
ATOM     31  N   UNL     1       8.312  -1.000  -0.579  0.00  0.00    -0.270 N 
ATOM     32  C   UNL     1       9.249  -0.726  -1.508  0.00  0.00    +0.215 C 
ATOM     33  O   UNL     1      10.148  -1.514  -1.714  0.00  0.00    -0.276 OA
ATOM     34  C   UNL     1       9.181   0.560  -2.290  0.00  0.00    +0.109 C 
ATOM     35  H   UNL     1       7.450  -0.329  -0.453  0.00  0.00    +0.156 HD
ENDBRANCH  22  31
ENDBRANCH   1  23
TORSDOF 4
