REMARK  Name = ZINC66249356
REMARK  7 active torsions:
REMARK  status: ('A' for Active; 'I' for Inactive)
REMARK    1  A    between atoms: C_1  and  C_2
REMARK    2  A    between atoms: C_4  and  S_8
REMARK    3  A    between atoms: N_6  and  C_7
REMARK    4  A    between atoms: S_8  and  N_11
REMARK    5  A    between atoms: C_14  and  C_17
REMARK    6  A    between atoms: C_17  and  N_18
REMARK    7  A    between atoms: C_22  and  C_25
REMARK                            x       y       z     vdW  Elec       q    Type
REMARK                         _______ _______ _______ _____ _____    ______ ____
ROOT
ATOM      1  N   UNL     1       1.986  -3.631  -1.905  0.00  0.00    -0.102 NA
ATOM      2  C   UNL     1       2.175  -4.666  -2.686  0.00  0.00    +0.192 A 
ATOM      3  N   UNL     1       3.353  -5.193  -3.169  0.00  0.00    -0.338 N 
ATOM      4  C   UNL     1       3.293  -6.291  -3.977  0.00  0.00    +0.008 A 
ATOM      5  C   UNL     1       2.114  -6.833  -4.284  0.00  0.00    +0.068 A 
ATOM      6  S   UNL     1       0.974  -5.778  -3.403  0.00  0.00    -0.057 S 
ATOM      7  H   UNL     1       4.207  -4.792  -2.941  0.00  0.00    +0.167 HD
ENDROOT
BRANCH   1   8
ATOM      8  S   UNL     1       0.452  -3.202  -1.456  0.00  0.00    +0.118 S 
ATOM      9  O   UNL     1      -0.042  -4.254  -0.639  0.00  0.00    -0.145 OA
ATOM     10  O   UNL     1      -0.214  -2.778  -2.638  0.00  0.00    -0.145 OA
BRANCH   8  14
ATOM     11  C   UNL     1       0.731   1.785   0.171  0.00  0.00    +0.084 C 
ATOM     12  C   UNL     1       0.700   0.279   0.208  0.00  0.00    +0.085 A 
ATOM     13  N   UNL     1       0.576  -0.505  -0.828  0.00  0.00    -0.328 N 
ATOM     14  C   UNL     1       0.590  -1.783  -0.420  0.00  0.00    +0.197 A 
ATOM     15  C   UNL     1       0.727  -1.791   0.919  0.00  0.00    +0.134 A 
ATOM     16  N   UNL     1       0.802  -0.484   1.318  0.00  0.00    -0.337 N 
ATOM     17  C   UNL     1       0.962  -0.002   2.692  0.00  0.00    +0.150 C 
ATOM     18  H   UNL     1       0.489  -0.210  -1.748  0.00  0.00    +0.168 HD
ENDBRANCH   8  14
ENDBRANCH   1   8
BRANCH   4  19
ATOM     19  C   UNL     1       4.562  -6.893  -4.523  0.00  0.00    -0.024 C 
BRANCH  19  20
ATOM     20  N   UNL     1       5.206  -5.936  -5.432  0.00  0.00    +0.384 N 
ATOM     21  C   UNL     1       6.512  -6.461  -5.848  0.00  0.00    -0.078 C 
ATOM     22  C   UNL     1       7.222  -5.433  -6.731  0.00  0.00    -0.018 C 
ATOM     23  C   UNL     1       6.365  -5.152  -7.968  0.00  0.00    -0.001 C 
ATOM     24  C   UNL     1       4.980  -4.675  -7.521  0.00  0.00    -0.031 C 
ATOM     25  C   UNL     1       4.353  -5.732  -6.609  0.00  0.00    -0.075 C 
ATOM     26  C   UNL     1       4.091  -4.465  -8.748  0.00  0.00    +0.005 C 
ATOM     27  H   UNL     1       5.336  -5.056  -4.956  0.00  0.00    -0.081 HD
ENDBRANCH  19  20
ENDBRANCH   4  19
TORSDOF 4
