REMARK  Name = ZINC39858377
REMARK  8 active torsions:
REMARK  status: ('A' for Active; 'I' for Inactive)
REMARK    1  A    between atoms: C_1  and  C_2
REMARK    2  A    between atoms: C_5  and  C_8
REMARK    3  A    between atoms: C_16  and  C_18
REMARK    4  A    between atoms: C_19  and  C_20
REMARK    5  A    between atoms: C_23  and  O_28
REMARK    6  A    between atoms: C_24  and  O_26
REMARK    7  A    between atoms: O_26  and  C_27
REMARK    8  A    between atoms: O_28  and  C_29
REMARK                            x       y       z     vdW  Elec       q    Type
REMARK                         _______ _______ _______ _____ _____    ______ ____
ROOT
ATOM      1  C   UNL     1       0.059  -4.244  -0.021  0.00  0.00    +0.028 C 
ATOM      2  C   UNL     1       0.176  -4.927   1.145  0.00  0.00    +0.082 A 
ATOM      3  C   UNL     1       0.323  -6.374   1.372  0.00  0.00    +0.288 A 
ATOM      4  O   UNL     1       0.354  -7.157   0.441  0.00  0.00    -0.265 OA
ATOM      5  N   UNL     1       0.420  -6.799   2.639  0.00  0.00    -0.169 N 
ATOM      6  C   UNL     1       0.380  -5.879   3.649  0.00  0.00    +0.200 A 
ATOM      7  S   UNL     1       0.203  -4.315   2.824  0.00  0.00    -0.044 S 
ATOM      8  N   UNL     1       0.488  -6.482   4.799  0.00  0.00    -0.201 NA
ATOM      9  C   UNL     1       0.604  -7.806   4.596  0.00  0.00    +0.176 A 
ATOM     10  N   UNL     1       0.568  -8.047   3.306  0.00  0.00    -0.142 NA
ENDROOT
BRANCH   1  15
ATOM     11  C   UNL     1       0.223   1.501  -0.015  0.00  0.00    +0.044 C 
ATOM     12  C   UNL     1       0.180  -0.005  -0.017  0.00  0.00    -0.050 A 
ATOM     13  C   UNL     1       0.474  -0.704   1.142  0.00  0.00    +0.004 A 
ATOM     14  C   UNL     1       0.437  -2.082   1.149  0.00  0.00    +0.008 A 
ATOM     15  C   UNL     1       0.101  -2.775  -0.020  0.00  0.00    -0.024 A 
ATOM     16  C   UNL     1      -0.195  -2.061  -1.187  0.00  0.00    +0.008 A 
ATOM     17  C   UNL     1      -0.159  -0.683  -1.175  0.00  0.00    +0.004 A 
ENDBRANCH   1  15
BRANCH   9  18
ATOM     18  C   UNL     1       0.747  -8.823   5.652  0.00  0.00    +0.050 C 
ATOM     19  C   UNL     1       0.770  -8.453   6.943  0.00  0.00    +0.012 C 
BRANCH  19  20
ATOM     20  C   UNL     1       0.913  -9.470   7.999  0.00  0.00    -0.021 A 
ATOM     21  C   UNL     1       1.031 -10.821   7.659  0.00  0.00    +0.012 A 
ATOM     22  C   UNL     1       1.164 -11.771   8.649  0.00  0.00    +0.050 A 
ATOM     23  C   UNL     1       1.182 -11.390   9.983  0.00  0.00    +0.162 A 
ATOM     24  C   UNL     1       1.065 -10.046  10.330  0.00  0.00    +0.162 A 
ATOM     25  C   UNL     1       0.937  -9.086   9.343  0.00  0.00    +0.057 A 
BRANCH  24  26
ATOM     26  O   UNL     1       1.082  -9.677  11.639  0.00  0.00    -0.491 OA
ATOM     27  C   UNL     1       0.957  -8.281  11.921  0.00  0.00    +0.277 C 
ENDBRANCH  24  26
BRANCH  23  28
ATOM     28  O   UNL     1       1.315 -12.331  10.955  0.00  0.00    -0.491 OA
ATOM     29  C   UNL     1       1.430 -13.691  10.530  0.00  0.00    +0.277 C 
ENDBRANCH  23  28
ENDBRANCH  19  20
ENDBRANCH   9  18
TORSDOF 5
