REMARK  Name = ZINC20238734
REMARK  5 active torsions:
REMARK  status: ('A' for Active; 'I' for Inactive)
REMARK    1  A    between atoms: C_4  and  C_7
REMARK    2  A    between atoms: C_13  and  C_14
REMARK    3  A    between atoms: C_17  and  S_19
REMARK    4  A    between atoms: S_19  and  C_20
REMARK    5  A    between atoms: C_20  and  C_21
REMARK                            x       y       z     vdW  Elec       q    Type
REMARK                         _______ _______ _______ _____ _____    ______ ____
ROOT
ATOM      1  C   UNL     1       3.835  -0.539   1.658  0.00  0.00    +0.130 C 
ATOM      2  N   UNL     1       3.987  -1.792   1.302  0.00  0.00    -0.164 NA
ATOM      3  N   UNL     1       5.227  -2.288   0.962  0.00  0.00    -0.152 N 
ATOM      4  C   UNL     1       5.492  -3.587   0.478  0.00  0.00    +0.153 C 
ATOM      5  N   UNL     1       4.587  -4.337  -0.102  0.00  0.00    -0.283 NA
ATOM      6  C   UNL     1       6.896  -4.021   0.689  0.00  0.00    +0.084 C 
ATOM      7  C   UNL     1       7.222  -5.352   0.937  0.00  0.00    +0.063 C 
ATOM      8  C   UNL     1       7.930  -2.967   0.623  0.00  0.00    +0.273 C 
ATOM      9  O   UNL     1       9.084  -3.237   0.329  0.00  0.00    -0.268 OA
ATOM     10  N   UNL     1       7.563  -1.698   0.897  0.00  0.00    -0.152 NA
ATOM     11  C   UNL     1       6.296  -1.425   1.081  0.00  0.00    +0.181 C 
ATOM     12  S   UNL     1       5.504   0.091   1.549  0.00  0.00    -0.033 S 
ATOM     13  H   UNL     1       3.682  -4.005  -0.215  0.00  0.00    +0.188 HD
ENDROOT
BRANCH   1  17
ATOM     14  C   UNL     1       0.279   1.505   2.768  0.00  0.00    +0.000 A 
ATOM     15  C   UNL     1       1.485   2.182   2.747  0.00  0.00    +0.001 A 
ATOM     16  C   UNL     1       2.643   1.524   2.388  0.00  0.00    +0.010 A 
ATOM     17  C   UNL     1       2.596   0.172   2.045  0.00  0.00    +0.009 A 
ATOM     18  C   UNL     1       1.377  -0.505   2.067  0.00  0.00    +0.010 A 
ATOM     19  C   UNL     1       0.226   0.165   2.428  0.00  0.00    +0.001 A 
ENDBRANCH   1  17
BRANCH   7  20
ATOM     20  C   UNL     1       6.211  -6.287   1.171  0.00  0.00    +0.130 A 
ATOM     21  C   UNL     1       6.382  -7.662   1.297  0.00  0.00    +0.050 A 
ATOM     22  C   UNL     1       5.122  -8.205   1.523  0.00  0.00    +0.057 A 
ATOM     23  C   UNL     1       4.223  -7.157   1.528  0.00  0.00    +0.162 A 
ATOM     24  O   UNL     1       4.894  -6.013   1.321  0.00  0.00    -0.449 OA
BRANCH  23  25
ATOM     25  S   UNL     1       2.484  -7.297   1.774  0.00  0.00    -0.080 S 
BRANCH  25  26
ATOM     26  C   UNL     1       1.887  -5.587   1.668  0.00  0.00    +0.151 C 
BRANCH  26  27
ATOM     27  C   UNL     1       0.392  -5.564   1.863  0.00  0.00    +0.115 A 
ATOM     28  C   UNL     1      -0.245  -5.430   3.040  0.00  0.00    +0.045 A 
ATOM     29  C   UNL     1      -1.631  -5.461   2.761  0.00  0.00    +0.041 A 
ATOM     30  C   UNL     1      -1.757  -5.612   1.431  0.00  0.00    +0.195 A 
ATOM     31  O   UNL     1      -0.528  -5.668   0.891  0.00  0.00    -0.467 OA
ENDBRANCH  26  27
ENDBRANCH  25  26
ENDBRANCH  23  25
ENDBRANCH   7  20
TORSDOF 5
