REMARK  Name = ZINC22098452
REMARK  6 active torsions:
REMARK  status: ('A' for Active; 'I' for Inactive)
REMARK    1  A    between atoms: C_1  and  C_2
REMARK    2  A    between atoms: C_2  and  C_27
REMARK    3  A    between atoms: N_5  and  N_9
REMARK    4  A    between atoms: C_10  and  C_12
REMARK    5  A    between atoms: C_27  and  C_28
REMARK    6  A    between atoms: C_28  and  C_29
REMARK                            x       y       z     vdW  Elec       q    Type
REMARK                         _______ _______ _______ _____ _____    ______ ____
ROOT
ATOM      1  N   UNL     1      -0.752  -0.388   4.342  0.00  0.00    -0.223 N 
ATOM      2  C   UNL     1      -0.586  -1.726   4.338  0.00  0.00    +0.233 C 
ATOM      3  O   UNL     1      -0.629  -2.339   3.292  0.00  0.00    -0.274 OA
ATOM      4  H   UNL     1      -0.713   0.168   5.291  0.00  0.00    +0.174 HD
ENDROOT
BRANCH   2   5
ATOM      5  C   UNL     1      -0.346  -2.459   5.632  0.00  0.00    +0.079 C 
ATOM      6  C   UNL     1       0.935  -1.936   6.287  0.00  0.00    +0.032 C 
ATOM      7  C   UNL     1       1.206  -2.727   7.569  0.00  0.00    +0.110 C 
ATOM      8  N   UNL     1       1.347  -4.152   7.246  0.00  0.00    -0.285 N 
ATOM      9  C   UNL     1       0.112  -4.688   6.660  0.00  0.00    +0.110 C 
ATOM     10  C   UNL     1      -0.192  -3.957   5.350  0.00  0.00    +0.032 C 
ATOM     11  C   UNL     1       1.720  -4.875   8.357  0.00  0.00    +0.291 A 
ATOM     12  N   UNL     1       1.065  -5.901   8.838  0.00  0.00    -0.195 NA
ATOM     13  C   UNL     1       1.726  -6.365   9.935  0.00  0.00    +0.111 A 
ATOM     14  C   UNL     1       1.495  -7.413  10.827  0.00  0.00    +0.031 A 
ATOM     15  C   UNL     1       2.370  -7.627  11.870  0.00  0.00    +0.002 A 
ATOM     16  C   UNL     1       3.475  -6.808  12.037  0.00  0.00    +0.004 A 
ATOM     17  C   UNL     1       3.715  -5.768  11.162  0.00  0.00    +0.048 A 
ATOM     18  C   UNL     1       2.846  -5.538  10.108  0.00  0.00    +0.157 A 
ATOM     19  O   UNL     1       2.806  -4.627   9.109  0.00  0.00    -0.424 OA
ENDBRANCH   2   5
BRANCH   1  24
ATOM     20  C   UNL     1      -0.779   3.108   1.291  0.00  0.00    +0.041 C 
ATOM     21  C   UNL     1      -0.729   1.579   1.267  0.00  0.00    +0.112 C 
ATOM     22  C   UNL     1      -0.046   1.048   2.512  0.00  0.00    +0.263 C 
ATOM     23  O   UNL     1       1.094   1.256   2.867  0.00  0.00    -0.271 OA
ATOM     24  N   UNL     1      -0.976   0.294   3.139  0.00  0.00    -0.137 N 
ATOM     25  C   UNL     1      -2.135   0.280   2.471  0.00  0.00    +0.326 C 
ATOM     26  O   UNL     1      -3.120  -0.328   2.840  0.00  0.00    -0.251 OA
ATOM     27  N   UNL     1      -2.087   1.015   1.345  0.00  0.00    -0.284 N 
ATOM     28  H   UNL     1      -2.822   1.238   0.557  0.00  0.00    +0.151 HD
BRANCH  21  29
ATOM     29  C   UNL     1      -0.013   1.086   0.008  0.00  0.00    +0.040 C 
BRANCH  29  30
ATOM     30  C   UNL     1      -0.753   1.593  -1.232  0.00  0.00    +0.038 C 
BRANCH  30  31
ATOM     31  C   UNL     1      -0.047   1.107  -2.471  0.00  0.00    -0.047 A 
ATOM     32  C   UNL     1       0.950   1.873  -3.045  0.00  0.00    +0.003 A 
ATOM     33  C   UNL     1       1.601   1.425  -4.179  0.00  0.00    +0.000 A 
ATOM     34  C   UNL     1       1.246   0.215  -4.746  0.00  0.00    +0.000 A 
ATOM     35  C   UNL     1       0.245  -0.549  -4.176  0.00  0.00    +0.000 A 
ATOM     36  C   UNL     1      -0.402  -0.103  -3.039  0.00  0.00    +0.003 A 
ENDBRANCH  30  31
ENDBRANCH  29  30
ENDBRANCH  21  29
ENDBRANCH   1  24
TORSDOF 5
