REMARK  Name = ZINC09590277
REMARK  11 active torsions:
REMARK  status: ('A' for Active; 'I' for Inactive)
REMARK    1  A    between atoms: C_1  and  C_2
REMARK    2  A    between atoms: C_2  and  C_3
REMARK    3  A    between atoms: C_3  and  C_4
REMARK    4  A    between atoms: C_4  and  C_5
REMARK    5  A    between atoms: C_5  and  C_6
REMARK    6  A    between atoms: C_6  and  C_7
REMARK    7  A    between atoms: C_11  and  C_19
REMARK    8  A    between atoms: C_17  and  O_18
REMARK    9  A    between atoms: C_25  and  C_27
REMARK   10  A    between atoms: C_27  and  C_28
REMARK   11  A    between atoms: C_28  and  C_29
REMARK                            x       y       z     vdW  Elec       q    Type
REMARK                         _______ _______ _______ _____ _____    ______ ____
ROOT
ATOM      1  C   UNL     1      -3.640   1.761   0.028  0.00  0.00    -0.005 A 
ATOM      2  C   UNL     1      -2.458   1.079   0.019  0.00  0.00    +0.018 A 
ATOM      3  C   UNL     1      -1.244   1.781   0.018  0.00  0.00    +0.019 A 
ATOM      4  C   UNL     1      -0.013   1.076   0.008  0.00  0.00    +0.028 A 
ATOM      5  C   UNL     1       1.156   1.788   0.001  0.00  0.00    +0.086 A 
ATOM      6  C   UNL     1       1.098   3.252   0.009  0.00  0.00    +0.347 A 
ATOM      7  O   UNL     1       2.128   3.900   0.003  0.00  0.00    -0.244 OA
ATOM      8  O   UNL     1      -0.089   3.881   0.023  0.00  0.00    -0.422 OA
ATOM      9  C   UNL     1      -1.249   3.187   0.031  0.00  0.00    +0.143 A 
ATOM     10  C   UNL     1      -2.460   3.864   0.045  0.00  0.00    +0.092 A 
ATOM     11  C   UNL     1      -3.649   3.154   0.036  0.00  0.00    +0.124 A 
ENDROOT
BRANCH   5  12
ATOM     12  C   UNL     1       2.462   1.088  -0.015  0.00  0.00    +0.087 A 
ATOM     13  C   UNL     1       3.629   1.802  -0.028  0.00  0.00    +0.077 A 
ATOM     14  S   UNL     1       4.829   0.477  -0.041  0.00  0.00    -0.060 S 
ATOM     15  C   UNL     1       3.664  -0.879  -0.037  0.00  0.00    +0.165 A 
ATOM     16  N   UNL     1       2.512  -0.236  -0.023  0.00  0.00    -0.224 NA
ATOM     17  N   UNL     1       3.908  -2.247  -0.048  0.00  0.00    -0.265 N 
ATOM     18  C   UNL     1       5.175  -2.705  -0.062  0.00  0.00    +0.219 C 
ATOM     19  O   UNL     1       6.103  -1.924  -0.066  0.00  0.00    -0.275 OA
ATOM     20  H   UNL     1       3.166  -2.872  -0.045  0.00  0.00    +0.157 HD
BRANCH  18  21
ATOM     21  C   UNL     1       5.439  -4.189  -0.074  0.00  0.00    +0.105 C 
BRANCH  21  22
ATOM     22  C   UNL     1       6.949  -4.438  -0.089  0.00  0.00    +0.105 C 
BRANCH  22  23
ATOM     23  C   UNL     1       7.213  -5.922  -0.101  0.00  0.00    +0.216 C 
ATOM     24  O   UNL     1       6.285  -6.703  -0.097  0.00  0.00    -0.276 OA
ATOM     25  N   UNL     1       8.480  -6.381  -0.115  0.00  0.00    -0.301 N 
ATOM     26  C   UNL     1       9.692  -5.549  -0.128  0.00  0.00    +0.108 C 
ATOM     27  C   UNL     1      10.903  -6.505  -0.167  0.00  0.00    +0.020 C 
ATOM     28  C   UNL     1      10.297  -7.807  -0.753  0.00  0.00    +0.020 C 
ATOM     29  C   UNL     1       8.880  -7.800  -0.127  0.00  0.00    +0.108 C 
ENDBRANCH  22  23
ENDBRANCH  21  22
ENDBRANCH  18  21
ENDBRANCH   5  12
BRANCH  11  30
ATOM     30  O   UNL     1      -4.832   3.820   0.045  0.00  0.00    -0.506 OA
ATOM     31  H   UNL     1      -5.171   4.007   0.931  0.00  0.00    +0.292 HD
ENDBRANCH  11  30
BRANCH   1  32
ATOM     32  C   UNL     1      -4.942   1.003   0.029  0.00  0.00    +0.039 C 
BRANCH  32  33
ATOM     33  C   UNL     1      -5.503   0.955   1.452  0.00  0.00    +0.005 C 
BRANCH  33  34
ATOM     34  C   UNL     1      -6.825   0.185   1.454  0.00  0.00    +0.000 C 
BRANCH  34  35
ATOM     35  C   UNL     1      -7.386   0.138   2.876  0.00  0.00    -0.000 C 
BRANCH  35  37
ATOM     36  C   UNL     1      -9.269  -0.679   4.301  0.00  0.00    +0.004 C 
ATOM     37  C   UNL     1      -8.708  -0.632   2.878  0.00  0.00    -0.003 C 
ENDBRANCH  35  37
ENDBRANCH  34  35
ENDBRANCH  33  34
ENDBRANCH  32  33
ENDBRANCH   1  32
TORSDOF 10
