REMARK  Name = ZINC58849321
REMARK  9 active torsions:
REMARK  status: ('A' for Active; 'I' for Inactive)
REMARK    1  A    between atoms: C_1  and  O_2
REMARK    2  A    between atoms: O_2  and  C_3
REMARK    3  A    between atoms: C_6  and  N_11
REMARK    4  A    between atoms: C_7  and  O_9
REMARK    5  A    between atoms: O_9  and  C_10
REMARK    6  A    between atoms: N_11  and  S_12
REMARK    7  A    between atoms: S_12  and  C_15
REMARK    8  A    between atoms: C_28  and  C_31
REMARK    9  A    between atoms: C_34  and  N_37
REMARK                            x       y       z     vdW  Elec       q    Type
REMARK                         _______ _______ _______ _____ _____    ______ ____
ROOT
ATOM      1  C   UNL     1      -5.947  -1.879  -2.411  0.00  0.00    +0.109 A 
ATOM      2  C   UNL     1      -5.294  -0.824  -3.022  0.00  0.00    +0.030 A 
ATOM      3  C   UNL     1      -5.093  -0.840  -4.387  0.00  0.00    +0.025 A 
ATOM      4  C   UNL     1      -5.543  -1.915  -5.146  0.00  0.00    +0.031 A 
ATOM      5  C   UNL     1      -6.186  -2.980  -4.534  0.00  0.00    -0.018 A 
ATOM      6  C   UNL     1      -6.385  -2.952  -3.162  0.00  0.00    +0.034 A 
ATOM      7  C   UNL     1      -6.646  -4.168  -5.309  0.00  0.00    +0.049 C 
ATOM      8  C   UNL     1      -8.138  -4.160  -5.528  0.00  0.00    -0.023 C 
ATOM      9  C   UNL     1      -8.425  -4.648  -6.709  0.00  0.00    -0.030 C 
ATOM     10  C   UNL     1      -7.167  -5.047  -7.449  0.00  0.00    +0.033 C 
ATOM     11  C   UNL     1      -6.044  -4.285  -6.708  0.00  0.00    +0.029 C 
ATOM     12  C   UNL     1      -5.842  -2.952  -7.399  0.00  0.00    +0.105 C 
ATOM     13  N   UNL     1      -5.349  -1.909  -6.523  0.00  0.00    -0.336 N 
ATOM     14  H   UNL     1      -4.881  -1.157  -6.918  0.00  0.00    +0.147 HD
ENDROOT
BRANCH  12  15
ATOM     15  C   UNL     1      -7.153  -2.525  -8.008  0.00  0.00    -0.027 A 
ATOM     16  C   UNL     1      -8.123  -1.937  -7.218  0.00  0.00    +0.008 A 
ATOM     17  C   UNL     1      -9.325  -1.545  -7.776  0.00  0.00    +0.033 A 
ATOM     18  C   UNL     1      -9.557  -1.741  -9.125  0.00  0.00    +0.126 A 
ATOM     19  C   UNL     1      -8.586  -2.328  -9.915  0.00  0.00    +0.033 A 
ATOM     20  C   UNL     1      -7.383  -2.716  -9.357  0.00  0.00    +0.008 A 
BRANCH  18  21
ATOM     21  N   UNL     1     -10.845  -1.322  -9.723  0.00  0.00    +0.056 N 
ATOM     22  O   UNL     1     -11.694  -0.809  -9.032  0.00  0.00    -0.126 OA
ATOM     23  O   UNL     1     -11.047  -1.493 -10.902  0.00  0.00    -0.126 OA
ENDBRANCH  18  21
ENDBRANCH  12  15
BRANCH   1  24
ATOM     24  S   UNL     1      -6.214  -1.858  -0.670  0.00  0.00    +0.072 S 
ATOM     25  O   UNL     1      -7.324  -2.709  -0.419  0.00  0.00    -0.150 OA
ATOM     26  O   UNL     1      -6.195  -0.494  -0.273  0.00  0.00    -0.150 OA
BRANCH  24  27
ATOM     27  N   UNL     1      -4.899  -2.575   0.036  0.00  0.00    -0.213 N 
ATOM     28  H   UNL     1      -5.012  -3.375   0.573  0.00  0.00    +0.174 HD
BRANCH  27  32
ATOM     29  C   UNL     1      -1.095  -0.940  -0.495  0.00  0.00    +0.124 A 
ATOM     30  C   UNL     1      -2.200  -0.110  -0.392  0.00  0.00    +0.048 A 
ATOM     31  C   UNL     1      -3.460  -0.651  -0.217  0.00  0.00    +0.032 A 
ATOM     32  C   UNL     1      -3.621  -2.026  -0.143  0.00  0.00    +0.090 A 
ATOM     33  C   UNL     1      -2.511  -2.862  -0.247  0.00  0.00    +0.146 A 
ATOM     34  C   UNL     1      -1.251  -2.317  -0.428  0.00  0.00    +0.093 A 
BRANCH  29  36
ATOM     35  C   UNL     1       0.232   1.020  -0.729  0.00  0.00    +0.277 C 
ATOM     36  O   UNL     1       0.143  -0.405  -0.668  0.00  0.00    -0.495 OA
ENDBRANCH  29  36
BRANCH  33  37
ATOM     37  O   UNL     1      -2.666  -4.211  -0.175  0.00  0.00    -0.493 OA
ATOM     38  C   UNL     1      -1.484  -5.007  -0.289  0.00  0.00    +0.277 C 
ENDBRANCH  33  37
ENDBRANCH  27  32
ENDBRANCH  24  27
ENDBRANCH   1  24
TORSDOF 7
