REMARK  Name = ZINC18088312
REMARK  7 active torsions:
REMARK  status: ('A' for Active; 'I' for Inactive)
REMARK    1  A    between atoms: C_1  and  C_2
REMARK    2  A    between atoms: C_2  and  N_22
REMARK    3  A    between atoms: C_4  and  C_18
REMARK    4  A    between atoms: N_22  and  C_23
REMARK    5  A    between atoms: C_23  and  C_24
REMARK    6  A    between atoms: C_27  and  O_30
REMARK    7  A    between atoms: O_30  and  C_31
REMARK                            x       y       z     vdW  Elec       q    Type
REMARK                         _______ _______ _______ _____ _____    ______ ____
ROOT
ATOM      1  C   UNL     1      -0.018   1.503   0.010  0.00  0.00    +0.061 C 
ATOM      2  C   UNL     1       0.002  -0.004   0.002  0.00  0.00    +0.015 C 
ATOM      3  C   UNL     1       0.023  -0.703   1.197  0.00  0.00    +0.087 C 
ATOM      4  C   UNL     1       0.051  -2.162   1.382  0.00  0.00    +0.176 C 
ATOM      5  N   UNL     1       0.064  -2.395   2.658  0.00  0.00    -0.165 NA
ATOM      6  N   UNL     1       0.048  -1.208   3.391  0.00  0.00    -0.131 N 
ATOM      7  C   UNL     1       0.029  -0.149   2.557  0.00  0.00    +0.276 C 
ATOM      8  O   UNL     1       0.016   1.030   2.868  0.00  0.00    -0.268 OA
ATOM      9  C   UNL     1       0.056  -1.129   4.776  0.00  0.00    +0.189 A 
ATOM     10  N   UNL     1       0.036  -0.062   5.540  0.00  0.00    -0.223 NA
ATOM     11  C   UNL     1       0.048  -0.134   6.888  0.00  0.00    +0.080 A 
ATOM     12  C   UNL     1       0.030   0.931   7.820  0.00  0.00    +0.029 A 
ATOM     13  C   UNL     1       0.046   0.682   9.167  0.00  0.00    +0.002 A 
ATOM     14  C   UNL     1       0.081  -0.613   9.665  0.00  0.00    +0.001 A 
ATOM     15  C   UNL     1       0.099  -1.677   8.783  0.00  0.00    +0.017 A 
ATOM     16  C   UNL     1       0.083  -1.438   7.432  0.00  0.00    +0.041 A 
ATOM     17  S   UNL     1       0.089  -2.455   5.974  0.00  0.00    -0.050 S 
ENDROOT
BRANCH   4  18
ATOM     18  C   UNL     1       0.060  -3.197   0.287  0.00  0.00    +0.437 C 
ATOM     19  F   UNL     1       0.088  -4.476   0.855  0.00  0.00    -0.164 F 
ATOM     20  F   UNL     1      -1.091  -3.060  -0.496  0.00  0.00    -0.164 F 
ATOM     21  F   UNL     1       1.193  -3.019  -0.514  0.00  0.00    -0.164 F 
ENDBRANCH   4  18
BRANCH   2  22
ATOM     22  N   UNL     1       0.000  -0.672  -1.169  0.00  0.00    -0.343 N 
ATOM     23  H   UNL     1       0.013  -1.642  -1.175  0.00  0.00    +0.146 HD
BRANCH  22  24
ATOM     24  C   UNL     1      -0.022   0.067  -2.434  0.00  0.00    +0.136 C 
BRANCH  24  25
ATOM     25  C   UNL     1      -0.020  -0.906  -3.585  0.00  0.00    -0.030 A 
ATOM     26  C   UNL     1       1.179  -1.339  -4.120  0.00  0.00    +0.009 A 
ATOM     27  C   UNL     1       1.184  -2.231  -5.175  0.00  0.00    +0.046 A 
ATOM     28  C   UNL     1      -0.015  -2.692  -5.698  0.00  0.00    +0.120 A 
ATOM     29  C   UNL     1      -1.217  -2.255  -5.159  0.00  0.00    +0.046 A 
ATOM     30  C   UNL     1      -1.216  -1.368  -4.101  0.00  0.00    +0.009 A 
BRANCH  28  31
ATOM     31  O   UNL     1      -0.013  -3.568  -6.736  0.00  0.00    -0.495 OA
ATOM     32  C   UNL     1      -1.285  -4.000  -7.223  0.00  0.00    +0.277 C 
ENDBRANCH  28  31
ENDBRANCH  24  25
ENDBRANCH  22  24
ENDBRANCH   2  22
TORSDOF 5
