REMARK  Name = ZINC22917039
REMARK  14 active torsions:
REMARK  status: ('A' for Active; 'I' for Inactive)
REMARK    1  A    between atoms: C_1  and  C_2
REMARK    2  A    between atoms: C_2  and  C_34
REMARK    3  A    between atoms: C_4  and  N_10
REMARK    4  A    between atoms: C_6  and  C_8
REMARK    5  A    between atoms: C_6  and  C_9
REMARK    6  A    between atoms: C_11  and  C_13
REMARK    7  A    between atoms: C_13  and  N_14
REMARK    8  A    between atoms: N_17  and  C_20
REMARK    9  A    between atoms: C_20  and  C_21
REMARK   10  A    between atoms: N_23  and  C_24
REMARK   11  A    between atoms: C_26  and  C_32
REMARK   12  A    between atoms: C_26  and  C_33
REMARK   13  A    between atoms: C_28  and  C_30
REMARK   14  A    between atoms: C_28  and  C_31
REMARK                            x       y       z     vdW  Elec       q    Type
REMARK                         _______ _______ _______ _____ _____    ______ ____
ROOT
ATOM      1  N   UNL     1       5.741  -0.573  -4.545  0.00  0.00    -0.292 NA
ATOM      2  C   UNL     1       5.434   0.824  -4.886  0.00  0.00    +0.100 C 
ATOM      3  C   UNL     1       6.735   1.570  -5.188  0.00  0.00    +0.100 C 
ATOM      4  N   UNL     1       7.435   0.902  -6.294  0.00  0.00    -0.292 NA
ATOM      5  C   UNL     1       7.742  -0.494  -5.952  0.00  0.00    +0.100 C 
ATOM      6  C   UNL     1       6.441  -1.240  -5.651  0.00  0.00    +0.100 C 
ENDROOT
BRANCH   1   7
ATOM      7  C   UNL     1       4.522  -1.304  -4.175  0.00  0.00    +0.180 C 
BRANCH   7   9
ATOM      8  N   UNL     1       2.843  -1.258  -2.359  0.00  0.00    -0.312 N 
ATOM      9  C   UNL     1       3.966  -0.739  -2.893  0.00  0.00    +0.227 C 
ATOM     10  O   UNL     1       4.530   0.183  -2.342  0.00  0.00    -0.274 OA
ATOM     11  H   UNL     1       2.392  -1.995  -2.800  0.00  0.00    +0.149 HD
BRANCH   8  15
ATOM     12  C   UNL     1       0.116   1.075   0.194  0.00  0.00    -0.010 C 
ATOM     13  C   UNL     1       0.216  -0.452   0.258  0.00  0.00    -0.072 C 
ATOM     14  C   UNL     1       0.800  -0.986  -1.046  0.00  0.00    +0.009 C 
ATOM     15  C   UNL     1       2.301  -0.707  -1.110  0.00  0.00    +0.070 C 
ATOM     16  C   UNL     1       2.967  -1.403   0.077  0.00  0.00    +0.009 C 
ATOM     17  C   UNL     1       2.399  -0.872   1.390  0.00  0.00    -0.072 C 
ATOM     18  N   UNL     1       0.948  -0.884   1.436  0.00  0.00    +0.386 N 
ATOM     19  C   UNL     1       2.953   0.529   1.665  0.00  0.00    -0.010 C 
ATOM     20  C   UNL     1       2.913  -1.793   2.521  0.00  0.00    -0.010 C 
ATOM     21  C   UNL     1      -1.227  -0.996   0.375  0.00  0.00    -0.010 C 
ATOM     22  H   UNL     1       0.646  -0.310   2.229  0.00  0.00    -0.084 HD
ATOM     23  H   UNL     1       0.643  -1.834   1.671  0.00  0.00    -0.084 HD
ENDBRANCH   8  15
ENDBRANCH   7   9
ENDBRANCH   1   7
BRANCH   4  24
ATOM     24  C   UNL     1       8.654   1.634  -6.664  0.00  0.00    +0.180 C 
BRANCH  24  25
ATOM     25  C   UNL     1       9.210   1.069  -7.946  0.00  0.00    +0.227 C 
ATOM     26  O   UNL     1       8.646   0.147  -8.496  0.00  0.00    -0.274 OA
ATOM     27  N   UNL     1      10.333   1.587  -8.479  0.00  0.00    -0.312 N 
ATOM     28  H   UNL     1      10.784   2.325  -8.039  0.00  0.00    +0.149 HD
BRANCH  27  29
ATOM     29  C   UNL     1      10.875   1.037  -9.728  0.00  0.00    +0.070 C 
ATOM     30  C   UNL     1      11.792  -0.143  -9.401  0.00  0.00    +0.009 C 
ATOM     31  C   UNL     1      12.373  -0.721 -10.691  0.00  0.00    -0.072 C 
ATOM     32  N   UNL     1      13.037   0.295 -11.496  0.00  0.00    +0.386 N 
ATOM     33  C   UNL     1      12.339   1.553 -11.705  0.00  0.00    -0.072 C 
ATOM     34  C   UNL     1      11.706   2.108 -10.433  0.00  0.00    +0.009 C 
ATOM     35  C   UNL     1      11.282   1.439 -12.807  0.00  0.00    -0.010 C 
ATOM     36  C   UNL     1      13.383   2.588 -12.187  0.00  0.00    -0.010 C 
ATOM     37  C   UNL     1      11.290  -1.460 -11.476  0.00  0.00    -0.010 C 
ATOM     38  C   UNL     1      13.439  -1.765 -10.286  0.00  0.00    -0.010 C 
ATOM     39  H   UNL     1      13.945   0.497 -11.071  0.00  0.00    -0.084 HD
ATOM     40  H   UNL     1      13.252  -0.110 -12.410  0.00  0.00    -0.084 HD
ENDBRANCH  27  29
ENDBRANCH  24  25
ENDBRANCH   4  24
TORSDOF 6
