REMARK  Name = ZINC08971525
REMARK  13 active torsions:
REMARK  status: ('A' for Active; 'I' for Inactive)
REMARK    1  A    between atoms: C_1  and  C_2
REMARK    2  A    between atoms: C_4  and  O_28
REMARK    3  A    between atoms: C_5  and  C_27
REMARK    4  A    between atoms: C_7  and  S_8
REMARK    5  A    between atoms: S_8  and  N_11
REMARK    6  A    between atoms: N_11  and  C_12
REMARK    7  A    between atoms: C_12  and  C_14
REMARK    8  A    between atoms: C_12  and  C_23
REMARK    9  A    between atoms: C_17  and  S_19
REMARK   10  A    between atoms: S_19  and  C_22
REMARK   11  A    between atoms: C_23  and  C_25
REMARK   12  A    between atoms: C_23  and  C_26
REMARK   13  A    between atoms: O_28  and  C_29
REMARK                            x       y       z     vdW  Elec       q    Type
REMARK                         _______ _______ _______ _____ _____    ______ ____
ROOT
ATOM      1  N   UNL     1      -6.171  -0.933  -0.365  0.00  0.00    -0.178 NA
ATOM      2  H   UNL     1      -5.701  -1.739  -0.100  0.00  0.00    +0.149 HD
ENDROOT
BRANCH   1   3
ATOM      3  S   UNL     1      -7.197  -0.964  -1.665  0.00  0.00    +0.059 S 
ATOM      4  O   UNL     1      -7.157  -2.286  -2.183  0.00  0.00    -0.153 OA
ATOM      5  O   UNL     1      -8.406  -0.347  -1.243  0.00  0.00    -0.153 OA
BRANCH   3  12
ATOM      6  C   UNL     1      -4.571  -1.500  -3.062  0.00  0.00    +0.046 C 
ATOM      7  C   UNL     1      -5.294  -0.247  -3.485  0.00  0.00    -0.021 A 
ATOM      8  C   UNL     1      -4.748   0.572  -4.454  0.00  0.00    +0.051 A 
ATOM      9  C   UNL     1      -5.414   1.726  -4.842  0.00  0.00    +0.123 A 
ATOM     10  C   UNL     1      -6.627   2.054  -4.255  0.00  0.00    -0.007 A 
ATOM     11  C   UNL     1      -7.172   1.229  -3.290  0.00  0.00    +0.035 A 
ATOM     12  C   UNL     1      -6.503   0.083  -2.901  0.00  0.00    +0.109 A 
ATOM     13  C   UNL     1      -7.353   3.306  -4.673  0.00  0.00    +0.047 C 
BRANCH   9  14
ATOM     14  O   UNL     1      -4.878   2.533  -5.795  0.00  0.00    -0.495 OA
ATOM     15  C   UNL     1      -3.626   2.133  -6.356  0.00  0.00    +0.277 C 
ENDBRANCH   9  14
ENDBRANCH   3  12
ENDBRANCH   1   3
BRANCH   1  16
ATOM     16  C   UNL     1      -5.974   0.310   0.384  0.00  0.00    +0.166 C 
BRANCH  16  17
ATOM     17  C   UNL     1      -4.519   0.699   0.337  0.00  0.00    +0.238 A 
ATOM     18  N   UNL     1      -3.502  -0.095   0.522  0.00  0.00    -0.109 NA
ATOM     19  N   UNL     1      -2.410   0.575   0.404  0.00  0.00    -0.090 NA
ATOM     20  C   UNL     1      -2.693   1.821   0.151  0.00  0.00    +0.360 A 
ATOM     21  O   UNL     1      -4.032   1.928   0.099  0.00  0.00    -0.406 OA
BRANCH  20  22
ATOM     22  S   UNL     1      -1.533   3.126  -0.088  0.00  0.00    +0.047 S 
ATOM     23  O   UNL     1      -0.379   2.722   0.636  0.00  0.00    -0.165 OA
ATOM     24  O   UNL     1      -2.237   4.307   0.272  0.00  0.00    -0.165 OA
ATOM     25  C   UNL     1      -1.187   3.123  -1.869  0.00  0.00    +0.206 C 
ENDBRANCH  20  22
ENDBRANCH  16  17
BRANCH  16  26
ATOM     26  C   UNL     1      -6.401   0.103   1.838  0.00  0.00    +0.011 C 
ATOM     27  C   UNL     1      -7.909  -0.151   1.896  0.00  0.00    +0.009 C 
ATOM     28  C   UNL     1      -5.658  -1.102   2.421  0.00  0.00    +0.009 C 
ENDBRANCH  16  26
ENDBRANCH   1  16
TORSDOF 7
