REMARK  Name = ZINC52587329
REMARK  8 active torsions:
REMARK  status: ('A' for Active; 'I' for Inactive)
REMARK    1  A    between atoms: C_1  and  C_2
REMARK    2  A    between atoms: C_7  and  C_9
REMARK    3  A    between atoms: C_7  and  N_18
REMARK    4  A    between atoms: C_9  and  N_10
REMARK    5  A    between atoms: N_13  and  N_14
REMARK    6  A    between atoms: C_15  and  C_17
REMARK    7  A    between atoms: N_18  and  C_19
REMARK    8  A    between atoms: N_18  and  C_20
REMARK                            x       y       z     vdW  Elec       q    Type
REMARK                         _______ _______ _______ _____ _____    ______ ____
ROOT
ATOM      1  C   UNL     1       1.249  -2.179   1.832  0.00  0.00    +0.094 C 
ENDROOT
BRANCH   1   7
ATOM      2  C   UNL     1       0.744   1.923  -0.978  0.00  0.00    +0.007 C 
ATOM      3  C   UNL     1       0.796   0.394  -0.997  0.00  0.00    -0.015 C 
ATOM      4  C   UNL     1      -0.517  -0.154  -1.561  0.00  0.00    +0.003 C 
ATOM      5  C   UNL     1      -0.465  -1.683  -1.580  0.00  0.00    -0.001 C 
ATOM      6  C   UNL     1      -0.265  -2.205  -0.156  0.00  0.00    -0.010 C 
ATOM      7  C   UNL     1       1.048  -1.657   0.407  0.00  0.00    -0.050 C 
ATOM      8  C   UNL     1       0.997  -0.128   0.427  0.00  0.00    -0.007 C 
BRANCH   7   9
ATOM      9  N   UNL     1       2.166  -2.098  -0.438  0.00  0.00    +0.381 N 
ATOM     10  C   UNL     1       3.436  -1.698   0.181  0.00  0.00    -0.096 C 
ATOM     11  C   UNL     1       2.128  -3.561  -0.575  0.00  0.00    -0.096 C 
ATOM     12  H   UNL     1       2.087  -1.673  -1.349  0.00  0.00    -0.082 HD
ENDBRANCH   7   9
ENDBRANCH   1   7
BRANCH   1  13
ATOM     13  N   UNL     1       1.168  -3.642   1.832  0.00  0.00    -0.300 N 
ATOM     14  C   UNL     1       1.450  -4.332   2.954  0.00  0.00    +0.316 C 
ATOM     15  O   UNL     1       1.771  -3.741   3.967  0.00  0.00    -0.251 OA
ATOM     16  N   UNL     1       1.376  -5.678   2.954  0.00  0.00    -0.218 N 
ATOM     17  H   UNL     1       0.912  -4.113   1.024  0.00  0.00    +0.150 HD
ATOM     18  H   UNL     1       1.578  -6.175   3.762  0.00  0.00    +0.174 HD
BRANCH  16  19
ATOM     19  N   UNL     1       1.006  -6.359   1.787  0.00  0.00    -0.233 N 
ATOM     20  C   UNL     1       0.931  -7.705   1.787  0.00  0.00    +0.226 C 
ATOM     21  O   UNL     1       1.185  -8.326   2.797  0.00  0.00    -0.275 OA
ATOM     22  C   UNL     1       0.533  -8.437   0.532  0.00  0.00    +0.110 C 
ATOM     23  H   UNL     1       0.803  -5.862   0.979  0.00  0.00    +0.173 HD
ENDBRANCH  16  19
ENDBRANCH   1  13
TORSDOF 4
