REMARK  Name = ZINC05028059
REMARK  5 active torsions:
REMARK  status: ('A' for Active; 'I' for Inactive)
REMARK    1  A    between atoms: C_5  and  C_7
REMARK    2  A    between atoms: C_7  and  C_25
REMARK    3  A    between atoms: C_8  and  C_9
REMARK    4  A    between atoms: C_12  and  S_14
REMARK    5  A    between atoms: S_14  and  C_15
REMARK                            x       y       z     vdW  Elec       q    Type
REMARK                         _______ _______ _______ _____ _____    ______ ____
ROOT
ATOM      1  C   UNL     1       0.672  -2.100  -2.336  0.00  0.00    +0.131 A 
ATOM      2  C   UNL     1       0.144  -2.644  -3.495  0.00  0.00    +0.050 A 
ATOM      3  C   UNL     1      -0.036  -1.586  -4.390  0.00  0.00    +0.057 A 
ATOM      4  C   UNL     1       0.381  -0.450  -3.760  0.00  0.00    +0.169 A 
ATOM      5  O   UNL     1       0.800  -0.767  -2.524  0.00  0.00    -0.449 OA
ENDROOT
BRANCH   1   7
ATOM      6  C   UNL     1       1.004  -4.190  -1.173  0.00  0.00    +0.065 C 
ATOM      7  C   UNL     1       1.010  -2.808  -1.169  0.00  0.00    +0.065 C 
BRANCH   6  12
ATOM      8  C   UNL     1       1.296  -5.610  -4.639  0.00  0.00    +0.001 A 
ATOM      9  C   UNL     1       0.102  -6.301  -4.750  0.00  0.00    +0.003 A 
ATOM     10  C   UNL     1      -0.800  -6.308  -3.702  0.00  0.00    +0.039 A 
ATOM     11  C   UNL     1      -0.514  -5.624  -2.536  0.00  0.00    +0.132 A 
ATOM     12  C   UNL     1       0.690  -4.925  -2.418  0.00  0.00    +0.028 A 
ATOM     13  C   UNL     1       1.595  -4.923  -3.480  0.00  0.00    +0.012 A 
ATOM     14  F   UNL     1      -1.396  -5.631  -1.512  0.00  0.00    -0.205 F 
ENDBRANCH   6  12
BRANCH   6  15
ATOM     15  C   UNL     1       1.301  -4.910   0.029  0.00  0.00    +0.100 C 
ATOM     16  N   UNL     1       1.537  -5.482   0.982  0.00  0.00    -0.191 NA
ENDBRANCH   6  15
ENDBRANCH   1   7
BRANCH   4  17
ATOM     17  S   UNL     1       0.366   1.170  -4.452  0.00  0.00    -0.014 S 
BRANCH  17  18
ATOM     18  C   UNL     1       0.863   2.209  -3.119  0.00  0.00    +0.175 A 
ATOM     19  N   UNL     1       0.891   3.574  -3.155  0.00  0.00    -0.333 N 
ATOM     20  H   UNL     1       0.644   4.135  -3.907  0.00  0.00    +0.168 HD
ATOM     21  C   UNL     1       1.336   4.009  -1.918  0.00  0.00    +0.067 A 
ATOM     22  C   UNL     1       1.567   5.259  -1.364  0.00  0.00    +0.028 A 
ATOM     23  C   UNL     1       2.024   5.361  -0.066  0.00  0.00    +0.002 A 
ATOM     24  C   UNL     1       2.255   4.221   0.690  0.00  0.00    +0.002 A 
ATOM     25  C   UNL     1       2.032   2.972   0.156  0.00  0.00    +0.030 A 
ATOM     26  C   UNL     1       1.568   2.851  -1.157  0.00  0.00    +0.090 A 
ATOM     27  N   UNL     1       1.256   1.787  -1.942  0.00  0.00    -0.222 NA
ENDBRANCH  17  18
ENDBRANCH   4  17
TORSDOF 5
