REMARK  Name = ZINC12568714
REMARK  5 active torsions:
REMARK  status: ('A' for Active; 'I' for Inactive)
REMARK    1  A    between atoms: C_1  and  C_2
REMARK    2  A    between atoms: C_2  and  C_29
REMARK    3  A    between atoms: N_5  and  C_9
REMARK    4  A    between atoms: C_9  and  C_10
REMARK    5  A    between atoms: C_21  and  C_23
REMARK                            x       y       z     vdW  Elec       q    Type
REMARK                         _______ _______ _______ _____ _____    ______ ____
ROOT
ATOM      1  C   UNL     1       1.135   4.099   1.250  0.00  0.00    +0.047 C 
ATOM      2  C   UNL     1       0.641   3.365   0.001  0.00  0.00    +0.135 C 
ATOM      3  C   UNL     1      -0.870   3.247   0.010  0.00  0.00    +0.251 C 
ATOM      4  O   UNL     1      -1.675   4.154   0.008  0.00  0.00    -0.272 OA
ATOM      5  N   UNL     1      -1.132   1.925   0.015  0.00  0.00    -0.215 N 
ATOM      6  C   UNL     1      -0.008   1.199   0.021  0.00  0.00    +0.310 C 
ATOM      7  O   UNL     1       0.011  -0.016   0.030  0.00  0.00    -0.252 OA
ATOM      8  N   UNL     1       1.098   1.964   0.009  0.00  0.00    -0.281 N 
ATOM      9  H   UNL     1       2.017   1.655   0.007  0.00  0.00    +0.152 HD
ENDROOT
BRANCH   2  10
ATOM     10  C   UNL     1       1.111   4.069  -1.246  0.00  0.00    -0.015 A 
ATOM     11  C   UNL     1       0.331   5.084  -1.796  0.00  0.00    +0.007 A 
ATOM     12  C   UNL     1       0.726   5.739  -2.922  0.00  0.00    +0.009 A 
ATOM     13  C   UNL     1       1.939   5.390  -3.541  0.00  0.00    -0.018 A 
ATOM     14  C   UNL     1       2.380   6.044  -4.703  0.00  0.00    +0.008 A 
ATOM     15  C   UNL     1       3.559   5.679  -5.275  0.00  0.00    +0.001 A 
ATOM     16  C   UNL     1       4.340   4.664  -4.724  0.00  0.00    +0.001 A 
ATOM     17  C   UNL     1       3.945   4.008  -3.599  0.00  0.00    +0.008 A 
ATOM     18  C   UNL     1       2.732   4.358  -2.981  0.00  0.00    -0.018 A 
ATOM     19  C   UNL     1       2.293   3.707  -1.815  0.00  0.00    +0.014 A 
ENDBRANCH   2  10
BRANCH   5  20
ATOM     20  C   UNL     1      -2.481   1.354   0.019  0.00  0.00    +0.214 C 
BRANCH  20  21
ATOM     21  C   UNL     1      -2.944   1.168   1.441  0.00  0.00    +0.238 C 
ATOM     22  O   UNL     1      -2.187   1.397   2.360  0.00  0.00    -0.273 OA
ATOM     23  N   UNL     1      -4.200   0.748   1.691  0.00  0.00    -0.256 N 
ATOM     24  C   UNL     1      -4.684   0.645   3.007  0.00  0.00    +0.079 A 
ATOM     25  C   UNL     1      -3.805   0.698   4.077  0.00  0.00    +0.027 A 
ATOM     26  C   UNL     1      -4.286   0.599   5.369  0.00  0.00    +0.002 A 
ATOM     27  C   UNL     1      -5.642   0.448   5.594  0.00  0.00    +0.004 A 
ATOM     28  C   UNL     1      -6.527   0.403   4.528  0.00  0.00    +0.047 A 
ATOM     29  C   UNL     1      -6.051   0.495   3.228  0.00  0.00    +0.142 A 
ATOM     30  O   UNL     1      -6.923   0.430   2.188  0.00  0.00    -0.488 OA
ATOM     31  C   UNL     1      -6.495   0.953   0.928  0.00  0.00    +0.256 C 
ATOM     32  C   UNL     1      -5.112   0.376   0.596  0.00  0.00    +0.149 C 
BRANCH  32  33
ATOM     33  C   UNL     1      -5.195  -1.125   0.488  0.00  0.00    -0.023 A 
ATOM     34  C   UNL     1      -5.233  -1.899   1.633  0.00  0.00    +0.005 A 
ATOM     35  C   UNL     1      -5.314  -3.276   1.534  0.00  0.00    +0.000 A 
ATOM     36  C   UNL     1      -5.347  -3.879   0.290  0.00  0.00    +0.000 A 
ATOM     37  C   UNL     1      -5.303  -3.105  -0.855  0.00  0.00    +0.000 A 
ATOM     38  C   UNL     1      -5.227  -1.728  -0.756  0.00  0.00    +0.005 A 
ENDBRANCH  32  33
ENDBRANCH  20  21
ENDBRANCH   5  20
TORSDOF 4
