REMARK  Name = ZINC36030027
REMARK  14 active torsions:
REMARK  status: ('A' for Active; 'I' for Inactive)
REMARK    1  A    between atoms: C_1  and  C_2
REMARK    2  A    between atoms: C_2  and  N_3
REMARK    3  A    between atoms: N_3  and  C_4
REMARK    4  A    between atoms: N_3  and  C_6
REMARK    5  A    between atoms: C_4  and  C_5
REMARK    6  A    between atoms: C_6  and  C_7
REMARK    7  A    between atoms: C_7  and  N_8
REMARK    8  A    between atoms: C_11  and  C_26
REMARK    9  A    between atoms: C_20  and  C_22
REMARK   10  A    between atoms: C_22  and  C_23
REMARK   11  A    between atoms: C_23  and  C_24
REMARK   12  A    between atoms: C_23  and  C_25
REMARK   13  A    between atoms: C_26  and  C_27
REMARK   14  A    between atoms: C_26  and  C_28
REMARK                            x       y       z     vdW  Elec       q    Type
REMARK                         _______ _______ _______ _____ _____    ______ ____
ROOT
ATOM      1  N   UNL     1      -2.532  -4.023   0.301  0.00  0.00    -0.315 N 
ATOM      2  C   UNL     1      -2.331  -4.846  -0.749  0.00  0.00    +0.201 C 
ATOM      3  O   UNL     1      -2.233  -4.504  -1.908  0.00  0.00    -0.277 OA
ATOM      4  C   UNL     1      -2.249  -6.267  -0.236  0.00  0.00    +0.022 C 
ATOM      5  N   UNL     1      -2.012  -6.131   1.222  0.00  0.00    +0.401 N 
ATOM      6  C   UNL     1      -2.596  -4.811   1.535  0.00  0.00    +0.006 C 
ATOM      7  C   UNL     1      -1.783  -4.135   2.637  0.00  0.00    +0.025 C 
ATOM      8  C   UNL     1      -2.376  -2.752   2.931  0.00  0.00    +0.108 C 
ATOM      9  N   UNL     1      -3.806  -2.906   3.230  0.00  0.00    -0.301 N 
ATOM     10  C   UNL     1      -4.660  -3.610   2.264  0.00  0.00    +0.108 C 
ATOM     11  C   UNL     1      -4.048  -4.985   1.977  0.00  0.00    +0.025 C 
ATOM     12  C   UNL     1      -4.325  -2.410   4.371  0.00  0.00    +0.216 C 
ATOM     13  O   UNL     1      -3.610  -1.831   5.161  0.00  0.00    -0.276 OA
ATOM     14  H   UNL     1      -2.486  -6.862   1.730  0.00  0.00    -0.082 HD
ATOM     15  H   UNL     1      -1.024  -6.137   1.424  0.00  0.00    -0.082 HD
ENDROOT
BRANCH   4  16
ATOM     16  C   UNL     1      -1.087  -7.007  -0.900  0.00  0.00    -0.023 C 
ATOM     17  C   UNL     1      -1.317  -7.067  -2.412  0.00  0.00    +0.006 C 
ATOM     18  C   UNL     1       0.221  -6.266  -0.612  0.00  0.00    +0.006 C 
ENDBRANCH   4  16
BRANCH   1  19
ATOM     19  C   UNL     1      -2.661  -2.566   0.221  0.00  0.00    +0.087 C 
BRANCH  19  20
ATOM     20  C   UNL     1      -1.272  -1.927   0.288  0.00  0.00    -0.060 C 
BRANCH  20  21
ATOM     21  N   UNL     1      -1.389  -0.478   0.076  0.00  0.00    +0.380 N 
ATOM     22  H   UNL     1      -1.885  -0.303  -0.785  0.00  0.00    -0.082 HD
BRANCH  21  24
ATOM     23  C   UNL     1      -2.355   1.609   0.916  0.00  0.00    -0.017 C 
ATOM     24  C   UNL     1      -2.125   0.123   1.196  0.00  0.00    -0.082 C 
ENDBRANCH  21  24
BRANCH  21  25
ATOM     25  C   UNL     1      -0.047   0.115  -0.003  0.00  0.00    -0.082 C 
ATOM     26  C   UNL     1       0.665  -0.401  -1.255  0.00  0.00    -0.017 C 
ENDBRANCH  21  25
ENDBRANCH  20  21
ENDBRANCH  19  20
ENDBRANCH   1  19
BRANCH  12  27
ATOM     27  C   UNL     1      -5.794  -2.575   4.665  0.00  0.00    +0.099 C 
BRANCH  27  28
ATOM     28  C   UNL     1      -6.121  -1.926   6.011  0.00  0.00    -0.008 C 
ATOM     29  C   UNL     1      -7.631  -1.984   6.252  0.00  0.00    +0.008 C 
ATOM     30  C   UNL     1      -5.397  -2.680   7.129  0.00  0.00    +0.008 C 
ENDBRANCH  27  28
ENDBRANCH  12  27
TORSDOF 8
