REMARK  Name = ZINC08597023
REMARK  9 active torsions:
REMARK  status: ('A' for Active; 'I' for Inactive)
REMARK    1  A    between atoms: C_1  and  C_2
REMARK    2  A    between atoms: C_2  and  N_3
REMARK    3  A    between atoms: C_5  and  C_27
REMARK    4  A    between atoms: C_12  and  S_14
REMARK    5  A    between atoms: S_14  and  N_17
REMARK    6  A    between atoms: N_29  and  C_30
REMARK    7  A    between atoms: C_30  and  C_31
REMARK    8  A    between atoms: C_31  and  C_32
REMARK    9  A    between atoms: C_35  and  C_38
REMARK                            x       y       z     vdW  Elec       q    Type
REMARK                         _______ _______ _______ _____ _____    ______ ____
ROOT
ATOM      1  N   UNL     1       0.690  -0.459  -1.208  0.00  0.00    -0.346 N 
ATOM      2  C   UNL     1      -0.033  -0.674  -2.315  0.00  0.00    +0.103 A 
ATOM      3  C   UNL     1       0.534  -1.131  -3.487  0.00  0.00    +0.100 A 
ATOM      4  C   UNL     1       1.982  -1.392  -3.522  0.00  0.00    +0.202 A 
ATOM      5  O   UNL     1       2.530  -1.796  -4.532  0.00  0.00    -0.286 OA
ATOM      6  C   UNL     1       2.741  -1.142  -2.283  0.00  0.00    +0.048 A 
ATOM      7  C   UNL     1       2.051  -0.671  -1.153  0.00  0.00    +0.053 A 
ATOM      8  C   UNL     1       2.757  -0.428   0.022  0.00  0.00    +0.028 A 
ATOM      9  C   UNL     1       4.117  -0.645   0.065  0.00  0.00    +0.030 A 
ATOM     10  C   UNL     1       4.797  -1.104  -1.053  0.00  0.00    +0.106 A 
ATOM     11  C   UNL     1       4.117  -1.361  -2.223  0.00  0.00    +0.042 A 
ENDROOT
BRANCH   3  12
ATOM     12  C   UNL     1      -0.296  -1.355  -4.681  0.00  0.00    +0.249 C 
ATOM     13  O   UNL     1      -1.504  -1.236  -4.613  0.00  0.00    -0.270 OA
ATOM     14  N   UNL     1       0.284  -1.692  -5.851  0.00  0.00    -0.311 N 
ATOM     15  H   UNL     1       1.238  -1.859  -5.888  0.00  0.00    +0.149 HD
BRANCH  14  16
ATOM     16  C   UNL     1      -0.528  -1.806  -7.064  0.00  0.00    +0.109 C 
BRANCH  16  17
ATOM     17  C   UNL     1       0.367  -2.197  -8.242  0.00  0.00    +0.054 C 
BRANCH  17  18
ATOM     18  C   UNL     1      -0.469  -2.314  -9.491  0.00  0.00    -0.046 A 
ATOM     19  C   UNL     1      -1.050  -3.524  -9.823  0.00  0.00    +0.004 A 
ATOM     20  C   UNL     1      -1.816  -3.631 -10.968  0.00  0.00    +0.003 A 
ATOM     21  C   UNL     1      -2.002  -2.529 -11.781  0.00  0.00    -0.050 A 
ATOM     22  C   UNL     1      -1.422  -1.319 -11.449  0.00  0.00    +0.003 A 
ATOM     23  C   UNL     1      -0.659  -1.210 -10.301  0.00  0.00    +0.004 A 
ATOM     24  C   UNL     1      -2.836  -2.646 -13.031  0.00  0.00    +0.044 C 
ENDBRANCH  17  18
ENDBRANCH  16  17
ENDBRANCH  14  16
ENDBRANCH   3  12
BRANCH  10  25
ATOM     25  S   UNL     1       6.537  -1.373  -0.973  0.00  0.00    +0.061 S 
ATOM     26  O   UNL     1       7.024  -1.282  -2.304  0.00  0.00    -0.153 OA
ATOM     27  O   UNL     1       7.027  -0.548   0.076  0.00  0.00    -0.153 OA
BRANCH  25  28
ATOM     28  N   UNL     1       6.769  -2.940  -0.490  0.00  0.00    -0.172 NA
ATOM     29  C   UNL     1       6.871  -3.295   0.935  0.00  0.00    +0.114 C 
ATOM     30  C   UNL     1       5.684  -4.192   1.282  0.00  0.00    +0.052 C 
ATOM     31  C   UNL     1       5.520  -5.284   0.258  0.00  0.00    -0.042 A 
ATOM     32  C   UNL     1       4.792  -6.409   0.626  0.00  0.00    +0.004 A 
ATOM     33  C   UNL     1       4.595  -7.441  -0.267  0.00  0.00    +0.000 A 
ATOM     34  C   UNL     1       5.125  -7.358  -1.542  0.00  0.00    +0.000 A 
ATOM     35  C   UNL     1       5.851  -6.244  -1.909  0.00  0.00    +0.005 A 
ATOM     36  C   UNL     1       6.054  -5.207  -1.008  0.00  0.00    -0.028 A 
ATOM     37  C   UNL     1       6.874  -4.031  -1.465  0.00  0.00    +0.144 C 
ENDBRANCH  25  28
ENDBRANCH  10  25
BRANCH   1  39
ATOM     38  C   UNL     1      -0.002   1.558  -0.010  0.00  0.00    +0.027 C 
ATOM     39  C   UNL     1       0.007   0.028  -0.007  0.00  0.00    +0.118 C 
ENDBRANCH   1  39
TORSDOF 7
