REMARK  Name = ZINC05434216
REMARK  7 active torsions:
REMARK  status: ('A' for Active; 'I' for Inactive)
REMARK    1  A    between atoms: C_4  and  C_7
REMARK    2  A    between atoms: C_7  and  S_8
REMARK    3  A    between atoms: S_8  and  N_11
REMARK    4  A    between atoms: N_11  and  C_12
REMARK    5  A    between atoms: C_22  and  N_24
REMARK    6  A    between atoms: C_29  and  C_31
REMARK    7  A    between atoms: C_34  and  C_37
REMARK                            x       y       z     vdW  Elec       q    Type
REMARK                         _______ _______ _______ _____ _____    ______ ____
ROOT
ATOM      1  C   UNL     1      -2.859   2.549   1.588  0.00  0.00    +0.133 C 
ATOM      2  C   UNL     1      -3.894   2.234   0.486  0.00  0.00    +0.183 C 
ATOM      3  O   UNL     1      -3.123   1.659  -0.592  0.00  0.00    -0.370 OA
ATOM      4  C   UNL     1      -1.922   2.451  -0.658  0.00  0.00    +0.171 C 
ATOM      5  C   UNL     1      -1.519   2.676   0.826  0.00  0.00    +0.170 C 
ATOM      6  O   UNL     1      -0.695   1.554   1.173  0.00  0.00    -0.370 OA
ATOM      7  C   UNL     1      -0.013   1.086   0.008  0.00  0.00    +0.185 C 
ATOM      8  C   UNL     1      -0.771   1.602  -1.226  0.00  0.00    +0.130 C 
ENDROOT
BRANCH   8   9
ATOM      9  N   UNL     1       0.110   2.428  -2.056  0.00  0.00    -0.306 N 
ATOM     10  C   UNL     1       0.915   1.835  -3.012  0.00  0.00    +0.216 A 
ATOM     11  N   UNL     1       0.877   0.519  -3.163  0.00  0.00    -0.223 NA
ATOM     12  C   UNL     1       1.631  -0.086  -4.067  0.00  0.00    +0.116 A 
ATOM     13  C   UNL     1       2.472   0.671  -4.863  0.00  0.00    +0.048 A 
ATOM     14  C   UNL     1       2.491   2.057  -4.682  0.00  0.00    +0.076 A 
ATOM     15  N   UNL     1       1.700   2.597  -3.757  0.00  0.00    -0.214 NA
ATOM     16  H   UNL     1       0.128   3.390  -1.935  0.00  0.00    +0.149 HD
BRANCH  14  17
ATOM     17  C   UNL     1       3.374   2.912  -5.510  0.00  0.00    +0.001 A 
ATOM     18  C   UNL     1       4.199   2.334  -6.476  0.00  0.00    +0.010 A 
ATOM     19  C   UNL     1       5.015   3.130  -7.249  0.00  0.00    +0.009 A 
ATOM     20  C   UNL     1       5.026   4.511  -7.058  0.00  0.00    -0.018 A 
ATOM     21  C   UNL     1       4.206   5.088  -6.089  0.00  0.00    +0.009 A 
ATOM     22  C   UNL     1       3.385   4.294  -5.320  0.00  0.00    +0.010 A 
BRANCH  20  23
ATOM     23  C   UNL     1       5.910   5.367  -7.887  0.00  0.00    -0.018 A 
ATOM     24  C   UNL     1       5.918   6.749  -7.703  0.00  0.00    +0.008 A 
ATOM     25  C   UNL     1       6.746   7.540  -8.473  0.00  0.00    +0.001 A 
ATOM     26  C   UNL     1       7.559   6.965  -9.434  0.00  0.00    +0.000 A 
ATOM     27  C   UNL     1       7.550   5.594  -9.625  0.00  0.00    +0.001 A 
ATOM     28  C   UNL     1       6.730   4.793  -8.857  0.00  0.00    +0.008 A 
ENDBRANCH  20  23
ENDBRANCH  14  17
ENDBRANCH   8   9
BRANCH   1  29
ATOM     29  N   UNL     1      -3.189   3.808   2.260  0.00  0.00    -0.186 NA
ATOM     30  H   UNL     1      -2.957   4.654   1.845  0.00  0.00    +0.148 HD
BRANCH  29  31
ATOM     31  S   UNL     1      -3.958   3.788   3.726  0.00  0.00    +0.034 S 
ATOM     32  O   UNL     1      -4.137   5.157   4.061  0.00  0.00    -0.158 OA
ATOM     33  O   UNL     1      -5.079   2.936   3.536  0.00  0.00    -0.158 OA
BRANCH  31  34
ATOM     34  C   UNL     1      -2.773   3.016   4.863  0.00  0.00    +0.220 C 
BRANCH  34  38
ATOM     35  C   UNL     1      -4.477   2.814   8.775  0.00  0.00    +0.000 A 
ATOM     36  C   UNL     1      -4.659   1.770   7.887  0.00  0.00    +0.000 A 
ATOM     37  C   UNL     1      -4.107   1.836   6.621  0.00  0.00    +0.005 A 
ATOM     38  C   UNL     1      -3.375   2.945   6.243  0.00  0.00    -0.025 A 
ATOM     39  C   UNL     1      -3.188   3.987   7.132  0.00  0.00    +0.005 A 
ATOM     40  C   UNL     1      -3.744   3.924   8.397  0.00  0.00    +0.000 A 
ENDBRANCH  34  38
ENDBRANCH  31  34
ENDBRANCH  29  31
ENDBRANCH   1  29
TORSDOF 7
