REMARK  Name = ZINC09608306
REMARK  10 active torsions:
REMARK  status: ('A' for Active; 'I' for Inactive)
REMARK    1  A    between atoms: C_1  and  C_2
REMARK    2  A    between atoms: N_7  and  C_9
REMARK    3  A    between atoms: C_9  and  C_10
REMARK    4  A    between atoms: C_10  and  C_11
REMARK    5  A    between atoms: C_11  and  N_12
REMARK    6  A    between atoms: C_13  and  C_15
REMARK    7  A    between atoms: C_18  and  C_21
REMARK    8  A    between atoms: C_21  and  N_22
REMARK    9  A    between atoms: N_22  and  S_23
REMARK   10  A    between atoms: S_23  and  C_26
REMARK                            x       y       z     vdW  Elec       q    Type
REMARK                         _______ _______ _______ _____ _____    ______ ____
ROOT
ATOM      1  C   UNL     1       3.413  -8.107   4.322  0.00  0.00    +0.075 C 
ATOM      2  C   UNL     1       4.131  -8.491   3.027  0.00  0.00    +0.013 C 
ATOM      3  C   UNL     1       5.522  -7.855   3.007  0.00  0.00    +0.005 C 
ATOM      4  C   UNL     1       6.329  -8.356   4.206  0.00  0.00    +0.005 C 
ATOM      5  C   UNL     1       5.611  -7.972   5.501  0.00  0.00    +0.005 C 
ATOM      6  C   UNL     1       4.220  -8.608   5.521  0.00  0.00    +0.013 C 
ENDROOT
BRANCH   1   8
ATOM      7  N   UNL     1       2.604  -5.942   3.440  0.00  0.00    -0.315 N 
ATOM      8  C   UNL     1       3.280  -6.608   4.397  0.00  0.00    +0.216 C 
ATOM      9  O   UNL     1       3.782  -6.000   5.319  0.00  0.00    -0.276 OA
ATOM     10  H   UNL     1       2.203  -6.428   2.703  0.00  0.00    +0.149 HD
BRANCH   7  11
ATOM     11  C   UNL     1       2.475  -4.485   3.513  0.00  0.00    +0.102 C 
BRANCH  11  12
ATOM     12  C   UNL     1       1.668  -3.983   2.314  0.00  0.00    +0.000 C 
BRANCH  12  13
ATOM     13  C   UNL     1       1.534  -2.461   2.390  0.00  0.00    -0.077 C 
BRANCH  13  19
ATOM     14  C   UNL     1      -0.019   1.526   0.010  0.00  0.00    +0.005 C 
ATOM     15  C   UNL     1       0.002  -0.004   0.002  0.00  0.00    -0.031 C 
ATOM     16  C   UNL     1      -1.434  -0.535   0.015  0.00  0.00    -0.001 C 
ATOM     17  C   UNL     1      -1.402  -2.064   0.086  0.00  0.00    -0.018 C 
ATOM     18  C   UNL     1      -0.613  -2.496   1.324  0.00  0.00    -0.079 C 
ATOM     19  N   UNL     1       0.758  -1.980   1.239  0.00  0.00    +0.380 N 
ATOM     20  C   UNL     1       0.740  -0.512   1.242  0.00  0.00    -0.076 C 
ATOM     21  H   UNL     1       1.188  -2.307   0.386  0.00  0.00    -0.082 HD
ENDBRANCH  13  19
ENDBRANCH  12  13
ENDBRANCH  11  12
ENDBRANCH   7  11
ENDBRANCH   1   8
BRANCH   4  22
ATOM     22  C   UNL     1       7.721  -7.720   4.186  0.00  0.00    +0.109 C 
BRANCH  22  23
ATOM     23  N   UNL     1       8.533  -8.289   5.264  0.00  0.00    -0.190 NA
ATOM     24  H   UNL     1       8.110  -8.791   5.978  0.00  0.00    +0.148 HD
BRANCH  23  25
ATOM     25  S   UNL     1      10.175  -8.075   5.264  0.00  0.00    +0.061 S 
ATOM     26  O   UNL     1      10.668  -8.713   6.435  0.00  0.00    -0.153 OA
ATOM     27  O   UNL     1      10.630  -8.418   3.962  0.00  0.00    -0.153 OA
BRANCH  25  28
ATOM     28  C   UNL     1      10.476  -6.351   5.465  0.00  0.00    +0.133 A 
ATOM     29  C   UNL     1      11.102  -5.899   6.577  0.00  0.00    +0.031 A 
ATOM     30  C   UNL     1      11.357  -4.542   6.769  0.00  0.00    +0.004 A 
ATOM     31  C   UNL     1      10.990  -3.616   5.852  0.00  0.00    +0.031 A 
ATOM     32  C   UNL     1      10.329  -4.017   4.659  0.00  0.00    +0.102 A 
ATOM     33  C   UNL     1      10.068  -5.438   4.456  0.00  0.00    +0.126 A 
ATOM     34  N   UNL     1       9.449  -5.697   3.303  0.00  0.00    -0.189 NA
ATOM     35  S   UNL     1       9.249  -4.270   2.587  0.00  0.00    +0.117 S 
ATOM     36  N   UNL     1       9.898  -3.255   3.653  0.00  0.00    -0.191 NA
ENDBRANCH  25  28
ENDBRANCH  23  25
ENDBRANCH  22  23
ENDBRANCH   4  22
TORSDOF 9
