REMARK  Name = ZINC12621618
REMARK  9 active torsions:
REMARK  status: ('A' for Active; 'I' for Inactive)
REMARK    1  A    between atoms: C_1  and  C_2
REMARK    2  A    between atoms: C_5  and  N_9
REMARK    3  A    between atoms: C_6  and  C_8
REMARK    4  A    between atoms: N_9  and  S_10
REMARK    5  A    between atoms: S_10  and  C_13
REMARK    6  A    between atoms: C_15  and  N_33
REMARK    7  A    between atoms: C_18  and  N_19
REMARK    8  A    between atoms: N_19  and  N_20
REMARK    9  A    between atoms: C_21  and  C_22
REMARK                            x       y       z     vdW  Elec       q    Type
REMARK                         _______ _______ _______ _____ _____    ______ ____
ROOT
ATOM      1  C   UNL     1       2.560  -4.469  -0.987  0.00  0.00    +0.133 A 
ATOM      2  C   UNL     1       3.504  -5.371  -0.536  0.00  0.00    +0.063 A 
ATOM      3  C   UNL     1       4.803  -4.958  -0.306  0.00  0.00    +0.128 A 
ATOM      4  C   UNL     1       5.162  -3.640  -0.526  0.00  0.00    +0.035 A 
ATOM      5  C   UNL     1       4.223  -2.733  -0.976  0.00  0.00    +0.029 A 
ATOM      6  C   UNL     1       2.918  -3.147  -1.214  0.00  0.00    +0.073 A 
ENDROOT
BRANCH   1   7
ATOM      7  S   UNL     1       0.905  -4.997  -1.281  0.00  0.00    +0.074 S 
ATOM      8  O   UNL     1       0.058  -4.066  -0.622  0.00  0.00    -0.150 OA
ATOM      9  O   UNL     1       0.867  -6.390  -1.002  0.00  0.00    -0.150 OA
BRANCH   7  10
ATOM     10  N   UNL     1       0.619  -4.831  -2.904  0.00  0.00    -0.216 N 
ATOM     11  H   UNL     1      -0.089  -4.245  -3.214  0.00  0.00    +0.174 HD
BRANCH  10  16
ATOM     12  C   UNL     1       3.775  -7.691  -6.647  0.00  0.00    +0.044 C 
ATOM     13  C   UNL     1       2.937  -6.931  -5.652  0.00  0.00    -0.050 A 
ATOM     14  C   UNL     1       2.612  -7.509  -4.439  0.00  0.00    +0.005 A 
ATOM     15  C   UNL     1       1.843  -6.816  -3.525  0.00  0.00    +0.025 A 
ATOM     16  C   UNL     1       1.396  -5.535  -3.826  0.00  0.00    +0.051 A 
ATOM     17  C   UNL     1       1.724  -4.957  -5.045  0.00  0.00    -0.028 A 
ATOM     18  C   UNL     1       2.498  -5.654  -5.952  0.00  0.00    +0.008 A 
ATOM     19  C   UNL     1       1.241  -3.568  -5.376  0.00  0.00    +0.046 C 
ENDBRANCH  10  16
ENDBRANCH   7  10
ENDBRANCH   1   7
BRANCH   3  20
ATOM     20  N   UNL     1       5.811  -5.927   0.178  0.00  0.00    +0.056 N 
ATOM     21  O   UNL     1       5.499  -7.079   0.371  0.00  0.00    -0.126 OA
ATOM     22  O   UNL     1       6.948  -5.567   0.380  0.00  0.00    -0.126 OA
ENDBRANCH   3  20
BRANCH   6  23
ATOM     23  N   UNL     1       1.968  -2.233  -1.676  0.00  0.00    -0.258 N 
ATOM     24  H   UNL     1       1.041  -2.504  -1.771  0.00  0.00    +0.172 HD
BRANCH  23  25
ATOM     25  N   UNL     1       2.353  -0.926  -2.002  0.00  0.00    -0.313 N 
ATOM     26  C   UNL     1       1.421  -0.015  -2.347  0.00  0.00    +0.111 C 
ATOM     27  H   UNL     1       3.290  -0.677  -1.979  0.00  0.00    +0.184 HD
BRANCH  26  28
ATOM     28  C   UNL     1       1.809   1.237  -2.796  0.00  0.00    +0.047 A 
ATOM     29  C   UNL     1       0.817   2.294  -3.056  0.00  0.00    -0.006 A 
ATOM     30  C   UNL     1      -0.545   2.067  -2.857  0.00  0.00    +0.009 A 
ATOM     31  C   UNL     1      -1.446   3.078  -3.109  0.00  0.00    +0.001 A 
ATOM     32  C   UNL     1      -1.009   4.317  -3.559  0.00  0.00    +0.001 A 
ATOM     33  C   UNL     1       0.318   4.561  -3.761  0.00  0.00    +0.008 A 
ATOM     34  C   UNL     1       1.261   3.553  -3.512  0.00  0.00    -0.017 A 
ATOM     35  C   UNL     1       2.640   3.791  -3.716  0.00  0.00    +0.012 A 
ATOM     36  C   UNL     1       3.573   2.845  -3.487  0.00  0.00    +0.052 A 
ATOM     37  C   UNL     1       3.224   1.556  -3.024  0.00  0.00    +0.188 A 
ATOM     38  O   UNL     1       4.088   0.718  -2.820  0.00  0.00    -0.287 OA
ENDBRANCH  26  28
ENDBRANCH  23  25
ENDBRANCH   6  23
TORSDOF 7
