REMARK  Name = ZINC33676987
REMARK  6 active torsions:
REMARK  status: ('A' for Active; 'I' for Inactive)
REMARK    1  A    between atoms: N_7  and  C1*_10
REMARK    2  A    between atoms: C2*_12  and  O2*_22
REMARK    3  A    between atoms: C3*_14  and  O3*_21
REMARK    4  A    between atoms: C4*_16  and  C5*_19
REMARK    5  A    between atoms: C5*_19  and  O5*_20
REMARK    6  A    between atoms: C_24  and  C_26
REMARK                            x       y       z     vdW  Elec       q    Type
REMARK                         _______ _______ _______ _____ _____    ______ ____
ROOT
ATOM      1  C   UNL     1      -3.513  -0.857   0.014  0.00  0.00    +0.225 A 
ATOM      2  N   UNL     1      -2.384  -0.172   0.012  0.00  0.00    -0.218 NA
ATOM      3  C   UNL     1      -2.384   1.156   0.020  0.00  0.00    +0.156 A 
ATOM      4  C   UNL     1      -3.618   1.825   0.035  0.00  0.00    +0.148 A 
ATOM      5  C   UNL     1      -4.793   1.051   0.031  0.00  0.00    +0.167 A 
ATOM      6  N   UNL     1      -4.693  -0.273   0.023  0.00  0.00    -0.216 NA
ATOM      7  N   UNL     1      -5.834   1.945   0.041  0.00  0.00    -0.286 N 
ATOM      8  C   UNL     1      -5.297   3.198   0.044  0.00  0.00    +0.203 A 
ATOM      9  N   UNL     1      -3.998   3.125   0.038  0.00  0.00    -0.231 NA
ATOM     10  N   UNL     1      -1.191   1.866   0.018  0.00  0.00    -0.268 N 
ATOM     11  C   UNL     1      -0.014   1.208   0.009  0.00  0.00    +0.225 C 
ATOM     12  O   UNL     1       0.002  -0.004   0.002  0.00  0.00    -0.275 OA
ATOM     13  H   UNL     1      -1.206   2.966   0.024  0.00  0.00    +0.156 HD
ENDROOT
BRANCH  11  14
ATOM     14  C   UNL     1       1.280   1.980   0.001  0.00  0.00    +0.048 C 
ATOM     15  C   UNL     1       1.361   2.854   1.254  0.00  0.00    +0.019 C 
ATOM     16  C   UNL     1       2.676   3.637   1.245  0.00  0.00    -0.009 C 
ATOM     17  C   UNL     1       3.852   2.658   1.229  0.00  0.00    +0.007 C 
ATOM     18  C   UNL     1       3.771   1.784  -0.024  0.00  0.00    -0.009 C 
ATOM     19  C   UNL     1       2.457   1.001  -0.016  0.00  0.00    +0.019 C 
ATOM     20  C   UNL     1       3.828   2.672  -1.270  0.00  0.00    +0.007 C 
ATOM     21  C   UNL     1       2.652   3.650  -1.253  0.00  0.00    -0.009 C 
ATOM     22  C   UNL     1       2.733   4.524   0.000  0.00  0.00    +0.007 C 
ATOM     23  C   UNL     1       1.337   2.867  -1.245  0.00  0.00    +0.019 C 
ENDBRANCH  11  14
BRANCH   7  24
ATOM     24  C1* UNL     1      -7.261   1.613   0.046  0.00  0.00    +0.253 C 
ATOM     25  C2* UNL     1      -7.765   1.430   1.500  0.00  0.00    +0.195 C 
ATOM     26  C3* UNL     1      -9.277   1.740   1.328  0.00  0.00    +0.178 C 
ATOM     27  C4* UNL     1      -9.267   2.822   0.227  0.00  0.00    +0.177 C 
ATOM     28  O4* UNL     1      -8.029   2.706  -0.483  0.00  0.00    -0.346 OA
BRANCH  26  29
ATOM     29  O3* UNL     1      -9.988   0.579   0.894  0.00  0.00    -0.386 OA
ATOM     30  H3* UNL     1     -11.074   0.630   0.724  0.00  0.00    +0.210 HD
ENDBRANCH  26  29
BRANCH  25  31
ATOM     31  O2* UNL     1      -7.562   0.090   1.950  0.00  0.00    -0.385 OA
ATOM     32  H2* UNL     1      -7.868  -0.201   2.966  0.00  0.00    +0.210 HD
ENDBRANCH  25  31
BRANCH  27  33
ATOM     33  C5* UNL     1     -10.438   2.600  -0.732  0.00  0.00    +0.190 C 
BRANCH  33  34
ATOM     34  O5* UNL     1     -10.484   3.666  -1.683  0.00  0.00    -0.392 OA
ATOM     35  H5* UNL     1     -11.264   3.679  -2.458  0.00  0.00    +0.210 HD
ENDBRANCH  33  34
ENDBRANCH  27  33
ENDBRANCH   7  24
TORSDOF 6
