REMARK  Name = ZINC28449257
REMARK  8 active torsions:
REMARK  status: ('A' for Active; 'I' for Inactive)
REMARK    1  A    between atoms: C_6  and  C_7
REMARK    2  A    between atoms: C_9  and  C_12
REMARK    3  A    between atoms: C_12  and  S_13
REMARK    4  A    between atoms: S_13  and  C_14
REMARK    5  A    between atoms: C_17  and  C_20
REMARK    6  A    between atoms: N_18  and  N_19
REMARK    7  A    between atoms: C_20  and  O_21
REMARK    8  A    between atoms: O_21  and  C_22
REMARK                            x       y       z     vdW  Elec       q    Type
REMARK                         _______ _______ _______ _____ _____    ______ ____
ROOT
ATOM      1  C   UNL     1      -0.282   1.804  -2.288  0.00  0.00    +0.209 A 
ATOM      2  N   UNL     1      -1.313   2.232  -2.980  0.00  0.00    -0.121 NA
ATOM      3  N   UNL     1      -2.369   2.211  -2.248  0.00  0.00    -0.128 NA
ATOM      4  C   UNL     1      -2.079   1.768  -1.057  0.00  0.00    +0.189 A 
ATOM      5  N   UNL     1      -0.741   1.490  -1.041  0.00  0.00    -0.225 N 
ENDROOT
BRANCH   5   6
ATOM      6  N   UNL     1      -0.012   1.005   0.008  0.00  0.00    -0.295 N 
ATOM      7  H   UNL     1      -0.504   0.791   0.968  0.00  0.00    +0.163 HD
ATOM      8  H   UNL     1       1.068   0.828  -0.108  0.00  0.00    +0.163 HD
ENDBRANCH   5   6
BRANCH   1   9
ATOM      9  S   UNL     1       1.377   1.661  -2.862  0.00  0.00    -0.075 S 
BRANCH   9  10
ATOM     10  C   UNL     1       1.175   2.253  -4.560  0.00  0.00    +0.176 C 
BRANCH  10  13
ATOM     11  C   UNL     1       4.203   1.634  -6.396  0.00  0.00    +0.202 A 
ATOM     12  N   UNL     1       3.000   1.212  -5.946  0.00  0.00    -0.191 NA
ATOM     13  C   UNL     1       2.506   2.217  -5.266  0.00  0.00    +0.238 A 
ATOM     14  O   UNL     1       3.408   3.203  -5.311  0.00  0.00    -0.337 OA
ATOM     15  N   UNL     1       4.372   2.856  -5.960  0.00  0.00    -0.056 NA
BRANCH  11  21
ATOM     16  C   UNL     1       4.843  -0.446  -7.613  0.00  0.00    +0.013 A 
ATOM     17  C   UNL     1       5.730  -1.164  -8.389  0.00  0.00    +0.021 A 
ATOM     18  C   UNL     1       6.935  -0.598  -8.771  0.00  0.00    +0.041 A 
ATOM     19  C   UNL     1       7.252   0.693  -8.383  0.00  0.00    +0.021 A 
ATOM     20  C   UNL     1       6.369   1.421  -7.613  0.00  0.00    +0.013 A 
ATOM     21  C   UNL     1       5.156   0.855  -7.225  0.00  0.00    +0.023 A 
ATOM     22 CL   UNL     1       8.050  -1.509  -9.741  0.00  0.00    -0.084 Cl
ENDBRANCH  11  21
ENDBRANCH  10  13
ENDBRANCH   9  10
ENDBRANCH   1   9
BRANCH   4  23
ATOM     23  C   UNL     1      -3.042   1.594   0.090  0.00  0.00    +0.306 C 
BRANCH  23  24
ATOM     24  O   UNL     1      -3.090   2.798   0.858  0.00  0.00    -0.484 OA
BRANCH  24  25
ATOM     25  C   UNL     1      -3.916   2.809   1.937  0.00  0.00    +0.121 A 
ATOM     26  C   UNL     1      -4.670   1.686   2.246  0.00  0.00    +0.048 A 
ATOM     27  C   UNL     1      -5.504   1.696   3.347  0.00  0.00    +0.042 A 
ATOM     28  C   UNL     1      -5.598   2.830   4.135  0.00  0.00    +0.124 A 
ATOM     29  C   UNL     1      -4.852   3.954   3.824  0.00  0.00    +0.042 A 
ATOM     30  C   UNL     1      -4.011   3.945   2.728  0.00  0.00    +0.048 A 
ATOM     31  F   UNL     1      -6.419   2.841   5.208  0.00  0.00    -0.205 F 
ENDBRANCH  24  25
ENDBRANCH  23  24
ENDBRANCH   4  23
TORSDOF 8
