REMARK  Name = ZINC59852961
REMARK  8 active torsions:
REMARK  status: ('A' for Active; 'I' for Inactive)
REMARK    1  A    between atoms: C_1  and  C_2
REMARK    2  A    between atoms: C_5  and  S_9
REMARK    3  A    between atoms: C_7  and  C_8
REMARK    4  A    between atoms: S_9  and  C_10
REMARK    5  A    between atoms: C_10  and  C_11
REMARK    6  A    between atoms: C_11  and  N_12
REMARK    7  A    between atoms: C_19  and  S_21
REMARK    8  A    between atoms: S_21  and  N_24
REMARK                            x       y       z     vdW  Elec       q    Type
REMARK                         _______ _______ _______ _____ _____    ______ ____
ROOT
ATOM      1  N   UNL     1       0.077  -6.831  -3.363  0.00  0.00    -0.329 N 
ATOM      2  C   UNL     1      -1.125  -7.040  -4.174  0.00  0.00    +0.110 C 
ATOM      3  C   UNL     1      -0.608  -7.378  -5.582  0.00  0.00    +0.056 C 
ATOM      4  C   UNL     1       0.898  -7.332  -5.454  0.00  0.00    -0.023 A 
ATOM      5  C   UNL     1       1.220  -7.004  -4.146  0.00  0.00    +0.033 A 
ATOM      6  C   UNL     1       2.564  -6.897  -3.785  0.00  0.00    +0.025 A 
ATOM      7  C   UNL     1       3.554  -7.110  -4.721  0.00  0.00    +0.030 A 
ATOM      8  C   UNL     1       3.223  -7.432  -6.024  0.00  0.00    +0.105 A 
ATOM      9  C   UNL     1       1.894  -7.549  -6.386  0.00  0.00    +0.034 A 
ENDROOT
BRANCH   8  10
ATOM     10  S   UNL     1       4.491  -7.703  -7.216  0.00  0.00    +0.056 S 
ATOM     11  O   UNL     1       3.911  -7.455  -8.489  0.00  0.00    -0.153 OA
ATOM     12  O   UNL     1       5.640  -7.006  -6.753  0.00  0.00    -0.153 OA
BRANCH  10  13
ATOM     13  N   UNL     1       4.867  -9.315  -7.173  0.00  0.00    -0.204 NA
ATOM     14  H   UNL     1       4.403  -9.905  -6.559  0.00  0.00    +0.144 HD
ATOM     15  H   UNL     1       5.551  -9.669  -7.763  0.00  0.00    +0.144 HD
ENDBRANCH  10  13
ENDBRANCH   8  10
BRANCH   1  16
ATOM     16  C   UNL     1       0.079  -6.484  -1.940  0.00  0.00    +0.116 C 
BRANCH  16  17
ATOM     17  C   UNL     1       0.060  -4.962  -1.785  0.00  0.00    +0.093 C 
BRANCH  17  18
ATOM     18  S   UNL     1       0.063  -4.533  -0.023  0.00  0.00    -0.124 S 
BRANCH  18  23
ATOM     19  C   UNL     1      -0.018   1.503   0.010  0.00  0.00    +0.044 C 
ATOM     20  C   UNL     1       0.002  -0.004   0.002  0.00  0.00    -0.047 A 
ATOM     21  C   UNL     1       0.006  -0.687  -1.201  0.00  0.00    +0.005 A 
ATOM     22  C   UNL     1       0.024  -2.068  -1.212  0.00  0.00    +0.015 A 
ATOM     23  C   UNL     1       0.040  -2.771  -0.013  0.00  0.00    +0.008 A 
ATOM     24  C   UNL     1       0.036  -2.081   1.193  0.00  0.00    +0.018 A 
ATOM     25  C   UNL     1       0.023  -0.700   1.197  0.00  0.00    -0.046 A 
ATOM     26  C   UNL     1       0.025   0.049   2.504  0.00  0.00    +0.044 C 
ENDBRANCH  18  23
ENDBRANCH  17  18
ENDBRANCH  16  17
ENDBRANCH   1  16
TORSDOF 6
