REMARK  Name = ZINC04729919
REMARK  12 active torsions:
REMARK  status: ('A' for Active; 'I' for Inactive)
REMARK    1  A    between atoms: C_1  and  C_2
REMARK    2  A    between atoms: C_2  and  C_3
REMARK    3  A    between atoms: C_3  and  C_4
REMARK    4  A    between atoms: C_4  and  C_5
REMARK    5  A    between atoms: C_5  and  C_6
REMARK    6  A    between atoms: C_6  and  C_7
REMARK    7  A    between atoms: C_7  and  C_29
REMARK    8  A    between atoms: C_8  and  C_20
REMARK    9  A    between atoms: C_11  and  C_13
REMARK   10  A    between atoms: C_24  and  O_27
REMARK   11  A    between atoms: C_25  and  O_26
REMARK   12  A    between atoms: O_27  and  C_28
REMARK                            x       y       z     vdW  Elec       q    Type
REMARK                         _______ _______ _______ _____ _____    ______ ____
ROOT
ATOM      1  C   UNL     1       3.464   6.326  -0.624  0.00  0.00    +0.026 C 
ATOM      2  C   UNL     1       2.446   4.231   0.001  0.00  0.00    -0.028 C 
ATOM      3  C   UNL     1       3.023   4.288   1.419  0.00  0.00    +0.044 C 
ATOM      4  C   UNL     1       4.122   5.312   1.472  0.00  0.00    +0.040 C 
ATOM      5  N   UNL     1       4.295   6.200   0.567  0.00  0.00    -0.300 NA
ATOM      6  C   UNL     1       3.177   7.806  -0.884  0.00  0.00    +0.014 C 
ATOM      7  N   UNL     1       2.190   5.612  -0.451  0.00  0.00    +0.400 N 
ATOM      8  H   UNL     1       1.687   5.590  -1.346  0.00  0.00    -0.081 HD
ATOM      9  H   UNL     1       1.619   6.099   0.250  0.00  0.00    -0.081 HD
ENDROOT
BRANCH   4  10
ATOM     10  C   UNL     1       5.047   5.293   2.623  0.00  0.00    -0.004 A 
ATOM     11  C   UNL     1       4.888   4.342   3.634  0.00  0.00    +0.011 A 
ATOM     12  C   UNL     1       5.758   4.326   4.703  0.00  0.00    +0.020 A 
ATOM     13  C   UNL     1       6.782   5.256   4.781  0.00  0.00    +0.041 A 
ATOM     14  C   UNL     1       6.941   6.204   3.785  0.00  0.00    +0.020 A 
ATOM     15  C   UNL     1       6.081   6.228   2.707  0.00  0.00    +0.011 A 
ATOM     16 CL   UNL     1       7.869   5.233   6.134  0.00  0.00    -0.084 Cl
ENDBRANCH   4  10
BRANCH   2  17
ATOM     17  C   UNL     1       1.155   3.455   0.009  0.00  0.00    -0.016 A 
ATOM     18  C   UNL     1      -0.055   4.125   0.024  0.00  0.00    +0.006 A 
ATOM     19  C   UNL     1      -1.241   3.416   0.031  0.00  0.00    +0.004 A 
ATOM     20  C   UNL     1      -1.224   2.034   0.019  0.00  0.00    +0.049 A 
ATOM     21  C   UNL     1      -0.016   1.356   0.009  0.00  0.00    +0.161 A 
ATOM     22  C   UNL     1       1.179   2.070   0.002  0.00  0.00    +0.160 A 
BRANCH  22  23
ATOM     23  O   UNL     1       2.367   1.409  -0.013  0.00  0.00    -0.503 OA
ATOM     24  H   UNL     1       2.702   1.222  -0.901  0.00  0.00    +0.292 HD
ENDBRANCH  22  23
BRANCH  21  25
ATOM     25  O   UNL     1       0.002  -0.004   0.002  0.00  0.00    -0.491 OA
ATOM     26  C   UNL     1      -1.262  -0.670   0.011  0.00  0.00    +0.277 C 
ENDBRANCH  21  25
ENDBRANCH   2  17
BRANCH   1  27
ATOM     27  C   UNL     1       4.211   5.739  -1.824  0.00  0.00    +0.010 C 
BRANCH  27  28
ATOM     28  C   UNL     1       5.522   6.500  -2.030  0.00  0.00    +0.000 C 
BRANCH  28  29
ATOM     29  C   UNL     1       6.269   5.913  -3.230  0.00  0.00    -0.000 C 
BRANCH  29  30
ATOM     30  C   UNL     1       7.580   6.674  -3.436  0.00  0.00    -0.000 C 
BRANCH  30  32
ATOM     31  C   UNL     1       9.638   6.848  -4.842  0.00  0.00    +0.004 C 
ATOM     32  C   UNL     1       8.326   6.087  -4.636  0.00  0.00    -0.003 C 
ENDBRANCH  30  32
ENDBRANCH  29  30
ENDBRANCH  28  29
ENDBRANCH  27  28
ENDBRANCH   1  27
TORSDOF 9
