REMARK  Name = ZINC11591378
REMARK  8 active torsions:
REMARK  status: ('A' for Active; 'I' for Inactive)
REMARK    1  A    between atoms: C_1  and  C_2
REMARK    2  A    between atoms: C_2  and  C_3
REMARK    3  A    between atoms: C_2  and  N_4
REMARK    4  A    between atoms: N_4  and  C_5
REMARK    5  A    between atoms: C_8  and  N_11
REMARK    6  A    between atoms: N_11  and  C_12
REMARK    7  A    between atoms: C_18  and  C_20
REMARK    8  A    between atoms: C_20  and  N_21
REMARK                            x       y       z     vdW  Elec       q    Type
REMARK                         _______ _______ _______ _____ _____    ______ ____
ROOT
ATOM      1  N   UNL     1      -0.800   1.339   0.487  0.00  0.00    -0.268 N 
ATOM      2  C   UNL     1       0.014   0.280   0.304  0.00  0.00    +0.238 C 
ATOM      3  O   UNL     1      -0.240  -0.779   0.838  0.00  0.00    -0.273 OA
ENDROOT
BRANCH   1   4
ATOM      4  C   UNL     1      -1.997   1.187   1.199  0.00  0.00    +0.037 A 
ATOM      5  C   UNL     1      -3.162   0.832   0.531  0.00  0.00    +0.025 A 
ATOM      6  C   UNL     1      -4.340   0.678   1.233  0.00  0.00    +0.025 A 
ATOM      7  C   UNL     1      -4.364   0.890   2.606  0.00  0.00    +0.031 A 
ATOM      8  C   UNL     1      -3.200   1.250   3.273  0.00  0.00    +0.025 A 
ATOM      9  C   UNL     1      -2.020   1.398   2.571  0.00  0.00    +0.025 A 
BRANCH   7  10
ATOM     10  N   UNL     1      -5.559   0.740   3.317  0.00  0.00    -0.314 N 
ATOM     11  H   UNL     1      -5.540   0.456   4.244  0.00  0.00    +0.152 HD
BRANCH  10  12
ATOM     12  C   UNL     1      -6.781   0.998   2.691  0.00  0.00    +0.031 A 
ATOM     13  C   UNL     1      -6.855   1.936   1.669  0.00  0.00    +0.023 A 
ATOM     14  C   UNL     1      -8.063   2.185   1.048  0.00  0.00    +0.002 A 
ATOM     15  C   UNL     1      -9.201   1.510   1.450  0.00  0.00    +0.000 A 
ATOM     16  C   UNL     1      -9.133   0.580   2.472  0.00  0.00    +0.002 A 
ATOM     17  C   UNL     1      -7.926   0.322   3.093  0.00  0.00    +0.023 A 
ENDBRANCH  10  12
ENDBRANCH   7  10
ENDBRANCH   1   4
BRANCH   1  19
ATOM     18  C   UNL     1      -1.426   3.040  -1.155  0.00  0.00    +0.028 C 
ATOM     19  C   UNL     1      -0.433   2.648  -0.059  0.00  0.00    +0.075 C 
ATOM     20  C   UNL     1      -0.466   3.694   1.057  0.00  0.00    +0.028 C 
ENDBRANCH   1  19
BRANCH   2  21
ATOM     21  C   UNL     1       1.240   0.413  -0.563  0.00  0.00    +0.214 C 
BRANCH  21  22
ATOM     22  N   UNL     1       1.951  -0.867  -0.601  0.00  0.00    -0.215 N 
ATOM     23  C   UNL     1       2.921  -1.222   0.267  0.00  0.00    +0.252 C 
ATOM     24  O   UNL     1       3.354  -0.568   1.192  0.00  0.00    -0.272 OA
ATOM     25  C   UNL     1       3.352  -2.608  -0.154  0.00  0.00    +0.144 C 
ATOM     26  C   UNL     1       3.091  -3.613   0.964  0.00  0.00    +0.081 C 
ATOM     27  C   UNL     1       4.162  -3.421   2.046  0.00  0.00    +0.232 C 
ATOM     28  O   UNL     1       5.436  -3.730   1.481  0.00  0.00    -0.492 OA
ATOM     29  C   UNL     1       5.766  -3.158   0.294  0.00  0.00    +0.126 A 
ATOM     30  C   UNL     1       4.805  -2.605  -0.538  0.00  0.00    +0.027 A 
ATOM     31  C   UNL     1       5.183  -2.040  -1.743  0.00  0.00    +0.010 A 
ATOM     32  C   UNL     1       6.513  -2.019  -2.118  0.00  0.00    +0.001 A 
ATOM     33  C   UNL     1       7.474  -2.566  -1.288  0.00  0.00    +0.004 A 
ATOM     34  C   UNL     1       7.103  -3.134  -0.086  0.00  0.00    +0.046 A 
ATOM     35  N   UNL     1       2.512  -2.905  -1.320  0.00  0.00    -0.281 N 
ATOM     36  C   UNL     1       1.724  -1.828  -1.506  0.00  0.00    +0.310 C 
ATOM     37  O   UNL     1       0.900  -1.738  -2.394  0.00  0.00    -0.252 OA
ATOM     38  H   UNL     1       2.521  -3.716  -1.852  0.00  0.00    +0.152 HD
ENDBRANCH  21  22
ENDBRANCH   2  21
TORSDOF 6
