REMARK  Name = ZINC34832152
REMARK  14 active torsions:
REMARK  status: ('A' for Active; 'I' for Inactive)
REMARK    1  A    between atoms: C_1  and  C_2
REMARK    2  A    between atoms: C_2  and  N_3
REMARK    3  A    between atoms: N_6  and  C_9
REMARK    4  A    between atoms: C_10  and  C_21
REMARK    5  A    between atoms: C_11  and  C_20
REMARK    6  A    between atoms: N_13  and  C_14
REMARK    7  A    between atoms: C_21  and  N_22
REMARK    8  A    between atoms: N_22  and  C_23
REMARK    9  A    between atoms: C_23  and  C_24
REMARK   10  A    between atoms: C_24  and  C_25
REMARK   11  A    between atoms: C_25  and  C_26
REMARK   12  A    between atoms: C_25  and  C_27
REMARK   13  A    between atoms: C_28  and  C_30
REMARK   14  A    between atoms: C_34  and  N_36
REMARK                            x       y       z     vdW  Elec       q    Type
REMARK                         _______ _______ _______ _____ _____    ______ ____
ROOT
ATOM      1  C   UNL     1       4.338  -3.518  -1.132  0.00  0.00    +0.130 A 
ATOM      2  C   UNL     1       4.119  -4.544  -2.001  0.00  0.00    +0.032 A 
ATOM      3  C   UNL     1       5.340  -4.867  -2.599  0.00  0.00    +0.067 A 
ATOM      4  N   UNL     1       6.262  -4.075  -2.116  0.00  0.00    -0.170 NA
ATOM      5  N   UNL     1       5.662  -3.209  -1.193  0.00  0.00    -0.218 N 
ATOM      6  C   UNL     1       5.557  -5.947  -3.628  0.00  0.00    +0.068 C 
ENDROOT
BRANCH   1  10
ATOM      7  N   UNL     1       2.269  -1.230   1.614  0.00  0.00    +0.382 N 
ATOM      8  C   UNL     1       2.842  -0.636   0.399  0.00  0.00    -0.060 C 
ATOM      9  C   UNL     1       2.745  -1.641  -0.754  0.00  0.00    +0.088 C 
ATOM     10  N   UNL     1       3.383  -2.898  -0.332  0.00  0.00    -0.318 N 
ATOM     11  C   UNL     1       2.983  -3.479   0.959  0.00  0.00    +0.088 C 
ATOM     12  C   UNL     1       3.070  -2.388   2.030  0.00  0.00    -0.060 C 
ATOM     13  H   UNL     1       1.323  -1.526   1.426  0.00  0.00    -0.082 HD
BRANCH   7  15
ATOM     14  C   UNL     1       1.328   0.922   2.308  0.00  0.00    -0.017 C 
ATOM     15  C   UNL     1       2.262  -0.229   2.689  0.00  0.00    -0.082 C 
ENDBRANCH   7  15
ENDBRANCH   1  10
BRANCH   5  16
ATOM     16  C   UNL     1       6.310  -2.205  -0.460  0.00  0.00    +0.067 A 
ATOM     17  C   UNL     1       5.826  -0.904  -0.485  0.00  0.00    +0.028 A 
ATOM     18  C   UNL     1       6.467   0.083   0.239  0.00  0.00    +0.002 A 
ATOM     19  C   UNL     1       7.588  -0.223   0.987  0.00  0.00    +0.000 A 
ATOM     20  C   UNL     1       8.073  -1.518   1.013  0.00  0.00    +0.002 A 
ATOM     21  C   UNL     1       7.434  -2.511   0.296  0.00  0.00    +0.028 A 
ENDBRANCH   5  16
BRANCH   2  22
ATOM     22  C   UNL     1       2.794  -5.211  -2.269  0.00  0.00    +0.148 C 
BRANCH  22  23
ATOM     23  N   UNL     1       2.197  -4.641  -3.480  0.00  0.00    -0.293 N 
ATOM     24  C   UNL     1       1.275  -3.664  -3.380  0.00  0.00    +0.247 C 
ATOM     25  O   UNL     1       0.978  -3.217  -2.289  0.00  0.00    -0.270 OA
BRANCH  24  26
ATOM     26  C   UNL     1       0.623  -3.135  -4.598  0.00  0.00    +0.039 A 
ATOM     27  C   UNL     1       0.465  -3.951  -5.719  0.00  0.00    +0.013 A 
ATOM     28  C   UNL     1      -0.144  -3.452  -6.851  0.00  0.00    +0.003 A 
ATOM     29  C   UNL     1      -0.597  -2.145  -6.878  0.00  0.00    +0.033 A 
ATOM     30  C   UNL     1      -0.444  -1.331  -5.770  0.00  0.00    +0.127 A 
ATOM     31  C   UNL     1       0.158  -1.820  -4.629  0.00  0.00    +0.045 A 
BRANCH  30  32
ATOM     32  N   UNL     1      -0.931   0.066  -5.807  0.00  0.00    +0.056 N 
ATOM     33  O   UNL     1      -1.463   0.494  -6.805  0.00  0.00    -0.126 OA
ATOM     34  O   UNL     1      -0.797   0.779  -4.840  0.00  0.00    -0.126 OA
ENDBRANCH  30  32
ENDBRANCH  24  26
BRANCH  23  35
ATOM     35  C   UNL     1       2.602  -5.135  -4.798  0.00  0.00    +0.109 C 
BRANCH  35  36
ATOM     36  C   UNL     1       2.053  -6.548  -5.005  0.00  0.00    +0.022 C 
BRANCH  36  37
ATOM     37  C   UNL     1       2.476  -7.063  -6.383  0.00  0.00    -0.016 C 
ATOM     38  C   UNL     1       3.998  -7.210  -6.426  0.00  0.00    +0.007 C 
ATOM     39  C   UNL     1       1.824  -8.423  -6.641  0.00  0.00    +0.007 C 
ENDBRANCH  36  37
ENDBRANCH  35  36
ENDBRANCH  23  35
ENDBRANCH  22  23
ENDBRANCH   2  22
TORSDOF 10
