REMARK  Name = ZINC08891292
REMARK  8 active torsions:
REMARK  status: ('A' for Active; 'I' for Inactive)
REMARK    1  A    between atoms: C_1  and  C_2
REMARK    2  A    between atoms: C_2  and  C_3
REMARK    3  A    between atoms: C_3  and  C_24
REMARK    4  A    between atoms: N_6  and  C_10
REMARK    5  A    between atoms: C_10  and  C_11
REMARK    6  A    between atoms: N_13  and  C_14
REMARK    7  A    between atoms: C_14  and  C_16
REMARK    8  A    between atoms: C_14  and  C_17
REMARK                            x       y       z     vdW  Elec       q    Type
REMARK                         _______ _______ _______ _____ _____    ______ ____
ROOT
ATOM      1  C   UNL     1      -1.064  -1.250   6.241  0.00  0.00    +0.138 C 
ATOM      2  C   UNL     1      -1.735  -0.622   5.035  0.00  0.00    +0.251 C 
ATOM      3  O   UNL     1      -2.734  -1.012   4.469  0.00  0.00    -0.272 OA
ATOM      4  N   UNL     1      -0.991   0.457   4.723  0.00  0.00    -0.215 N 
ATOM      5  C   UNL     1       0.043   0.601   5.560  0.00  0.00    +0.310 C 
ATOM      6  O   UNL     1       0.854   1.503   5.482  0.00  0.00    -0.252 OA
ATOM      7  N   UNL     1       0.086  -0.364   6.497  0.00  0.00    -0.281 N 
ATOM      8  H   UNL     1       0.744  -0.458   7.203  0.00  0.00    +0.152 HD
ENDROOT
BRANCH   1   9
ATOM      9  C   UNL     1      -2.001  -1.256   7.421  0.00  0.00    -0.015 A 
ATOM     10  C   UNL     1      -2.765  -2.376   7.689  0.00  0.00    +0.009 A 
ATOM     11  C   UNL     1      -3.621  -2.386   8.775  0.00  0.00    +0.039 A 
ATOM     12  C   UNL     1      -3.721  -1.268   9.587  0.00  0.00    +0.123 A 
ATOM     13  C   UNL     1      -2.959  -0.145   9.313  0.00  0.00    +0.039 A 
ATOM     14  C   UNL     1      -2.099  -0.140   8.231  0.00  0.00    +0.009 A 
ATOM     15  F   UNL     1      -4.561  -1.274  10.644  0.00  0.00    -0.205 F 
ENDBRANCH   1   9
BRANCH   1  17
ATOM     16  C   UNL     1       0.413  -2.622   4.765  0.00  0.00    +0.007 C 
ATOM     17  C   UNL     1      -0.589  -2.668   5.920  0.00  0.00    +0.037 C 
ENDBRANCH   1  17
BRANCH   4  18
ATOM     18  C   UNL     1      -1.281   1.363   3.609  0.00  0.00    +0.213 C 
BRANCH  18  19
ATOM     19  C   UNL     1      -0.575   0.877   2.369  0.00  0.00    +0.231 C 
ATOM     20  O   UNL     1       0.103  -0.128   2.412  0.00  0.00    -0.274 OA
ATOM     21  N   UNL     1      -0.698   1.558   1.213  0.00  0.00    -0.307 N 
ATOM     22  H   UNL     1      -1.241   2.362   1.179  0.00  0.00    +0.149 HD
BRANCH  21  23
ATOM     23  C   UNL     1      -0.013   1.086   0.008  0.00  0.00    +0.100 C 
ATOM     24  C   UNL     1       1.423   1.615  -0.003  0.00  0.00    +0.033 C 
BRANCH  23  25
ATOM     25  C   UNL     1      -0.742   1.585  -1.213  0.00  0.00    -0.027 A 
ATOM     26  C   UNL     1      -1.257   2.868  -1.234  0.00  0.00    +0.006 A 
ATOM     27  C   UNL     1      -1.922   3.328  -2.355  0.00  0.00    +0.015 A 
ATOM     28  C   UNL     1      -2.080   2.501  -3.453  0.00  0.00    +0.018 A 
ATOM     29  C   UNL     1      -1.568   1.216  -3.429  0.00  0.00    +0.015 A 
ATOM     30  C   UNL     1      -0.899   0.758  -2.310  0.00  0.00    +0.006 A 
ATOM     31 BR   UNL     1      -2.994   3.127  -4.985  0.00  0.00    -0.050 Br
ENDBRANCH  23  25
ENDBRANCH  21  23
ENDBRANCH  18  19
ENDBRANCH   4  18
TORSDOF 6
