REMARK  Name = ZINC14983108
REMARK  11 active torsions:
REMARK  status: ('A' for Active; 'I' for Inactive)
REMARK    1  A    between atoms: C_1  and  C_2
REMARK    2  A    between atoms: C_8  and  C_28
REMARK    3  A    between atoms: C_12  and  C_14
REMARK    4  A    between atoms: C_12  and  C_17
REMARK    5  A    between atoms: C_14  and  C_15
REMARK    6  A    between atoms: C_15  and  O_16
REMARK    7  A    between atoms: C_17  and  O_18
REMARK    8  A    between atoms: C_21  and  O_27
REMARK    9  A    between atoms: C_23  and  C_24
REMARK   10  A    between atoms: C_23  and  C_25
REMARK   11  A    between atoms: C_25  and  O_26
REMARK                            x       y       z     vdW  Elec       q    Type
REMARK                         _______ _______ _______ _____ _____    ______ ____
ROOT
ATOM      1  C   UNL     1       0.245  -1.207   3.792  0.00  0.00    +0.010 C 
ATOM      2  C   UNL     1      -1.255  -0.938   3.805  0.00  0.00    +0.018 C 
ATOM      3  C   UNL     1      -1.793  -0.995   2.372  0.00  0.00    +0.006 C 
ATOM      4  C   UNL     1      -3.320  -0.912   2.430  0.00  0.00    +0.005 C 
ATOM      5  C   UNL     1      -3.790   0.379   3.100  0.00  0.00    +0.008 C 
ATOM      6  C   UNL     1      -3.118   0.604   4.447  0.00  0.00    +0.001 C 
ATOM      7  C   UNL     1      -1.588   0.437   4.368  0.00  0.00    +0.079 C 
ATOM      8  C   UNL     1      -0.977   0.603   5.770  0.00  0.00    +0.039 C 
ATOM      9  C   UNL     1       0.297   1.448   5.527  0.00  0.00    +0.040 C 
ATOM     10  C   UNL     1       0.046   2.131   4.170  0.00  0.00    +0.095 C 
ATOM     11  O   UNL     1      -1.065   1.484   3.549  0.00  0.00    -0.364 OA
ATOM     12  C   UNL     1      -3.665  -0.367   5.490  0.00  0.00    +0.012 C 
ATOM     13  C   UNL     1      -5.171  -0.168   5.645  0.00  0.00    +0.032 C 
ATOM     14  C   UNL     1      -5.873  -0.439   4.322  0.00  0.00    +0.123 C 
ATOM     15  C   UNL     1      -5.313   0.385   3.171  0.00  0.00    +0.020 C 
ATOM     16  C   UNL     1      -5.870   1.814   3.236  0.00  0.00    +0.016 C 
ATOM     17  C   UNL     1      -3.361   2.047   4.925  0.00  0.00    +0.014 C 
ENDROOT
BRANCH  14  18
ATOM     18  O   UNL     1      -5.792  -1.833   4.009  0.00  0.00    -0.391 OA
ATOM     19  H   UNL     1      -6.201  -2.409   4.669  0.00  0.00    +0.210 HD
ENDBRANCH  14  18
BRANCH  10  20
ATOM     20  C   UNL     1       1.291   2.018   3.285  0.00  0.00    +0.065 C 
BRANCH  20  21
ATOM     21  C   UNL     1       2.458   2.751   3.950  0.00  0.00    +0.158 C 
BRANCH  21  22
ATOM     22  O   UNL     1       3.648   2.542   3.188  0.00  0.00    -0.395 OA
ATOM     23  H   UNL     1       4.430   2.979   3.552  0.00  0.00    +0.209 HD
ENDBRANCH  21  22
ENDBRANCH  20  21
ENDBRANCH  10  20
BRANCH  10  24
ATOM     24  C   UNL     1      -0.270   3.616   4.391  0.00  0.00    +0.190 C 
BRANCH  24  25
ATOM     25  O   UNL     1      -0.441   4.259   3.127  0.00  0.00    -0.392 OA
ATOM     26  H   UNL     1      -0.644   5.203   3.190  0.00  0.00    +0.210 HD
ENDBRANCH  24  25
ENDBRANCH  10  24
BRANCH  15  27
ATOM     27  C   UNL     1      -5.890  -0.219   1.868  0.00  0.00    +0.165 C 
BRANCH  27  28
ATOM     28  O   UNL     1      -7.316  -0.144   1.899  0.00  0.00    -0.394 OA
ATOM     29  H   UNL     1      -7.747  -0.506   1.112  0.00  0.00    +0.209 HD
ENDBRANCH  27  28
ENDBRANCH  15  27
TORSDOF 8
