REMARK  Name = ZINC16793536
REMARK  9 active torsions:
REMARK  status: ('A' for Active; 'I' for Inactive)
REMARK    1  A    between atoms: C_1  and  C_2
REMARK    2  A    between atoms: C_2  and  C_4
REMARK    3  A    between atoms: C_2  and  O_15
REMARK    4  A    between atoms: N_6  and  C_7
REMARK    5  A    between atoms: C_8  and  C_12
REMARK    6  A    between atoms: O_15  and  C_16
REMARK    7  A    between atoms: C_16  and  C_18
REMARK    8  A    between atoms: C_18  and  C_19
REMARK    9  A    between atoms: C_19  and  C_20
REMARK                            x       y       z     vdW  Elec       q    Type
REMARK                         _______ _______ _______ _____ _____    ______ ____
ROOT
ATOM      1  C   UNL     1       2.408   5.652   0.010  0.00  0.00    +0.308 C 
ATOM      2  O   UNL     1       1.334   6.206   0.023  0.00  0.00    -0.251 OA
ENDROOT
BRANCH   1   3
ATOM      3  O   UNL     1       3.537   6.378   0.003  0.00  0.00    -0.452 OA
BRANCH   3   5
ATOM      4  C   UNL     1       3.356   8.322   1.458  0.00  0.00    +0.062 C 
ATOM      5  C   UNL     1       3.393   7.823   0.012  0.00  0.00    +0.259 C 
BRANCH   5   6
ATOM      6  C   UNL     1       4.560   8.449  -0.706  0.00  0.00    +0.258 C 
ATOM      7  O   UNL     1       5.428   7.747  -1.179  0.00  0.00    -0.271 OA
ATOM      8  N   UNL     1       4.639   9.789  -0.823  0.00  0.00    -0.276 N 
ATOM      9  H   UNL     1       3.945  10.351  -0.444  0.00  0.00    +0.155 HD
BRANCH   8  10
ATOM     10  C   UNL     1       5.713  10.366  -1.484  0.00  0.00    +0.084 A 
ATOM     11  C   UNL     1       5.966  11.713  -1.709  0.00  0.00    +0.065 A 
ATOM     12  C   UNL     1       7.175  12.036  -2.429  0.00  0.00    +0.022 A 
ATOM     13  C   UNL     1       7.945  11.008  -2.828  0.00  0.00    +0.048 A 
ATOM     14  S   UNL     1       7.061   9.580  -2.235  0.00  0.00    -0.081 S 
BRANCH  11  15
ATOM     15  C   UNL     1       5.052  12.757  -1.235  0.00  0.00    +0.244 C 
ATOM     16  O   UNL     1       4.042  12.452  -0.627  0.00  0.00    -0.270 OA
ATOM     17  N   UNL     1       5.329  14.055  -1.472  0.00  0.00    -0.325 N 
ATOM     18  H   UNL     1       6.133  14.298  -1.956  0.00  0.00    +0.145 HD
ATOM     19  H   UNL     1       4.724  14.745  -1.158  0.00  0.00    +0.145 HD
ENDBRANCH  11  15
ENDBRANCH   8  10
ENDBRANCH   5   6
ENDBRANCH   3   5
ENDBRANCH   1   3
BRANCH   1  20
ATOM     20  C   UNL     1       2.479   4.147   0.001  0.00  0.00    +0.128 C 
BRANCH  20  21
ATOM     21  C   UNL     1       1.062   3.569   0.011  0.00  0.00    +0.085 C 
BRANCH  21  22
ATOM     22  C   UNL     1       1.134   2.064   0.002  0.00  0.00    +0.111 A 
ATOM     23  N   UNL     1      -0.016   1.342   0.009  0.00  0.00    -0.310 N 
ATOM     24  H   UNL     1      -0.868   1.805   0.016  0.00  0.00    +0.170 HD
ATOM     25  C   UNL     1       0.002  -0.004   0.002  0.00  0.00    +0.260 A 
ATOM     26  O   UNL     1      -1.039  -0.638   0.008  0.00  0.00    -0.267 OA
ATOM     27  C   UNL     1       1.266  -0.679  -0.014  0.00  0.00    +0.075 A 
ATOM     28  C   UNL     1       1.527  -2.118  -0.024  0.00  0.00    -0.023 A 
ATOM     29  C   UNL     1       2.820  -2.506  -0.038  0.00  0.00    -0.004 A 
ATOM     30  S   UNL     1       3.752  -0.998  -0.039  0.00  0.00    -0.073 S 
ATOM     31  C   UNL     1       2.398   0.151  -0.020  0.00  0.00    +0.116 A 
ATOM     32  N   UNL     1       2.301   1.477  -0.012  0.00  0.00    -0.227 NA
ATOM     33  C   UNL     1       3.347  -3.908  -0.049  0.00  0.00    +0.043 C 
ATOM     34  C   UNL     1       2.203  -4.859   0.333  0.00  0.00    +0.005 C 
ATOM     35  C   UNL     1       0.965  -4.493  -0.491  0.00  0.00    +0.005 C 
ATOM     36  C   UNL     1       0.404  -3.151  -0.019  0.00  0.00    +0.037 C 
ENDBRANCH  21  22
ENDBRANCH  20  21
ENDBRANCH   1  20
TORSDOF 8
