REMARK  Name = ZINC52912948
REMARK  7 active torsions:
REMARK  status: ('A' for Active; 'I' for Inactive)
REMARK    1  A    between atoms: C_1  and  C_2
REMARK    2  A    between atoms: C_5  and  N_25
REMARK    3  A    between atoms: C_7  and  N_8
REMARK    4  A    between atoms: C_9  and  C_11
REMARK    5  A    between atoms: C_11  and  C_13
REMARK    6  A    between atoms: C_11  and  S_14
REMARK    7  A    between atoms: S_14  and  C_15
REMARK                            x       y       z     vdW  Elec       q    Type
REMARK                         _______ _______ _______ _____ _____    ______ ____
ROOT
ATOM      1  N   UNL     1       0.025  -0.015   2.417  0.00  0.00    -0.284 N 
ATOM      2  C   UNL     1      -0.057  -0.694   3.578  0.00  0.00    +0.230 C 
ATOM      3  O   UNL     1      -0.040  -1.907   3.573  0.00  0.00    -0.274 OA
ATOM      4  H   UNL     1       0.077   0.954   2.425  0.00  0.00    +0.155 HD
ENDROOT
BRANCH   1  11
ATOM      5  C   UNL     1      -1.265   1.183   0.181  0.00  0.00    +0.045 C 
ATOM      6  C   UNL     1      -0.584  -0.158   0.084  0.00  0.00    -0.029 A 
ATOM      7  C   UNL     1      -0.569  -0.841  -1.117  0.00  0.00    +0.007 A 
ATOM      8  C   UNL     1       0.056  -2.071  -1.206  0.00  0.00    +0.033 A 
ATOM      9  C   UNL     1       0.667  -2.622  -0.095  0.00  0.00    +0.128 A 
ATOM     10  C   UNL     1       0.656  -1.944   1.109  0.00  0.00    +0.056 A 
ATOM     11  C   UNL     1       0.034  -0.706   1.201  0.00  0.00    +0.038 A 
BRANCH   9  12
ATOM     12  N   UNL     1       1.334  -3.940  -0.195  0.00  0.00    +0.056 N 
ATOM     13  O   UNL     1       1.344  -4.534  -1.248  0.00  0.00    -0.126 OA
ATOM     14  O   UNL     1       1.869  -4.422   0.776  0.00  0.00    -0.126 OA
ENDBRANCH   9  12
ENDBRANCH   1  11
BRANCH   2  15
ATOM     15  C   UNL     1      -0.169   0.052   4.882  0.00  0.00    +0.136 C 
ATOM     16  C   UNL     1       1.216   0.542   5.310  0.00  0.00    +0.029 C 
BRANCH  15  17
ATOM     17  S   UNL     1      -0.840  -1.052   6.155  0.00  0.00    -0.084 S 
BRANCH  17  18
ATOM     18  C   UNL     1      -1.047  -0.007   7.559  0.00  0.00    +0.161 A 
ATOM     19  N   UNL     1      -0.792   1.281   7.688  0.00  0.00    -0.133 NA
ATOM     20  N   UNL     1      -1.030   1.909   8.888  0.00  0.00    -0.125 NA
ATOM     21  C   UNL     1      -1.514   1.221   9.904  0.00  0.00    +0.185 A 
ATOM     22  S   UNL     1      -1.667  -0.407   9.186  0.00  0.00    -0.024 S 
ATOM     23  N   UNL     1      -1.825   1.650  11.189  0.00  0.00    -0.308 N 
ATOM     24  C   UNL     1      -2.357   0.806  12.269  0.00  0.00    +0.107 C 
ATOM     25  C   UNL     1      -2.572   1.714  13.498  0.00  0.00    +0.020 C 
ATOM     26  C   UNL     1      -2.682   3.128  12.869  0.00  0.00    +0.020 C 
ATOM     27  C   UNL     1      -1.671   3.025  11.697  0.00  0.00    +0.107 C 
ENDBRANCH  17  18
ENDBRANCH  15  17
ENDBRANCH   2  15
TORSDOF 5
