REMARK  Name = ZINC10735502
REMARK  4 active torsions:
REMARK  status: ('A' for Active; 'I' for Inactive)
REMARK    1  A    between atoms: C_6  and  C_7
REMARK    2  A    between atoms: C_10  and  C_12
REMARK    3  A    between atoms: N_14  and  N_15
REMARK    4  A    between atoms: C_16  and  C_18
REMARK                            x       y       z     vdW  Elec       q    Type
REMARK                         _______ _______ _______ _____ _____    ______ ____
ROOT
ATOM      1  N   UNL     1      -1.234   1.650   0.017  0.00  0.00    -0.230 N 
ATOM      2  C   UNL     1      -2.392   0.960   0.019  0.00  0.00    +0.260 C 
ATOM      3  O   UNL     1      -2.375  -0.256   0.012  0.00  0.00    -0.269 OA
ATOM      4  H   UNL     1      -1.247   2.620   0.022  0.00  0.00    +0.173 HD
ENDROOT
BRANCH   2   5
ATOM      5  C   UNL     1      -3.679   1.680   0.029  0.00  0.00    +0.040 A 
ATOM      6  C   UNL     1      -3.698   3.078   0.036  0.00  0.00    +0.014 A 
ATOM      7  C   UNL     1      -4.899   3.753   0.047  0.00  0.00    +0.017 A 
ATOM      8  C   UNL     1      -6.092   3.042   0.049  0.00  0.00    +0.029 A 
ATOM      9  C   UNL     1      -6.081   1.646   0.039  0.00  0.00    +0.048 A 
ATOM     10  C   UNL     1      -4.881   0.964   0.025  0.00  0.00    +0.037 A 
ATOM     11  N   UNL     1      -7.298   0.947   0.036  0.00  0.00    -0.285 N 
ATOM     12  C   UNL     1      -8.251   1.253  -0.853  0.00  0.00    +0.218 C 
ATOM     13  O   UNL     1      -9.360   0.780  -0.723  0.00  0.00    -0.275 OA
ATOM     14  C   UNL     1      -7.972   2.168  -2.009  0.00  0.00    +0.107 C 
ATOM     15  C   UNL     1      -8.276   3.626  -1.625  0.00  0.00    +0.083 C 
ATOM     16  S   UNL     1      -7.639   3.889   0.064  0.00  0.00    -0.123 S 
ATOM     17  H   UNL     1      -7.450   0.239   0.682  0.00  0.00    +0.155 HD
ENDBRANCH   2   5
BRANCH   1  20
ATOM     18  C   UNL     1       1.147   1.655   0.000  0.00  0.00    +0.267 C 
ATOM     19  O   UNL     1       1.130   2.873   0.007  0.00  0.00    -0.268 OA
ATOM     20  N   UNL     1      -0.011   0.966   0.007  0.00  0.00    -0.230 N 
ATOM     21  H   UNL     1       0.002  -0.004   0.002  0.00  0.00    +0.173 HD
BRANCH  18  25
ATOM     22  C   UNL     1       4.511  -0.773  -0.045  0.00  0.00    +0.020 A 
ATOM     23  C   UNL     1       4.768   0.589  -0.040  0.00  0.00    +0.017 A 
ATOM     24  C   UNL     1       3.713   1.457  -0.031  0.00  0.00    +0.021 A 
ATOM     25  C   UNL     1       2.425   0.941  -0.016  0.00  0.00    +0.076 A 
ATOM     26  S   UNL     1       2.726  -0.819  -0.029  0.00  0.00    -0.084 S 
BRANCH  22  32
ATOM     27  C   UNL     1       6.842  -1.649  -0.077  0.00  0.00    +0.012 A 
ATOM     28  C   UNL     1       7.731  -2.703  -0.086  0.00  0.00    +0.039 A 
ATOM     29  C   UNL     1       7.263  -4.008  -0.089  0.00  0.00    +0.123 A 
ATOM     30  C   UNL     1       5.900  -4.261  -0.078  0.00  0.00    +0.039 A 
ATOM     31  C   UNL     1       5.002  -3.214  -0.064  0.00  0.00    +0.012 A 
ATOM     32  C   UNL     1       5.468  -1.898  -0.060  0.00  0.00    -0.011 A 
ATOM     33  F   UNL     1       8.138  -5.037  -0.103  0.00  0.00    -0.205 F 
ENDBRANCH  22  32
ENDBRANCH  18  25
ENDBRANCH   1  20
TORSDOF 4
