REMARK  Name = ZINC02797859
REMARK  10 active torsions:
REMARK  status: ('A' for Active; 'I' for Inactive)
REMARK    1  A    between atoms: C_3  and  N_33
REMARK    2  A    between atoms: C_6  and  C_7
REMARK    3  A    between atoms: C_7  and  CA_9
REMARK    4  A    between atoms: C_7  and  O_23
REMARK    5  A    between atoms: CA_9  and  C_11
REMARK    6  A    between atoms: CA_9  and  N_13
REMARK    7  A    between atoms: C_11  and  O_12
REMARK    8  A    between atoms: C_14  and  C_16
REMARK    9  A    between atoms: O_23  and  C_24
REMARK   10  A    between atoms: C_24  and  C_26
REMARK                            x       y       z     vdW  Elec       q    Type
REMARK                         _______ _______ _______ _____ _____    ______ ____
ROOT
ATOM      1  C   UNL     1       0.263   3.523  -1.163  0.00  0.00    +0.229 C 
ENDROOT
BRANCH   1   7
ATOM      2  C   UNL     1       1.089   5.811  -1.752  0.00  0.00    +0.009 A 
ATOM      3  C   UNL     1       0.959   7.187  -1.748  0.00  0.00    +0.033 A 
ATOM      4  C   UNL     1      -0.132   7.776  -1.136  0.00  0.00    +0.126 A 
ATOM      5  C   UNL     1      -1.095   6.989  -0.533  0.00  0.00    +0.033 A 
ATOM      6  C   UNL     1      -0.967   5.612  -0.542  0.00  0.00    +0.009 A 
ATOM      7  C   UNL     1       0.123   5.023  -1.154  0.00  0.00    -0.005 A 
BRANCH   4   8
ATOM      8  N   UNL     1      -0.269   9.250  -1.127  0.00  0.00    +0.056 N 
ATOM      9  O   UNL     1      -1.230   9.769  -0.588  0.00  0.00    -0.126 OA
ATOM     10  O   UNL     1       0.579   9.944  -1.659  0.00  0.00    -0.126 OA
ENDBRANCH   4   8
ENDBRANCH   1   7
BRANCH   1  11
ATOM     11  CA  UNL     1       1.145   3.085   0.008  0.00  0.00    +0.144 C 
BRANCH  11  12
ATOM     12  N   UNL     1       0.530   3.511   1.268  0.00  0.00    -0.302 N 
ATOM     13  C   UNL     1       1.297   3.704   2.360  0.00  0.00    +0.244 C 
ATOM     14  O   UNL     1       2.498   3.526   2.299  0.00  0.00    -0.270 OA
ATOM     15  H   UNL     1      -0.556   3.672   1.323  0.00  0.00    +0.150 HD
BRANCH  13  16
ATOM     16  C   UNL     1       0.677   4.133   3.631  0.00  0.00    +0.037 A 
ATOM     17  C   UNL     1      -0.701   4.345   3.702  0.00  0.00    +0.014 A 
ATOM     18  C   UNL     1      -1.275   4.739   4.893  0.00  0.00    +0.021 A 
ATOM     19  C   UNL     1      -0.485   4.937   6.013  0.00  0.00    +0.041 A 
ATOM     20  C   UNL     1       0.884   4.735   5.946  0.00  0.00    +0.021 A 
ATOM     21  C   UNL     1       1.468   4.335   4.763  0.00  0.00    +0.014 A 
ATOM     22 CL   UNL     1      -1.213   5.441   7.506  0.00  0.00    -0.084 Cl
ENDBRANCH  13  16
ENDBRANCH  11  12
BRANCH  11  23
ATOM     23  C   UNL     1       1.286   1.562  -0.002  0.00  0.00    +0.182 C 
BRANCH  23  24
ATOM     24  O   UNL     1      -0.011   0.963   0.007  0.00  0.00    -0.393 OA
ATOM     25  H   UNL     1      -0.111  -0.133   0.002  0.00  0.00    +0.209 HD
ENDBRANCH  23  24
ENDBRANCH  11  23
ENDBRANCH   1  11
BRANCH   1  26
ATOM     26  O   UNL     1       0.872   3.101  -2.412  0.00  0.00    -0.451 OA
BRANCH  26  27
ATOM     27  C   UNL     1       0.040   2.825  -3.436  0.00  0.00    +0.340 C 
ATOM     28  O   UNL     1      -1.161   2.934  -3.289  0.00  0.00    -0.245 OA
BRANCH  27  29
ATOM     29  C   UNL     1       0.589   2.391  -4.736  0.00  0.00    +0.059 A 
ATOM     30  C   UNL     1       1.969   2.270  -4.910  0.00  0.00    +0.016 A 
ATOM     31  C   UNL     1       2.475   1.858  -6.124  0.00  0.00    +0.021 A 
ATOM     32  C   UNL     1       1.617   1.576  -7.175  0.00  0.00    +0.041 A 
ATOM     33  C   UNL     1       0.247   1.699  -7.011  0.00  0.00    +0.021 A 
ATOM     34  C   UNL     1      -0.271   2.104  -5.799  0.00  0.00    +0.016 A 
ATOM     35 CL   UNL     1       2.262   1.064  -8.703  0.00  0.00    -0.084 Cl
ENDBRANCH  27  29
ENDBRANCH  26  27
ENDBRANCH   1  26
TORSDOF 10
