REMARK  Name = ZINC05149915
REMARK  7 active torsions:
REMARK  status: ('A' for Active; 'I' for Inactive)
REMARK    1  A    between atoms: C_1  and  C_2
REMARK    2  A    between atoms: C_2  and  N_3
REMARK    3  A    between atoms: C_4  and  C_15
REMARK    4  A    between atoms: N_17  and  C_18
REMARK    5  A    between atoms: C_18  and  C_19
REMARK    6  A    between atoms: C_19  and  C_21
REMARK    7  A    between atoms: C_19  and  C_22
REMARK                            x       y       z     vdW  Elec       q    Type
REMARK                         _______ _______ _______ _____ _____    ______ ____
ROOT
ATOM      1  N   UNL     1      -0.165   5.169   1.632  0.00  0.00    -0.333 N 
ATOM      2  C   UNL     1       0.256   3.862   1.751  0.00  0.00    +0.108 A 
ATOM      3  C   UNL     1      -0.728   3.045   1.238  0.00  0.00    +0.079 A 
ATOM      4  C   UNL     1      -1.768   3.867   0.785  0.00  0.00    +0.155 A 
ATOM      5  C   UNL     1      -1.397   5.178   1.040  0.00  0.00    +0.096 A 
ATOM      6  C   UNL     1      -2.506   6.011   0.555  0.00  0.00    +0.044 A 
ATOM      7  C   UNL     1      -2.742   7.385   0.522  0.00  0.00    +0.014 A 
ATOM      8  C   UNL     1      -3.918   7.861  -0.015  0.00  0.00    +0.001 A 
ATOM      9  C   UNL     1      -4.862   6.980  -0.521  0.00  0.00    +0.004 A 
ATOM     10  C   UNL     1      -4.640   5.620  -0.493  0.00  0.00    +0.047 A 
ATOM     11  C   UNL     1      -3.461   5.118   0.044  0.00  0.00    +0.138 A 
ATOM     12  O   UNL     1      -2.988   3.863   0.198  0.00  0.00    -0.453 OA
ENDROOT
BRANCH   2  13
ATOM     13  C   UNL     1       1.528   3.418   2.329  0.00  0.00    +0.261 C 
ATOM     14  O   UNL     1       2.277   4.226   2.846  0.00  0.00    -0.269 OA
ATOM     15  N   UNL     1       1.868   2.114   2.288  0.00  0.00    -0.310 N 
ATOM     16  H   UNL     1       1.308   1.482   1.811  0.00  0.00    +0.149 HD
BRANCH  15  17
ATOM     17  C   UNL     1       3.083   1.652   2.963  0.00  0.00    +0.112 C 
BRANCH  17  18
ATOM     18  C   UNL     1       3.236   0.143   2.763  0.00  0.00    +0.033 C 
ATOM     19  C   UNL     1       3.459  -0.155   1.279  0.00  0.00    +0.014 C 
BRANCH  18  20
ATOM     20  C   UNL     1       4.416  -0.352   3.558  0.00  0.00    -0.043 A 
ATOM     21  C   UNL     1       5.681   0.143   3.299  0.00  0.00    +0.004 A 
ATOM     22  C   UNL     1       6.763  -0.308   4.031  0.00  0.00    +0.000 A 
ATOM     23  C   UNL     1       6.582  -1.261   5.016  0.00  0.00    +0.000 A 
ATOM     24  C   UNL     1       5.319  -1.760   5.271  0.00  0.00    +0.000 A 
ATOM     25  C   UNL     1       4.236  -1.306   4.542  0.00  0.00    +0.004 A 
ENDBRANCH  18  20
ENDBRANCH  17  18
ENDBRANCH  15  17
ENDBRANCH   2  13
BRANCH   1  27
ATOM     26  C   UNL     1       0.149   6.749   3.473  0.00  0.00    +0.027 C 
ATOM     27  C   UNL     1       0.586   6.352   2.061  0.00  0.00    +0.119 C 
ENDBRANCH   1  27
TORSDOF 5
