REMARK  Name = ZINC36738523
REMARK  3 active torsions:
REMARK  status: ('A' for Active; 'I' for Inactive)
REMARK    1  A    between atoms: C_3  and  N_9
REMARK    2  A    between atoms: C_6  and  N_7
REMARK    3  A    between atoms: C_10  and  C_12
REMARK                            x       y       z     vdW  Elec       q    Type
REMARK                         _______ _______ _______ _____ _____    ______ ____
ROOT
ATOM      1  C   UNL     1      -0.019   1.397  -0.018  0.00  0.00    +0.024 A 
ATOM      2  C   UNL     1       1.169   2.100  -0.015  0.00  0.00    +0.026 A 
ATOM      3  C   UNL     1       2.379   1.418  -0.024  0.00  0.00    +0.048 A 
ATOM      4  C   UNL     1       2.394   0.029  -0.034  0.00  0.00    +0.041 A 
ATOM      5  C   UNL     1       1.205  -0.674  -0.035  0.00  0.00    +0.039 A 
ATOM      6  C   UNL     1      -0.005   0.008  -0.028  0.00  0.00    +0.026 A 
ATOM      7 BR   UNL     1       4.041  -0.899  -0.045  0.00  0.00    -0.048 Br
ENDROOT
BRANCH   3   8
ATOM      8  N   UNL     1       3.585   2.132  -0.022  0.00  0.00    -0.280 N 
ATOM      9  C   UNL     1       3.627   3.383   0.477  0.00  0.00    +0.255 C 
ATOM     10  O   UNL     1       2.644   3.856   1.017  0.00  0.00    -0.269 OA
ATOM     11  H   UNL     1       4.389   1.725  -0.380  0.00  0.00    +0.155 HD
BRANCH   9  12
ATOM     12  C   UNL     1       4.855   4.173   0.369  0.00  0.00    +0.075 A 
ATOM     13  C   UNL     1       5.108   5.462   0.816  0.00  0.00    +0.022 A 
ATOM     14  C   UNL     1       6.370   5.944   0.568  0.00  0.00    +0.024 A 
ATOM     15  C   UNL     1       7.263   5.151  -0.079  0.00  0.00    +0.056 A 
ATOM     16  S   UNL     1       6.418   3.727  -0.363  0.00  0.00    -0.077 S 
ATOM     17 BR   UNL     1       9.050   5.555  -0.546  0.00  0.00    -0.043 Br
ENDBRANCH   9  12
ENDBRANCH   3   8
BRANCH   6  18
ATOM     18  N   UNL     1      -1.210  -0.704  -0.030  0.00  0.00    -0.358 N 
ATOM     19  H   UNL     1      -2.054  -0.227  -0.024  0.00  0.00    +0.142 HD
ATOM     20  H   UNL     1      -1.200  -1.674  -0.037  0.00  0.00    +0.142 HD
ENDBRANCH   6  18
TORSDOF 3
