REMARK  Name = ZINC12244107
REMARK  8 active torsions:
REMARK  status: ('A' for Active; 'I' for Inactive)
REMARK    1  A    between atoms: C_1  and  C_2
REMARK    2  A    between atoms: C_2  and  N_57
REMARK    3  A    between atoms: C_6  and  C_16
REMARK    4  A    between atoms: C_7  and  O_14
REMARK    5  A    between atoms: O_14  and  C_15
REMARK    6  A    between atoms: C_23  and  C_25
REMARK    7  A    between atoms: C_25  and  O_27
REMARK    8  A    between atoms: O_27  and  C_28
REMARK                            x       y       z     vdW  Elec       q    Type
REMARK                         _______ _______ _______ _____ _____    ______ ____
ROOT
ATOM      1  C   UNL     1       3.487  -1.374   0.827  0.00  0.00    -0.073 C 
ATOM      2  C   UNL     1       2.361  -0.651   0.090  0.00  0.00    +0.036 C 
ATOM      3  C   UNL     1       2.547   0.846   0.138  0.00  0.00    +0.036 A 
ATOM      4  C   UNL     1       1.396   1.618   0.082  0.00  0.00    +0.098 A 
ATOM      5  C   UNL     1       1.506   3.077   0.069  0.00  0.00    +0.139 A 
ATOM      6  C   UNL     1       2.772   3.627   0.100  0.00  0.00    +0.116 A 
ATOM      7  C   UNL     1       3.877   2.777   0.159  0.00  0.00    +0.255 A 
ATOM      8  O   UNL     1       4.996   3.265   0.176  0.00  0.00    -0.268 OA
ATOM      9  N   UNL     1       3.750   1.430   0.197  0.00  0.00    -0.313 N 
ATOM     10  C   UNL     1       4.994   0.663   0.326  0.00  0.00    +0.106 C 
ATOM     11  C   UNL     1       5.075  -0.438  -0.733  0.00  0.00    -0.057 C 
ATOM     12  N   UNL     1       4.573  -1.684  -0.125  0.00  0.00    +0.381 N 
ATOM     13  H   UNL     1       5.340  -2.142   0.382  0.00  0.00    -0.082 HD
ENDROOT
BRANCH   4  14
ATOM     14  C   UNL     1       0.072   0.973   0.042  0.00  0.00    +0.253 C 
ATOM     15  O   UNL     1      -0.576   0.852   1.064  0.00  0.00    -0.270 OA
ATOM     16  N   UNL     1      -0.419   0.514  -1.126  0.00  0.00    -0.284 N 
ATOM     17  C   UNL     1       0.399   0.547  -2.346  0.00  0.00    +0.109 C 
ATOM     18  C   UNL     1      -0.379   1.266  -3.447  0.00  0.00    +0.019 C 
ATOM     19  C   UNL     1      -1.745   0.599  -3.623  0.00  0.00    +0.004 C 
ATOM     20  C   UNL     1      -2.539   0.707  -2.319  0.00  0.00    +0.034 C 
ATOM     21  C   UNL     1      -1.784  -0.025  -1.204  0.00  0.00    +0.185 C 
BRANCH  21  22
ATOM     22  C   UNL     1      -2.487   0.189   0.111  0.00  0.00    +0.328 C 
ATOM     23  O   UNL     1      -2.658   1.309   0.530  0.00  0.00    -0.249 OA
BRANCH  22  24
ATOM     24  O   UNL     1      -2.925  -0.865   0.817  0.00  0.00    -0.467 OA
ATOM     25  C   UNL     1      -3.594  -0.585   2.075  0.00  0.00    +0.280 C 
ENDBRANCH  22  24
ENDBRANCH  21  22
ENDBRANCH   4  14
BRANCH  12  27
ATOM     26  C   UNL     1       5.265  -3.071  -2.019  0.00  0.00    -0.017 C 
ATOM     27  C   UNL     1       4.079  -2.598  -1.177  0.00  0.00    -0.082 C 
ENDBRANCH  12  27
BRANCH   5  28
ATOM     28  O   UNL     1       0.404   3.861   0.028  0.00  0.00    -0.494 OA
ATOM     29  C   UNL     1       0.613   5.269  -0.098  0.00  0.00    +0.277 C 
ENDBRANCH   5  28
TORSDOF 5
