REMARK  Name = ZINC67163954
REMARK  10 active torsions:
REMARK  status: ('A' for Active; 'I' for Inactive)
REMARK    1  A    between atoms: C_1  and  C_2
REMARK    2  A    between atoms: N_8  and  C_9
REMARK    3  A    between atoms: C_9  and  C_11
REMARK    4  A    between atoms: C_9  and  C_12
REMARK    5  A    between atoms: C_12  and  N_13
REMARK    6  A    between atoms: C_14  and  C_16
REMARK    7  A    between atoms: C_16  and  C_17
REMARK    8  A    between atoms: C_17  and  C_18
REMARK    9  A    between atoms: C_18  and  C_19
REMARK   10  A    between atoms: C_19  and  C_20
REMARK                            x       y       z     vdW  Elec       q    Type
REMARK                         _______ _______ _______ _____ _____    ______ ____
ROOT
ATOM      1  N   UNL     1      -0.779   1.937   0.763  0.00  0.00    -0.317 N 
ATOM      2  C   UNL     1      -1.054   3.210   0.417  0.00  0.00    +0.213 C 
ATOM      3  O   UNL     1      -0.602   4.127   1.071  0.00  0.00    -0.276 OA
ATOM      4  H   UNL     1      -1.079   1.206   0.200  0.00  0.00    +0.149 HD
ENDROOT
BRANCH   1   5
ATOM      5  C   UNL     1      -0.026   1.656   1.988  0.00  0.00    +0.088 C 
BRANCH   5   6
ATOM      6  C   UNL     1       0.046   0.143   2.207  0.00  0.00    -0.054 C 
ATOM      7  C   UNL     1       0.911  -0.153   3.434  0.00  0.00    -0.012 C 
BRANCH   6  14
ATOM      8  C   UNL     1      -0.818  -2.417   1.444  0.00  0.00    -0.013 C 
ATOM      9  C   UNL     1       0.619  -1.953   1.195  0.00  0.00    -0.071 C 
ATOM     10  C   UNL     1       1.160  -2.625  -0.068  0.00  0.00    -0.016 C 
ATOM     11  C   UNL     1       2.597  -2.157  -0.313  0.00  0.00    -0.003 C 
ATOM     12  C   UNL     1       2.616  -0.630  -0.415  0.00  0.00    -0.019 C 
ATOM     13  C   UNL     1       2.021  -0.031   0.861  0.00  0.00    -0.078 C 
ATOM     14  N   UNL     1       0.638  -0.495   1.024  0.00  0.00    +0.384 N 
ATOM     15  H   UNL     1       0.102  -0.246   0.206  0.00  0.00    -0.081 HD
ENDBRANCH   6  14
ENDBRANCH   5   6
ENDBRANCH   1   5
BRANCH   2  16
ATOM     16  C   UNL     1      -1.923   3.495  -0.780  0.00  0.00    +0.096 C 
BRANCH  16  17
ATOM     17  C   UNL     1      -1.972   5.004  -1.027  0.00  0.00    +0.009 C 
BRANCH  17  18
ATOM     18  C   UNL     1      -2.855   5.294  -2.243  0.00  0.00    +0.002 C 
BRANCH  18  19
ATOM     19  C   UNL     1      -2.905   6.803  -2.489  0.00  0.00    +0.016 C 
BRANCH  19  20
ATOM     20  C   UNL     1      -3.787   7.093  -3.705  0.00  0.00    +0.069 C 
ATOM     21  C   UNL     1      -3.837   8.569  -4.003  0.00  0.00    +0.108 C 
ATOM     22  C   UNL     1      -5.178   8.884  -4.734  0.00  0.00    +0.105 C 
ATOM     23  C   UNL     1      -6.278   8.435  -3.775  0.00  0.00    +0.093 C 
ATOM     24  S   UNL     1      -5.571   6.757  -3.333  0.00  0.00    -0.154 S 
ATOM     25  N   UNL     1      -4.960  10.282  -5.031  0.00  0.00    -0.294 N 
ATOM     26  C   UNL     1      -3.614  10.404  -5.238  0.00  0.00    +0.300 C 
ATOM     27  O   UNL     1      -3.098  11.379  -5.749  0.00  0.00    -0.253 OA
ATOM     28  N   UNL     1      -2.923   9.308  -4.823  0.00  0.00    -0.294 N 
ATOM     29  H   UNL     1      -5.627  10.984  -5.074  0.00  0.00    +0.151 HD
ATOM     30  H   UNL     1      -2.003   9.082  -5.034  0.00  0.00    +0.151 HD
ENDBRANCH  19  20
ENDBRANCH  18  19
ENDBRANCH  17  18
ENDBRANCH  16  17
ENDBRANCH   2  16
TORSDOF 8
