REMARK  Name = ZINC64152311
REMARK  8 active torsions:
REMARK  status: ('A' for Active; 'I' for Inactive)
REMARK    1  A    between atoms: C_1  and  N_2
REMARK    2  A    between atoms: C_3  and  C_30
REMARK    3  A    between atoms: C_6  and  C_17
REMARK    4  A    between atoms: C_8  and  C_10
REMARK    5  A    between atoms: C_17  and  N_18
REMARK    6  A    between atoms: N_18  and  C_19
REMARK    7  A    between atoms: C_19  and  C_20
REMARK    8  A    between atoms: C_30  and  O_31
REMARK                            x       y       z     vdW  Elec       q    Type
REMARK                         _______ _______ _______ _____ _____    ______ ____
ROOT
ATOM      1  C   UNL     1       0.062   1.622   0.260  0.00  0.00    -0.095 C 
ATOM      2  N   UNL     1      -0.047   0.163   0.119  0.00  0.00    +0.386 N 
ATOM      3  C   UNL     1       0.517  -0.255  -1.182  0.00  0.00    -0.042 C 
ATOM      4  C   UNL     1       1.200  -1.615  -0.898  0.00  0.00    -0.010 C 
ATOM      5  C   UNL     1       1.783  -1.383   0.521  0.00  0.00    -0.008 C 
ATOM      6  C   UNL     1       0.714  -0.497   1.195  0.00  0.00    -0.030 C 
ATOM      7  H   UNL     1      -1.016  -0.112   0.171  0.00  0.00    -0.081 HD
ENDROOT
BRANCH   6   8
ATOM      8  C   UNL     1      -0.208  -1.350   2.027  0.00  0.00    -0.025 A 
ATOM      9  C   UNL     1      -1.340  -1.903   1.457  0.00  0.00    +0.005 A 
ATOM     10  C   UNL     1      -2.186  -2.686   2.220  0.00  0.00    +0.000 A 
ATOM     11  C   UNL     1      -1.902  -2.916   3.554  0.00  0.00    +0.003 A 
ATOM     12  C   UNL     1      -0.772  -2.364   4.125  0.00  0.00    +0.038 A 
ATOM     13  C   UNL     1       0.080  -1.584   3.361  0.00  0.00    +0.125 A 
ATOM     14  F   UNL     1       1.188  -1.048   3.917  0.00  0.00    -0.205 F 
ENDBRANCH   6   8
BRANCH   5  15
ATOM     15  C   UNL     1       1.939  -2.711   1.266  0.00  0.00    +0.083 C 
BRANCH  15  16
ATOM     16  N   UNL     1       2.964  -3.527   0.602  0.00  0.00    -0.314 NA
ATOM     17  H   UNL     1       2.740  -3.667  -0.372  0.00  0.00    +0.122 HD
BRANCH  16  18
ATOM     18  C   UNL     1       3.141  -4.812   1.291  0.00  0.00    +0.109 C 
BRANCH  18  19
ATOM     19  C   UNL     1       4.214  -5.633   0.573  0.00  0.00    +0.117 C 
ATOM     20  C   UNL     1       4.281  -7.027   1.156  0.00  0.00    +0.008 C 
ATOM     21  C   UNL     1       3.986  -7.872   0.141  0.00  0.00    -0.004 A 
ATOM     22  C   UNL     1       3.888  -9.334   0.062  0.00  0.00    +0.010 A 
ATOM     23  C   UNL     1       3.567  -9.907  -1.120  0.00  0.00    +0.001 A 
ATOM     24  C   UNL     1       3.326  -9.141  -2.269  0.00  0.00    +0.002 A 
ATOM     25  C   UNL     1       3.397  -7.793  -2.275  0.00  0.00    +0.026 A 
ATOM     26  C   UNL     1       3.727  -7.086  -1.086  0.00  0.00    +0.043 A 
ATOM     27  N   UNL     1       3.858  -5.803  -0.841  0.00  0.00    -0.377 N 
ATOM     28  H   UNL     1       3.739  -5.087  -1.484  0.00  0.00    +0.160 HD
ENDBRANCH  18  19
ENDBRANCH  16  18
ENDBRANCH  15  16
ENDBRANCH   5  15
BRANCH   3  29
ATOM     29  C   UNL     1      -0.598  -0.422  -2.217  0.00  0.00    +0.140 C 
BRANCH  29  30
ATOM     30  O   UNL     1      -1.455  -1.496  -1.825  0.00  0.00    -0.397 OA
ATOM     31  H   UNL     1      -2.186  -1.659  -2.436  0.00  0.00    +0.209 HD
ENDBRANCH  29  30
ENDBRANCH   3  29
TORSDOF 7
