REMARK  Name = ZINC20410933
REMARK  7 active torsions:
REMARK  status: ('A' for Active; 'I' for Inactive)
REMARK    1  A    between atoms: C_1  and  C_2
REMARK    2  A    between atoms: C_18  and  C_20
REMARK    3  A    between atoms: C_20  and  N_21
REMARK    4  A    between atoms: N_24  and  C_27
REMARK    5  A    between atoms: C_27  and  C_28
REMARK    6  A    between atoms: C_27  and  C_34
REMARK    7  A    between atoms: C_27  and  O_40
REMARK                            x       y       z     vdW  Elec       q    Type
REMARK                         _______ _______ _______ _____ _____    ______ ____
ROOT
ATOM      1  N   UNL     1       4.093  -3.987  -2.533  0.00  0.00    +0.382 N 
ATOM      2  C   UNL     1       3.904  -4.563  -1.194  0.00  0.00    -0.063 C 
ATOM      3  C   UNL     1       2.572  -4.080  -0.617  0.00  0.00    +0.069 C 
ATOM      4  N   UNL     1       2.569  -2.611  -0.560  0.00  0.00    -0.271 NA
ATOM      5  C   UNL     1       2.758  -2.035  -1.899  0.00  0.00    +0.069 C 
ATOM      6  C   UNL     1       4.090  -2.519  -2.476  0.00  0.00    -0.063 C 
ATOM      7  H   UNL     1       3.248  -4.305  -3.161  0.00  0.00    -0.082 HD
ENDROOT
BRANCH   1   8
ATOM      8  C   UNL     1       5.327  -4.488  -3.152  0.00  0.00    -0.064 C 
BRANCH   8  23
ATOM      9  C   UNL     1       6.952  -8.611  -5.166  0.00  0.00    +0.011 C 
ATOM     10  C   UNL     1       7.265  -7.141  -5.469  0.00  0.00    -0.023 C 
ATOM     11  C   UNL     1       8.398  -7.056  -6.484  0.00  0.00    +0.007 C 
ATOM     12  C   UNL     1       9.671  -7.710  -5.952  0.00  0.00    +0.003 C 
ATOM     13  C   UNL     1      10.120  -7.026  -4.660  0.00  0.00    +0.037 C 
ATOM     14  C   UNL     1       8.969  -7.010  -3.656  0.00  0.00    +0.096 C 
ATOM     15  C   UNL     1       7.649  -6.420  -4.176  0.00  0.00    +0.030 C 
ATOM     16  C   UNL     1       7.865  -4.934  -4.439  0.00  0.00    +0.014 C 
ATOM     17  C   UNL     1       6.798  -4.250  -5.230  0.00  0.00    +0.042 C 
ATOM     18  C   UNL     1       6.256  -5.051  -6.426  0.00  0.00    +0.181 C 
ATOM     19  C   UNL     1       5.998  -6.504  -6.038  0.00  0.00    +0.052 C 
ATOM     20  O   UNL     1       4.950  -4.415  -6.666  0.00  0.00    -0.461 OA
ATOM     21  C   UNL     1       4.410  -4.140  -5.460  0.00  0.00    +0.309 C 
ATOM     22  O   UNL     1       3.234  -4.159  -5.189  0.00  0.00    -0.251 OA
ATOM     23  C   UNL     1       5.537  -3.799  -4.495  0.00  0.00    +0.088 C 
ATOM     24  C   UNL     1       8.908  -8.098  -2.591  0.00  0.00    +0.196 C 
ATOM     25  O   UNL     1       9.295  -6.756  -2.286  0.00  0.00    -0.368 OA
ENDBRANCH   8  23
ENDBRANCH   1   8
BRANCH   4  26
ATOM     26  C   UNL     1       1.335  -2.110   0.059  0.00  0.00    +0.172 C 
BRANCH  26  27
ATOM     27  C   UNL     1       1.369  -0.604   0.099  0.00  0.00    +0.003 A 
ATOM     28  C   UNL     1       0.187   0.113   0.138  0.00  0.00    +0.008 A 
ATOM     29  C   UNL     1       0.218   1.494   0.176  0.00  0.00    +0.000 A 
ATOM     30  C   UNL     1       1.430   2.159   0.175  0.00  0.00    +0.000 A 
ATOM     31  C   UNL     1       2.611   1.442   0.134  0.00  0.00    +0.000 A 
ATOM     32  C   UNL     1       2.581   0.060   0.098  0.00  0.00    +0.008 A 
ENDBRANCH  26  27
BRANCH  26  33
ATOM     33  C   UNL     1       1.223  -2.648   1.463  0.00  0.00    +0.003 A 
ATOM     34  C   UNL     1       2.366  -2.928   2.188  0.00  0.00    +0.008 A 
ATOM     35  C   UNL     1       2.264  -3.417   3.477  0.00  0.00    +0.000 A 
ATOM     36  C   UNL     1       1.019  -3.635   4.037  0.00  0.00    +0.000 A 
ATOM     37  C   UNL     1      -0.124  -3.358   3.310  0.00  0.00    +0.000 A 
ATOM     38  C   UNL     1      -0.022  -2.865   2.022  0.00  0.00    +0.008 A 
ENDBRANCH  26  33
BRANCH  26  39
ATOM     39  O   UNL     1       0.208  -2.541  -0.707  0.00  0.00    -0.366 OA
ATOM     40  H   UNL     1      -0.808  -2.261  -0.395  0.00  0.00    +0.212 HD
ENDBRANCH  26  39
ENDBRANCH   4  26
TORSDOF 6
