REMARK  Name = ZINC19354064
REMARK  1 active torsions:
REMARK  status: ('A' for Active; 'I' for Inactive)
REMARK    1  A    between atoms: C_3  and  C_6
REMARK                            x       y       z     vdW  Elec       q    Type
REMARK                         _______ _______ _______ _____ _____    ______ ____
ROOT
ATOM      1  C   UNL     1       3.761   1.845  -0.024  0.00  0.00    +0.215 C 
ATOM      2  N   UNL     1       4.593   1.002  -0.902  0.00  0.00    -0.292 N 
ATOM      3  C   UNL     1       5.109  -0.175  -0.428  0.00  0.00    +0.183 C 
ATOM      4  N   UNL     1       5.402  -0.334   0.851  0.00  0.00    -0.183 NA
ATOM      5  C   UNL     1       5.121   0.678   1.707  0.00  0.00    +0.236 A 
ATOM      6  N   UNL     1       4.338   1.753   1.321  0.00  0.00    -0.284 N 
ATOM      7  C   UNL     1       4.244   2.612   2.391  0.00  0.00    +0.076 A 
ATOM      8  C   UNL     1       3.621   3.835   2.600  0.00  0.00    +0.077 A 
ATOM      9  C   UNL     1       3.719   4.456   3.831  0.00  0.00    +0.164 A 
ATOM     10  C   UNL     1       4.441   3.865   4.864  0.00  0.00    +0.164 A 
ATOM     11  C   UNL     1       5.067   2.651   4.673  0.00  0.00    +0.079 A 
ATOM     12  C   UNL     1       4.975   2.011   3.433  0.00  0.00    +0.095 A 
ATOM     13  N   UNL     1       5.476   0.831   2.955  0.00  0.00    -0.210 NA
ATOM     14  O   UNL     1       4.525   4.495   6.073  0.00  0.00    -0.488 OA
ATOM     15  C   UNL     1       5.282   5.706   6.096  0.00  0.00    +0.232 C 
ATOM     16  C   UNL     1       4.424   6.886   5.669  0.00  0.00    +0.082 C 
ATOM     17  C   UNL     1       3.972   6.780   4.221  0.00  0.00    +0.232 C 
ATOM     18  O   UNL     1       3.106   5.658   4.041  0.00  0.00    -0.488 OA
ATOM     19  N   UNL     1       5.326  -1.209  -1.298  0.00  0.00    -0.331 N 
ATOM     20  H   UNL     1       4.775   1.280  -1.813  0.00  0.00    +0.151 HD
ATOM     21  H   UNL     1       5.114  -1.104  -2.239  0.00  0.00    +0.145 HD
ATOM     22  H   UNL     1       5.691  -2.047  -0.974  0.00  0.00    +0.145 HD
ENDROOT
BRANCH   1  25
ATOM     23  C   UNL     1      -0.016   1.351   0.009  0.00  0.00    +0.008 A 
ATOM     24  C   UNL     1       1.183   2.038   0.002  0.00  0.00    +0.015 A 
ATOM     25  C   UNL     1       2.343   1.336  -0.013  0.00  0.00    +0.030 A 
ATOM     26  S   UNL     1       1.754  -0.349  -0.017  0.00  0.00    -0.098 S 
ATOM     27  C   UNL     1       0.002  -0.004   0.002  0.00  0.00    +0.045 A 
ENDBRANCH   1  25
TORSDOF 1
