REMARK  Name = ZINC39736412
REMARK  16 active torsions:
REMARK  status: ('A' for Active; 'I' for Inactive)
REMARK    1  A    between atoms: C_1  and  C_2
REMARK    2  A    between atoms: C_2  and  O_3
REMARK    3  A    between atoms: O_3  and  C_4
REMARK    4  A    between atoms: C_4  and  C_6
REMARK    5  A    between atoms: C_10  and  N_11
REMARK    6  A    between atoms: C_12  and  C_14
REMARK    7  A    between atoms: C_17  and  S_20
REMARK    8  A    between atoms: S_20  and  N_23
REMARK    9  A    between atoms: N_23  and  C_24
REMARK   10  A    between atoms: N_23  and  C_25
REMARK   11  A    between atoms: C_25  and  C_26
REMARK   12  A    between atoms: C_25  and  C_27
REMARK   13  A    between atoms: C_28  and  C_34
REMARK   14  A    between atoms: C_28  and  C_35
REMARK   15  A    between atoms: C_30  and  C_32
REMARK   16  A    between atoms: C_30  and  C_33
REMARK                            x       y       z     vdW  Elec       q    Type
REMARK                         _______ _______ _______ _____ _____    ______ ____
ROOT
ATOM      1  C   UNL     1      -2.843  -2.416   0.016  0.00  0.00    +0.091 A 
ATOM      2  C   UNL     1      -3.560  -2.710  -1.206  0.00  0.00    -0.024 A 
ATOM      3  C   UNL     1      -4.793  -3.236  -1.022  0.00  0.00    -0.016 A 
ATOM      4  S   UNL     1      -4.971  -3.340   0.734  0.00  0.00    -0.079 S 
ATOM      5  C   UNL     1      -3.491  -2.707   1.212  0.00  0.00    +0.086 A 
ATOM      6  C   UNL     1      -5.761  -3.619  -2.091  0.00  0.00    -0.041 C 
ATOM      7  N   UNL     1      -5.174  -3.526  -3.426  0.00  0.00    +0.389 N 
ATOM      8  C   UNL     1      -3.720  -3.568  -3.504  0.00  0.00    -0.069 C 
ATOM      9  C   UNL     1      -3.066  -2.492  -2.627  0.00  0.00    +0.024 C 
ATOM     10  C   UNL     1      -3.304  -3.301  -4.964  0.00  0.00    -0.010 C 
ATOM     11  C   UNL     1      -3.183  -4.944  -3.107  0.00  0.00    -0.010 C 
ATOM     12  C   UNL     1      -6.275  -5.043  -1.832  0.00  0.00    -0.005 C 
ATOM     13  C   UNL     1      -6.966  -2.662  -2.016  0.00  0.00    -0.005 C 
ATOM     14  H   UNL     1      -5.552  -4.280  -4.002  0.00  0.00    -0.084 HD
ATOM     15  H   UNL     1      -5.496  -2.660  -3.863  0.00  0.00    -0.084 HD
ENDROOT
BRANCH   5  16
ATOM     16  N   UNL     1      -3.021  -2.514   2.500  0.00  0.00    -0.275 N 
ATOM     17  C   UNL     1      -3.788  -2.855   3.555  0.00  0.00    +0.249 C 
ATOM     18  O   UNL     1      -4.892  -3.331   3.375  0.00  0.00    -0.270 OA
ATOM     19  H   UNL     1      -2.140  -2.135   2.644  0.00  0.00    +0.156 HD
BRANCH  17  20
ATOM     20  C   UNL     1      -3.287  -2.650   4.930  0.00  0.00    +0.037 A 
ATOM     21  C   UNL     1      -2.022  -2.099   5.140  0.00  0.00    +0.015 A 
ATOM     22  C   UNL     1      -1.561  -1.910   6.426  0.00  0.00    +0.029 A 
ATOM     23  C   UNL     1      -2.349  -2.265   7.507  0.00  0.00    +0.106 A 
ATOM     24  C   UNL     1      -3.603  -2.813   7.305  0.00  0.00    +0.029 A 
ATOM     25  C   UNL     1      -4.079  -3.002   6.024  0.00  0.00    +0.015 A 
BRANCH  23  26
ATOM     26  S   UNL     1      -1.752  -2.020   9.146  0.00  0.00    +0.061 S 
ATOM     27  O   UNL     1      -2.453  -2.937   9.975  0.00  0.00    -0.153 OA
ATOM     28  O   UNL     1      -0.333  -2.000   9.063  0.00  0.00    -0.153 OA
BRANCH  26  29
ATOM     29  N   UNL     1      -2.220  -0.503   9.616  0.00  0.00    -0.177 NA
ATOM     30  C   UNL     1      -3.507  -0.309  10.289  0.00  0.00    +0.132 C 
BRANCH  29  31
ATOM     31  C   UNL     1      -1.347   0.645   9.360  0.00  0.00    +0.073 C 
ATOM     32  C   UNL     1      -2.079   1.654   8.473  0.00  0.00    +0.025 C 
ATOM     33  C   UNL     1      -0.974   1.309  10.687  0.00  0.00    +0.025 C 
ENDBRANCH  29  31
ENDBRANCH  26  29
ENDBRANCH  23  26
ENDBRANCH  17  20
ENDBRANCH   5  16
BRANCH   1  34
ATOM     34  C   UNL     1      -1.497  -1.838   0.006  0.00  0.00    +0.342 C 
ATOM     35  O   UNL     1      -0.522  -2.566  -0.007  0.00  0.00    -0.245 OA
BRANCH  34  36
ATOM     36  O   UNL     1      -1.339  -0.499   0.012  0.00  0.00    -0.461 OA
BRANCH  36  38
ATOM     37  C   UNL     1      -0.019   1.526   0.010  0.00  0.00    +0.048 C 
ATOM     38  C   UNL     1       0.002  -0.004   0.002  0.00  0.00    +0.229 C 
ENDBRANCH  36  38
ENDBRANCH  34  36
ENDBRANCH   1  34
TORSDOF 8
