REMARK  Name = ZINC43374618
REMARK  10 active torsions:
REMARK  status: ('A' for Active; 'I' for Inactive)
REMARK    1  A    between atoms: C_1  and  C_2
REMARK    2  A    between atoms: C_2  and  C_4
REMARK    3  A    between atoms: C_2  and  N_14
REMARK    4  A    between atoms: C_7  and  S_10
REMARK    5  A    between atoms: S_10  and  N_13
REMARK    6  A    between atoms: N_14  and  C_15
REMARK    7  A    between atoms: C_22  and  C_24
REMARK    8  A    between atoms: C_24  and  C_25
REMARK    9  A    between atoms: C_25  and  C_26
REMARK   10  A    between atoms: C_25  and  C_27
REMARK                            x       y       z     vdW  Elec       q    Type
REMARK                         _______ _______ _______ _____ _____    ______ ____
ROOT
ATOM      1  N   UNL     1       0.618  -0.399  -1.310  0.00  0.00    -0.282 N 
ATOM      2  C   UNL     1       2.002  -0.047  -1.637  0.00  0.00    +0.134 C 
ATOM      3  C   UNL     1      -0.167  -0.981  -2.239  0.00  0.00    +0.308 C 
ATOM      4  O   UNL     1      -1.315  -1.273  -1.967  0.00  0.00    -0.252 OA
ATOM      5  N   UNL     1       0.321  -1.238  -3.468  0.00  0.00    -0.247 N 
ATOM      6  C   UNL     1      -0.489  -1.838  -4.426  0.00  0.00    +0.189 A 
ATOM      7  N   UNL     1      -1.747  -2.221  -4.330  0.00  0.00    -0.126 NA
ATOM      8  N   UNL     1      -2.357  -2.757  -5.298  0.00  0.00    -0.145 NA
ATOM      9  C   UNL     1      -1.720  -2.940  -6.436  0.00  0.00    +0.104 A 
ATOM     10  S   UNL     1      -0.121  -2.260  -6.017  0.00  0.00    -0.035 S 
ATOM     11  H   UNL     1       1.238  -1.005  -3.685  0.00  0.00    +0.158 HD
ENDROOT
BRANCH   1  13
ATOM     12  C   UNL     1       0.301   1.358   0.361  0.00  0.00    +0.033 C 
ATOM     13  C   UNL     1       0.088  -0.120   0.026  0.00  0.00    +0.104 C 
BRANCH  13  14
ATOM     14  C   UNL     1       0.805  -0.973   1.041  0.00  0.00    -0.027 A 
ATOM     15  C   UNL     1       2.184  -0.926   1.131  0.00  0.00    +0.007 A 
ATOM     16  C   UNL     1       2.842  -1.708   2.062  0.00  0.00    +0.029 A 
ATOM     17  C   UNL     1       2.122  -2.537   2.901  0.00  0.00    +0.105 A 
ATOM     18  C   UNL     1       0.743  -2.583   2.811  0.00  0.00    +0.029 A 
ATOM     19  C   UNL     1       0.085  -1.797   1.884  0.00  0.00    +0.007 A 
BRANCH  17  20
ATOM     20  S   UNL     1       2.961  -3.535   4.086  0.00  0.00    +0.056 S 
ATOM     21  O   UNL     1       2.100  -4.627   4.380  0.00  0.00    -0.153 OA
ATOM     22  O   UNL     1       4.284  -3.717   3.600  0.00  0.00    -0.153 OA
BRANCH  20  23
ATOM     23  N   UNL     1       3.086  -2.644   5.476  0.00  0.00    -0.204 NA
ATOM     24  H   UNL     1       2.724  -1.745   5.510  0.00  0.00    +0.144 HD
ATOM     25  H   UNL     1       3.522  -3.021   6.257  0.00  0.00    +0.144 HD
ENDBRANCH  20  23
ENDBRANCH  17  20
ENDBRANCH  13  14
ENDBRANCH   1  13
BRANCH   9  26
ATOM     26  C   UNL     1      -2.203  -3.547  -7.728  0.00  0.00    +0.068 C 
BRANCH  26  27
ATOM     27  C   UNL     1      -2.796  -2.452  -8.616  0.00  0.00    -0.011 C 
ATOM     28  C   UNL     1      -1.695  -1.469  -9.018  0.00  0.00    +0.007 C 
ATOM     29  C   UNL     1      -3.399  -3.084  -9.872  0.00  0.00    +0.007 C 
ENDBRANCH  26  27
ENDBRANCH   9  26
TORSDOF 6
