REMARK  Name = ZINC12415965
REMARK  10 active torsions:
REMARK  status: ('A' for Active; 'I' for Inactive)
REMARK    1  A    between atoms: C_1  and  C_2
REMARK    2  A    between atoms: C_2  and  C_3
REMARK    3  A    between atoms: C_3  and  C_4
REMARK    4  A    between atoms: C_4  and  N_5
REMARK    5  A    between atoms: C_6  and  C_8
REMARK    6  A    between atoms: C_8  and  C_9
REMARK    7  A    between atoms: C_12  and  N_15
REMARK    8  A    between atoms: N_24  and  C_27
REMARK    9  A    between atoms: C_27  and  C_28
REMARK   10  A    between atoms: N_30  and  C_31
REMARK                            x       y       z     vdW  Elec       q    Type
REMARK                         _______ _______ _______ _____ _____    ______ ____
ROOT
ATOM      1  N   UNL     1      -2.578  -0.801  -7.169  0.00  0.00    -0.228 N 
ATOM      2  C   UNL     1      -3.208   0.361  -7.442  0.00  0.00    +0.269 A 
ATOM      3  O   UNL     1      -4.361   0.370  -7.829  0.00  0.00    -0.266 OA
ATOM      4  C   UNL     1      -2.464   1.619  -7.258  0.00  0.00    +0.064 A 
ATOM      5  C   UNL     1      -3.044   2.859  -7.517  0.00  0.00    +0.015 A 
ATOM      6  C   UNL     1      -2.305   4.008  -7.328  0.00  0.00    +0.001 A 
ATOM      7  C   UNL     1      -0.993   3.934  -6.883  0.00  0.00    +0.002 A 
ATOM      8  C   UNL     1      -0.407   2.711  -6.623  0.00  0.00    +0.027 A 
ATOM      9  C   UNL     1      -1.134   1.546  -6.807  0.00  0.00    +0.059 A 
ATOM     10  N   UNL     1      -0.583   0.297  -6.556  0.00  0.00    -0.284 N 
ATOM     11  C   UNL     1      -1.304  -0.821  -6.746  0.00  0.00    +0.337 A 
ATOM     12  O   UNL     1      -0.782  -1.895  -6.520  0.00  0.00    -0.246 OA
ENDROOT
BRANCH   1  16
ATOM     13  C   UNL     1      -4.622  -4.399  -7.668  0.00  0.00    -0.038 A 
ATOM     14  C   UNL     1      -4.664  -3.745  -6.450  0.00  0.00    +0.006 A 
ATOM     15  C   UNL     1      -3.988  -2.553  -6.282  0.00  0.00    +0.027 A 
ATOM     16  C   UNL     1      -3.265  -2.011  -7.337  0.00  0.00    +0.054 A 
ATOM     17  C   UNL     1      -3.228  -2.668  -8.559  0.00  0.00    +0.027 A 
ATOM     18  C   UNL     1      -3.903  -3.863  -8.720  0.00  0.00    +0.006 A 
BRANCH  13  19
ATOM     19  C   UNL     1      -5.362  -5.700  -7.848  0.00  0.00    +0.130 C 
BRANCH  19  21
ATOM     20  N   UNL     1      -7.611  -6.438  -8.565  0.00  0.00    -0.315 N 
ATOM     21  C   UNL     1      -6.761  -5.419  -8.332  0.00  0.00    +0.217 C 
ATOM     22  O   UNL     1      -7.122  -4.275  -8.513  0.00  0.00    -0.275 OA
ATOM     23  H   UNL     1      -7.323  -7.353  -8.420  0.00  0.00    +0.149 HD
BRANCH  20  24
ATOM     24  C   UNL     1      -8.971  -6.165  -9.036  0.00  0.00    +0.104 C 
BRANCH  24  25
ATOM     25  C   UNL     1      -9.722  -7.485  -9.219  0.00  0.00    +0.018 C 
BRANCH  25  27
ATOM     26  C   UNL     1     -11.894  -8.520  -9.894  0.00  0.00    +0.004 C 
ATOM     27  C   UNL     1     -11.143  -7.200  -9.711  0.00  0.00    -0.002 C 
ENDBRANCH  25  27
ENDBRANCH  24  25
ENDBRANCH  20  24
ENDBRANCH  19  21
ENDBRANCH  13  19
ENDBRANCH   1  16
BRANCH  10  28
ATOM     28  C   UNL     1       0.801   0.197  -6.086  0.00  0.00    +0.222 C 
BRANCH  28  29
ATOM     29  C   UNL     1       0.823   0.233  -4.579  0.00  0.00    +0.233 C 
ATOM     30  O   UNL     1      -0.214   0.333  -3.959  0.00  0.00    -0.274 OA
ATOM     31  N   UNL     1       1.996   0.154  -3.921  0.00  0.00    -0.311 N 
ATOM     32  H   UNL     1       2.826   0.074  -4.416  0.00  0.00    +0.149 HD
BRANCH  31  33
ATOM     33  C   UNL     1       2.018   0.189  -2.456  0.00  0.00    +0.073 C 
ATOM     34  C   UNL     1       3.279  -0.512  -1.948  0.00  0.00    +0.022 C 
ATOM     35  C   UNL     1       3.302  -0.476  -0.418  0.00  0.00    +0.002 C 
ATOM     36  C   UNL     1       3.301   0.979   0.057  0.00  0.00    +0.000 C 
ATOM     37  C   UNL     1       2.039   1.680  -0.451  0.00  0.00    +0.002 C 
ATOM     38  C   UNL     1       2.017   1.643  -1.981  0.00  0.00    +0.022 C 
ENDBRANCH  31  33
ENDBRANCH  28  29
ENDBRANCH  10  28
TORSDOF 9
