REMARK  Name = ZINC08632990
REMARK  8 active torsions:
REMARK  status: ('A' for Active; 'I' for Inactive)
REMARK    1  A    between atoms: C_1  and  C_2
REMARK    2  A    between atoms: N_13  and  C_31
REMARK    3  A    between atoms: C_14  and  S_16
REMARK    4  A    between atoms: S_16  and  C_17
REMARK    5  A    between atoms: C_17  and  C_18
REMARK    6  A    between atoms: N_20  and  N_21
REMARK    7  A    between atoms: C_22  and  C_24
REMARK    8  A    between atoms: C_31  and  C_32
REMARK                            x       y       z     vdW  Elec       q    Type
REMARK                         _______ _______ _______ _____ _____    ______ ____
ROOT
ATOM      1  C   UNL     1      -3.819  -1.600  -8.811  0.00  0.00    +0.008 C 
ATOM      2  C   UNL     1      -3.607  -1.792  -7.308  0.00  0.00    -0.009 C 
ATOM      3  C   UNL     1      -2.940  -0.546  -6.717  0.00  0.00    +0.008 C 
ATOM      4  C   UNL     1      -2.952  -0.627  -5.190  0.00  0.00    +0.037 C 
ATOM      5  C   UNL     1      -2.348  -1.962  -4.763  0.00  0.00    -0.023 A 
ATOM      6  C   UNL     1      -2.255  -2.986  -5.635  0.00  0.00    -0.004 A 
ATOM      7  S   UNL     1      -1.507  -4.305  -4.717  0.00  0.00    -0.073 S 
ATOM      8  C   UNL     1      -1.320  -3.474  -3.160  0.00  0.00    +0.117 A 
ATOM      9  C   UNL     1      -1.848  -2.195  -3.407  0.00  0.00    +0.076 A 
ATOM     10  C   UNL     1      -1.832  -1.289  -2.300  0.00  0.00    +0.263 A 
ATOM     11  O   UNL     1      -2.274  -0.159  -2.420  0.00  0.00    -0.267 OA
ATOM     12  N   UNL     1      -1.318  -1.700  -1.126  0.00  0.00    -0.283 N 
ATOM     13  C   UNL     1      -0.824  -2.963  -0.972  0.00  0.00    +0.173 A 
ATOM     14  N   UNL     1      -0.832  -3.819  -1.974  0.00  0.00    -0.216 NA
ATOM     15  C   UNL     1      -2.692  -3.001  -7.068  0.00  0.00    +0.046 C 
ENDROOT
BRANCH  13  16
ATOM     16  S   UNL     1      -0.167  -3.455   0.587  0.00  0.00    -0.078 S 
BRANCH  16  17
ATOM     17  C   UNL     1       0.314  -5.157   0.201  0.00  0.00    +0.174 C 
BRANCH  17  18
ATOM     18  C   UNL     1       0.919  -5.797   1.424  0.00  0.00    +0.239 C 
ATOM     19  O   UNL     1       1.015  -5.165   2.455  0.00  0.00    -0.273 OA
ATOM     20  N   UNL     1       1.353  -7.072   1.373  0.00  0.00    -0.233 N 
ATOM     21  H   UNL     1       1.276  -7.578   0.548  0.00  0.00    +0.173 HD
BRANCH  20  22
ATOM     22  N   UNL     1       1.916  -7.667   2.510  0.00  0.00    -0.230 N 
ATOM     23  C   UNL     1       2.350  -8.942   2.458  0.00  0.00    +0.260 C 
ATOM     24  O   UNL     1       2.253  -9.576   1.425  0.00  0.00    -0.269 OA
ATOM     25  H   UNL     1       1.992  -7.162   3.334  0.00  0.00    +0.173 HD
BRANCH  23  26
ATOM     26  C   UNL     1       2.943  -9.570   3.657  0.00  0.00    +0.038 A 
ATOM     27  C   UNL     1       3.060  -8.842   4.843  0.00  0.00    +0.016 A 
ATOM     28  C   UNL     1       3.608  -9.435   5.960  0.00  0.00    +0.039 A 
ATOM     29  C   UNL     1       4.054 -10.746   5.904  0.00  0.00    +0.123 A 
ATOM     30  C   UNL     1       3.946 -11.471   4.727  0.00  0.00    +0.039 A 
ATOM     31  C   UNL     1       3.393 -10.890   3.606  0.00  0.00    +0.016 A 
ATOM     32  F   UNL     1       4.596 -11.320   7.001  0.00  0.00    -0.205 F 
ENDBRANCH  23  26
ENDBRANCH  20  22
ENDBRANCH  17  18
ENDBRANCH  16  17
ENDBRANCH  13  16
BRANCH  12  33
ATOM     33  C   UNL     1      -1.293  -0.775   0.010  0.00  0.00    +0.154 C 
BRANCH  33  34
ATOM     34  C   UNL     1       0.002  -0.004   0.002  0.00  0.00    -0.013 C 
ATOM     35  C   UNL     1      -0.016   1.306   0.009  0.00  0.00    +0.005 C 
ENDBRANCH  33  34
ENDBRANCH  12  33
TORSDOF 7
