REMARK  Name = ZINC03405199
REMARK  9 active torsions:
REMARK  status: ('A' for Active; 'I' for Inactive)
REMARK    1  A    between atoms: C_1  and  C_2
REMARK    2  A    between atoms: C_4  and  C_33
REMARK    3  A    between atoms: C_5  and  C_32
REMARK    4  A    between atoms: C_6  and  S_9
REMARK    5  A    between atoms: C_7  and  C_8
REMARK    6  A    between atoms: S_9  and  N_12
REMARK    7  A    between atoms: C_17  and  C_18
REMARK    8  A    between atoms: C_17  and  N_68
REMARK    9  A    between atoms: N_20  and  C_21
REMARK                            x       y       z     vdW  Elec       q    Type
REMARK                         _______ _______ _______ _____ _____    ______ ____
ROOT
ATOM      1  N   UNL     1      -0.049   2.557   1.010  0.00  0.00    -0.180 NA
ATOM      2  C   UNL     1       0.411   1.671  -0.070  0.00  0.00    +0.091 C 
ATOM      3  C   UNL     1      -0.122   2.206  -1.404  0.00  0.00    -0.061 C 
ATOM      4  C   UNL     1      -0.349   4.447  -0.505  0.00  0.00    -0.061 C 
ATOM      5  C   UNL     1       0.174   4.004   0.866  0.00  0.00    +0.091 C 
ATOM      6  N   UNL     1       0.292   3.618  -1.549  0.00  0.00    +0.387 N 
ATOM      7  H   UNL     1       1.312   3.679  -1.442  0.00  0.00    -0.081 HD
ENDROOT
BRANCH   1   8
ATOM      8  S   UNL     1      -0.804   1.942   2.350  0.00  0.00    +0.061 S 
ATOM      9  O   UNL     1      -1.591   2.994   2.891  0.00  0.00    -0.153 OA
ATOM     10  O   UNL     1      -1.362   0.693   1.964  0.00  0.00    -0.153 OA
BRANCH   8  16
ATOM     11  C   UNL     1       1.894   3.129   6.666  0.00  0.00    +0.044 C 
ATOM     12  C   UNL     1       1.653   2.181   5.520  0.00  0.00    -0.045 A 
ATOM     13  C   UNL     1       2.416   1.034   5.400  0.00  0.00    +0.007 A 
ATOM     14  C   UNL     1       2.195   0.164   4.349  0.00  0.00    -0.045 A 
ATOM     15  C   UNL     1       1.212   0.442   3.417  0.00  0.00    -0.021 A 
ATOM     16  C   UNL     1       0.449   1.588   3.537  0.00  0.00    +0.112 A 
ATOM     17  C   UNL     1       0.673   2.461   4.586  0.00  0.00    -0.021 A 
ATOM     18  C   UNL     1      -0.154   3.714   4.713  0.00  0.00    +0.046 C 
ATOM     19  C   UNL     1       0.971  -0.506   2.271  0.00  0.00    +0.046 C 
ATOM     20  C   UNL     1       3.025  -1.086   4.218  0.00  0.00    +0.044 C 
ENDBRANCH   8  16
ENDBRANCH   1   8
BRANCH   6  21
ATOM     21  C   UNL     1      -0.080   4.118  -2.888  0.00  0.00    +0.019 C 
BRANCH  21  22
ATOM     22  C   UNL     1      -1.575   4.083  -3.071  0.00  0.00    +0.197 C 
ATOM     23  O   UNL     1      -2.285   3.665  -2.181  0.00  0.00    -0.278 OA
ATOM     24  N   UNL     1      -2.124   4.516  -4.224  0.00  0.00    -0.310 N 
ATOM     25  H   UNL     1      -1.556   4.850  -4.935  0.00  0.00    +0.149 HD
BRANCH  24  26
ATOM     26  C   UNL     1      -3.578   4.482  -4.401  0.00  0.00    +0.103 C 
ATOM     27  C   UNL     1      -3.901   4.410  -5.892  0.00  0.00    +0.027 C 
ATOM     28  C   UNL     1      -5.414   4.593  -6.068  0.00  0.00    +0.007 C 
ATOM     29  C   UNL     1      -5.766   6.041  -5.733  0.00  0.00    +0.035 C 
ATOM     30  C   UNL     1      -5.190   6.431  -4.396  0.00  0.00    -0.042 A 
ATOM     31  C   UNL     1      -4.182   5.717  -3.787  0.00  0.00    -0.024 A 
ATOM     32  C   UNL     1      -3.691   6.135  -2.557  0.00  0.00    +0.006 A 
ATOM     33  C   UNL     1      -4.206   7.256  -1.940  0.00  0.00    +0.000 A 
ATOM     34  C   UNL     1      -5.220   7.971  -2.550  0.00  0.00    +0.000 A 
ATOM     35  C   UNL     1      -5.708   7.558  -3.773  0.00  0.00    +0.004 A 
ENDBRANCH  24  26
ENDBRANCH  21  22
ENDBRANCH   6  21
TORSDOF 5
