REMARK  Name = ZINC03238559
REMARK  5 active torsions:
REMARK  status: ('A' for Active; 'I' for Inactive)
REMARK    1  A    between atoms: C_4  and  N_7
REMARK    2  A    between atoms: C_9  and  C_23
REMARK    3  A    between atoms: C_10  and  C_12
REMARK    4  A    between atoms: N_24  and  N_25
REMARK    5  A    between atoms: C_26  and  C_28
REMARK                            x       y       z     vdW  Elec       q    Type
REMARK                         _______ _______ _______ _____ _____    ______ ____
ROOT
ATOM      1  N   UNL     1      -3.417  13.881   0.112  0.00  0.00    -0.239 N 
ATOM      2  C   UNL     1      -4.018  12.685   0.280  0.00  0.00    +0.124 A 
ATOM      3  C   UNL     1      -3.168  11.716  -0.176  0.00  0.00    +0.041 A 
ATOM      4  C   UNL     1      -1.968  12.404  -0.661  0.00  0.00    +0.109 A 
ATOM      5  N   UNL     1      -2.160  13.693  -0.470  0.00  0.00    -0.165 NA
ENDROOT
BRANCH   4   6
ATOM      6  C   UNL     1      -0.770  11.771  -1.254  0.00  0.00    +0.088 A 
ATOM      7  C   UNL     1      -0.118  10.762  -0.595  0.00  0.00    +0.028 A 
ATOM      8  C   UNL     1       1.062  10.171  -1.227  0.00  0.00    +0.018 A 
ATOM      9  C   UNL     1       1.765   9.137  -0.595  0.00  0.00    +0.011 A 
ATOM     10  C   UNL     1       2.865   8.595  -1.198  0.00  0.00    +0.001 A 
ATOM     11  C   UNL     1       3.291   9.062  -2.433  0.00  0.00    +0.004 A 
ATOM     12  C   UNL     1       2.613  10.079  -3.072  0.00  0.00    +0.047 A 
ATOM     13  C   UNL     1       1.491  10.646  -2.478  0.00  0.00    +0.139 A 
ATOM     14  O   UNL     1       0.825  11.642  -3.100  0.00  0.00    -0.422 OA
ATOM     15  C   UNL     1      -0.265  12.208  -2.559  0.00  0.00    +0.347 A 
ATOM     16  O   UNL     1      -0.838  13.100  -3.157  0.00  0.00    -0.244 OA
ENDBRANCH   4   6
BRANCH   1  20
ATOM     17  C   UNL     1      -5.060  17.567   1.150  0.00  0.00    +0.000 A 
ATOM     18  C   UNL     1      -3.802  17.509   0.578  0.00  0.00    +0.002 A 
ATOM     19  C   UNL     1      -3.255  16.289   0.234  0.00  0.00    +0.028 A 
ATOM     20  C   UNL     1      -3.969  15.120   0.461  0.00  0.00    +0.065 A 
ATOM     21  C   UNL     1      -5.234  15.182   1.030  0.00  0.00    +0.028 A 
ATOM     22  C   UNL     1      -5.774  16.405   1.377  0.00  0.00    +0.002 A 
ENDBRANCH   1  20
BRANCH   3  23
ATOM     23  C   UNL     1      -3.413  10.262  -0.183  0.00  0.00    +0.142 C 
ATOM     24  N   UNL     1      -2.559   9.463  -0.746  0.00  0.00    -0.188 NA
BRANCH  24  25
ATOM     25  N   UNL     1      -2.843   8.095  -0.849  0.00  0.00    -0.204 N 
ATOM     26  C   UNL     1      -1.956   7.265  -1.433  0.00  0.00    +0.276 C 
ATOM     27  O   UNL     1      -0.911   7.703  -1.869  0.00  0.00    -0.270 OA
ATOM     28  H   UNL     1      -3.790   7.698  -0.454  0.00  0.00    +0.177 HD
BRANCH  26  29
ATOM     29  C   UNL     1      -2.261   5.794  -1.544  0.00  0.00    +0.297 C 
ATOM     30  C   UNL     1      -3.472   5.585  -2.464  0.00  0.00    +0.283 C 
ATOM     31  O   UNL     1      -3.725   4.179  -2.558  0.00  0.00    -0.484 OA
ATOM     32  C   UNL     1      -2.648   3.377  -2.782  0.00  0.00    +0.162 A 
ATOM     33  C   UNL     1      -2.846   2.084  -3.243  0.00  0.00    +0.049 A 
ATOM     34  C   UNL     1      -1.763   1.255  -3.466  0.00  0.00    +0.004 A 
ATOM     35  C   UNL     1      -0.479   1.716  -3.240  0.00  0.00    +0.004 A 
ATOM     36  C   UNL     1      -0.275   3.005  -2.786  0.00  0.00    +0.049 A 
ATOM     37  C   UNL     1      -1.358   3.841  -2.556  0.00  0.00    +0.163 A 
ATOM     38  O   UNL     1      -1.141   5.110  -2.116  0.00  0.00    -0.472 OA
ENDBRANCH  26  29
ENDBRANCH  24  25
ENDBRANCH   3  23
TORSDOF 5
