REMARK  Name = ZINC46132931
REMARK  9 active torsions:
REMARK  status: ('A' for Active; 'I' for Inactive)
REMARK    1  A    between atoms: C_1  and  C_2
REMARK    2  A    between atoms: C_5  and  C_12
REMARK    3  A    between atoms: C_7  and  N_8
REMARK    4  A    between atoms: C_9  and  C_11
REMARK    5  A    between atoms: C_12  and  N_14
REMARK    6  A    between atoms: N_16  and  C_17
REMARK    7  A    between atoms: C_22  and  C_23
REMARK    8  A    between atoms: N_25  and  C_26
REMARK    9  A    between atoms: C_26  and  C_27
REMARK                            x       y       z     vdW  Elec       q    Type
REMARK                         _______ _______ _______ _____ _____    ______ ____
ROOT
ATOM      1  N   UNL     1      -1.113  -5.631  -2.089  0.00  0.00    -0.143 NA
ATOM      2  C   UNL     1      -0.573  -6.792  -1.749  0.00  0.00    +0.194 C 
ATOM      3  N   UNL     1       0.179  -7.485  -2.653  0.00  0.00    -0.328 N 
ATOM      4  N   UNL     1      -0.769  -7.294  -0.496  0.00  0.00    -0.355 N 
ATOM      5  H   UNL     1       0.562  -8.342  -2.409  0.00  0.00    +0.169 HD
ATOM      6  H   UNL     1      -1.218  -6.758   0.177  0.00  0.00    +0.162 HD
ENDROOT
BRANCH   3   7
ATOM      7  C   UNL     1       0.397  -6.960  -3.931  0.00  0.00    +0.045 A 
ATOM      8  C   UNL     1       0.474  -5.585  -4.114  0.00  0.00    +0.027 A 
ATOM      9  C   UNL     1       0.690  -5.070  -5.377  0.00  0.00    +0.022 A 
ATOM     10  C   UNL     1       0.828  -5.921  -6.460  0.00  0.00    +0.041 A 
ATOM     11  C   UNL     1       0.751  -7.291  -6.280  0.00  0.00    +0.025 A 
ATOM     12  C   UNL     1       0.541  -7.812  -5.018  0.00  0.00    -0.026 A 
ATOM     13  C   UNL     1       0.464  -9.304  -4.822  0.00  0.00    +0.046 C 
ATOM     14 CL   UNL     1       1.099  -5.269  -8.046  0.00  0.00    -0.084 Cl
ENDBRANCH   3   7
BRANCH   1  15
ATOM     15  C   UNL     1      -1.973  -5.024  -1.260  0.00  0.00    +0.270 C 
ATOM     16  O   UNL     1      -2.196  -5.497  -0.160  0.00  0.00    -0.268 OA
BRANCH  15  21
ATOM     17  C   UNL     1      -4.611  -0.175  -2.912  0.00  0.00    +0.045 C 
ATOM     18  C   UNL     1      -3.922  -1.444  -2.478  0.00  0.00    -0.029 A 
ATOM     19  C   UNL     1      -3.034  -2.072  -3.331  0.00  0.00    +0.006 A 
ATOM     20  C   UNL     1      -2.399  -3.233  -2.941  0.00  0.00    +0.013 A 
ATOM     21  C   UNL     1      -2.653  -3.777  -1.681  0.00  0.00    +0.041 A 
ATOM     22  C   UNL     1      -3.548  -3.144  -0.821  0.00  0.00    +0.036 A 
ATOM     23  C   UNL     1      -4.177  -1.975  -1.220  0.00  0.00    +0.037 A 
BRANCH  23  24
ATOM     24  N   UNL     1      -5.072  -1.332  -0.357  0.00  0.00    -0.285 N 
ATOM     25  C   UNL     1      -5.815  -2.056   0.504  0.00  0.00    +0.214 C 
ATOM     26  O   UNL     1      -5.631  -3.250   0.609  0.00  0.00    -0.276 OA
ATOM     27  C   UNL     1      -6.875  -1.381   1.335  0.00  0.00    +0.109 C 
ATOM     28  H   UNL     1      -5.159  -0.366  -0.379  0.00  0.00    +0.155 HD
ENDBRANCH  23  24
ENDBRANCH  15  21
ENDBRANCH   1  15
BRANCH   4  29
ATOM     29  C   UNL     1      -0.301  -8.643  -0.166  0.00  0.00    +0.147 C 
BRANCH  29  30
ATOM     30  C   UNL     1      -0.739  -9.001   1.255  0.00  0.00    +0.137 C 
ATOM     31  C   UNL     1      -0.210 -10.405   1.643  0.00  0.00    +0.035 C 
ATOM     32  C   UNL     1      -0.177 -10.290   3.192  0.00  0.00    +0.031 C 
ATOM     33  C   UNL     1       0.195  -8.806   3.402  0.00  0.00    +0.160 C 
ATOM     34  O   UNL     1      -0.146  -8.099   2.203  0.00  0.00    -0.375 OA
ENDBRANCH  29  30
ENDBRANCH   4  29
TORSDOF 6
