REMARK  Name = ZINC39795387
REMARK  4 active torsions:
REMARK  status: ('A' for Active; 'I' for Inactive)
REMARK    1  A    between atoms: C_7  and  C_10
REMARK    2  A    between atoms: C_16  and  C_18
REMARK    3  A    between atoms: C_18  and  O_19
REMARK    4  A    between atoms: O_19  and  C_20
REMARK                            x       y       z     vdW  Elec       q    Type
REMARK                         _______ _______ _______ _____ _____    ______ ____
ROOT
ATOM      1  C   UNL     1       0.673  -3.130  -0.021  0.00  0.00    -0.043 C 
ATOM      2  C   UNL     1      -0.624  -2.873   0.090  0.00  0.00    -0.004 C 
ATOM      3  C   UNL     1      -1.677  -3.945   0.123  0.00  0.00    +0.135 C 
ATOM      4  N   UNL     1      -1.068  -5.230  -0.249  0.00  0.00    -0.295 N 
ATOM      5  C   UNL     1       0.242  -5.555   0.340  0.00  0.00    +0.113 C 
ATOM      6  C   UNL     1       1.250  -4.509  -0.149  0.00  0.00    +0.054 C 
ATOM      7  C   UNL     1      -1.685  -6.078  -1.096  0.00  0.00    +0.253 C 
ATOM      8  O   UNL     1      -1.161  -7.133  -1.387  0.00  0.00    -0.272 OA
ENDROOT
BRANCH   1  15
ATOM      9  C   UNL     1       5.151  -2.873  -0.693  0.00  0.00    +0.001 A 
ATOM     10  C   UNL     1       5.657  -1.572  -0.610  0.00  0.00    +0.002 A 
ATOM     11  C   UNL     1       4.859  -0.508  -0.351  0.00  0.00    +0.026 A 
ATOM     12  C   UNL     1       3.465  -0.702  -0.156  0.00  0.00    +0.043 A 
ATOM     13  N   UNL     1       2.496   0.148   0.103  0.00  0.00    -0.380 N 
ATOM     14  C   UNL     1       1.229  -0.583   0.211  0.00  0.00    +0.149 C 
ATOM     15  C   UNL     1       1.565  -2.039  -0.024  0.00  0.00    -0.016 C 
ATOM     16  C   UNL     1       2.936  -2.076  -0.245  0.00  0.00    +0.003 A 
ATOM     17  C   UNL     1       3.832  -3.135  -0.518  0.00  0.00    +0.010 A 
ATOM     18  H   UNL     1       2.602   1.107   0.207  0.00  0.00    +0.160 HD
ENDBRANCH   1  15
BRANCH   7  19
ATOM     19  C   UNL     1      -3.025  -5.716  -1.681  0.00  0.00    +0.324 C 
BRANCH  19  20
ATOM     20  O   UNL     1      -3.469  -6.768  -2.542  0.00  0.00    -0.481 OA
BRANCH  20  21
ATOM     21  C   UNL     1      -4.670  -6.598  -3.155  0.00  0.00    +0.139 A 
ATOM     22  C   UNL     1      -5.404  -5.441  -2.937  0.00  0.00    +0.048 A 
ATOM     23  C   UNL     1      -6.624  -5.270  -3.562  0.00  0.00    +0.019 A 
ATOM     24  C   UNL     1      -7.115  -6.252  -4.404  0.00  0.00    +0.019 A 
ATOM     25  C   UNL     1      -6.386  -7.407  -4.623  0.00  0.00    +0.039 A 
ATOM     26  C   UNL     1      -5.161  -7.580  -4.005  0.00  0.00    +0.084 A 
ATOM     27 CL   UNL     1      -4.243  -9.026  -4.285  0.00  0.00    -0.080 Cl
ATOM     28 BR   UNL     1      -8.786  -6.015  -5.257  0.00  0.00    -0.050 Br
ENDBRANCH  20  21
ENDBRANCH  19  20
ENDBRANCH   7  19
TORSDOF 4
