REMARK  Name = ZINC39421120
REMARK  7 active torsions:
REMARK  status: ('A' for Active; 'I' for Inactive)
REMARK    1  A    between atoms: C_7  and  C_10
REMARK    2  A    between atoms: C_10  and  C_11
REMARK    3  A    between atoms: C_11  and  N_12
REMARK    4  A    between atoms: N_12  and  C_13
REMARK    5  A    between atoms: C_13  and  C_14
REMARK    6  A    between atoms: C_16  and  C_21
REMARK    7  A    between atoms: C_19  and  O_20
REMARK                            x       y       z     vdW  Elec       q    Type
REMARK                         _______ _______ _______ _____ _____    ______ ____
ROOT
ATOM      1  C   UNL     1      -5.580   6.966  -2.726  0.00  0.00    -0.023 A 
ATOM      2  C   UNL     1      -4.731   8.034  -2.941  0.00  0.00    +0.011 A 
ATOM      3  C   UNL     1      -5.226   9.325  -2.929  0.00  0.00    -0.017 A 
ATOM      4  C   UNL     1      -6.572   9.550  -2.702  0.00  0.00    +0.010 A 
ATOM      5  C   UNL     1      -7.425   8.485  -2.487  0.00  0.00    +0.046 A 
ATOM      6  C   UNL     1      -6.931   7.188  -2.503  0.00  0.00    +0.118 A 
ENDROOT
BRANCH   3   7
ATOM      7  C   UNL     1      -4.298  10.489  -3.163  0.00  0.00    +0.164 C 
ATOM      8  N   UNL     1      -5.021  11.637  -3.727  0.00  0.00    -0.327 N 
ATOM      9  C   UNL     1      -5.051  12.812  -2.977  0.00  0.00    +0.042 A 
ATOM     10  C   UNL     1      -5.690  14.007  -3.353  0.00  0.00    +0.024 A 
ATOM     11  C   UNL     1      -5.661  15.116  -2.540  0.00  0.00    +0.002 A 
ATOM     12  C   UNL     1      -5.001  15.094  -1.325  0.00  0.00    +0.001 A 
ATOM     13  C   UNL     1      -4.363  13.930  -0.929  0.00  0.00    +0.016 A 
ATOM     14  C   UNL     1      -4.393  12.821  -1.743  0.00  0.00    +0.031 A 
ATOM     15  S   UNL     1      -3.702  11.190  -1.573  0.00  0.00    -0.096 S 
ATOM     16  H   UNL     1      -5.462  11.579  -4.589  0.00  0.00    +0.147 HD
ENDBRANCH   3   7
BRANCH   6  17
ATOM     17  O   UNL     1      -7.769   6.138  -2.297  0.00  0.00    -0.507 OA
ATOM     18  H   UNL     1      -7.860   5.884  -1.369  0.00  0.00    +0.292 HD
ENDBRANCH   6  17
BRANCH   1  19
ATOM     19  C   UNL     1      -5.039   5.559  -2.738  0.00  0.00    -0.043 C 
BRANCH  19  20
ATOM     20  N   UNL     1      -4.964   5.051  -1.362  0.00  0.00    +0.382 N 
ATOM     21  H   UNL     1      -5.886   5.054  -0.951  0.00  0.00    -0.085 HD
ATOM     22  H   UNL     1      -4.352   5.642  -0.818  0.00  0.00    -0.085 HD
BRANCH  20  23
ATOM     23  C   UNL     1      -4.437   3.680  -1.374  0.00  0.00    -0.077 C 
BRANCH  23  24
ATOM     24  C   UNL     1      -4.358   3.151   0.060  0.00  0.00    +0.018 C 
BRANCH  24  31
ATOM     25  C   UNL     1      -0.017   1.384   0.010  0.00  0.00    +0.001 A 
ATOM     26  C   UNL     1       0.002  -0.004   0.002  0.00  0.00    +0.002 A 
ATOM     27  C   UNL     1      -1.173  -0.723   0.009  0.00  0.00    +0.026 A 
ATOM     28  C   UNL     1      -2.392  -0.053   0.024  0.00  0.00    +0.047 A 
ATOM     29  N   UNL     1      -3.704  -0.472   0.034  0.00  0.00    -0.360 N 
ATOM     30  C   UNL     1      -4.539   0.612   0.047  0.00  0.00    +0.087 A 
ATOM     31  C   UNL     1      -3.818   1.744   0.047  0.00  0.00    -0.024 A 
ATOM     32  C   UNL     1      -2.406   1.353   0.032  0.00  0.00    +0.003 A 
ATOM     33  C   UNL     1      -1.203   2.062   0.030  0.00  0.00    +0.010 A 
ATOM     34  H   UNL     1      -3.993  -1.398   0.030  0.00  0.00    +0.165 HD
ENDBRANCH  24  31
ENDBRANCH  23  24
ENDBRANCH  20  23
ENDBRANCH  19  20
ENDBRANCH   1  19
TORSDOF 7
