REMARK  Name = ZINC16522919
REMARK  7 active torsions:
REMARK  status: ('A' for Active; 'I' for Inactive)
REMARK    1  A    between atoms: C_1  and  C_2
REMARK    2  A    between atoms: C_2  and  C_4
REMARK    3  A    between atoms: C_2  and  N_16
REMARK    4  A    between atoms: N_6  and  C_7
REMARK    5  A    between atoms: C_10  and  N_13
REMARK    6  A    between atoms: N_19  and  S_22
REMARK    7  A    between atoms: S_22  and  C_25
REMARK                            x       y       z     vdW  Elec       q    Type
REMARK                         _______ _______ _______ _____ _____    ______ ____
ROOT
ATOM      1  N   UNL     1       0.911  -0.189  -1.186  0.00  0.00    -0.289 NA
ATOM      2  C   UNL     1       2.219   0.478  -1.128  0.00  0.00    +0.102 C 
ATOM      3  C   UNL     1       3.090  -0.011  -2.290  0.00  0.00    +0.125 C 
ATOM      4  N   UNL     1       2.347   0.185  -3.545  0.00  0.00    -0.174 NA
ATOM      5  C   UNL     1       0.975  -0.337  -3.630  0.00  0.00    +0.125 C 
ATOM      6  C   UNL     1       0.187   0.165  -2.415  0.00  0.00    +0.102 C 
ENDROOT
BRANCH   4   7
ATOM      7  S   UNL     1       3.038   0.972  -4.827  0.00  0.00    +0.061 S 
ATOM      8  O   UNL     1       1.971   1.484  -5.613  0.00  0.00    -0.153 OA
ATOM      9  O   UNL     1       4.057   1.805  -4.292  0.00  0.00    -0.153 OA
BRANCH   7  10
ATOM     10  C   UNL     1       3.849  -0.245  -5.810  0.00  0.00    +0.107 A 
ATOM     11  C   UNL     1       5.168  -0.572  -5.557  0.00  0.00    +0.030 A 
ATOM     12  C   UNL     1       5.805  -1.526  -6.327  0.00  0.00    +0.023 A 
ATOM     13  C   UNL     1       5.122  -2.156  -7.353  0.00  0.00    +0.059 A 
ATOM     14  C   UNL     1       3.801  -1.829  -7.606  0.00  0.00    +0.061 A 
ATOM     15  C   UNL     1       3.163  -0.877  -6.831  0.00  0.00    +0.050 A 
ATOM     16 CL   UNL     1       2.942  -2.617  -8.893  0.00  0.00    -0.082 Cl
ATOM     17 CL   UNL     1       5.921  -3.354  -8.321  0.00  0.00    -0.082 Cl
ENDBRANCH   7  10
ENDBRANCH   4   7
BRANCH   1  19
ATOM     18  C   UNL     1      -0.100   1.633   0.101  0.00  0.00    +0.034 C 
ATOM     19  C   UNL     1       0.109   0.120   0.005  0.00  0.00    +0.140 C 
BRANCH  19  20
ATOM     20  C   UNL     1       0.829  -0.367   1.236  0.00  0.00    +0.234 C 
ATOM     21  O   UNL     1       1.905  -0.917   1.131  0.00  0.00    -0.274 OA
ATOM     22  N   UNL     1       0.278  -0.191   2.453  0.00  0.00    -0.284 N 
ATOM     23  H   UNL     1      -0.544   0.316   2.545  0.00  0.00    +0.155 HD
BRANCH  22  24
ATOM     24  C   UNL     1       0.891  -0.739   3.585  0.00  0.00    +0.034 A 
ATOM     25  C   UNL     1       0.813  -0.082   4.806  0.00  0.00    +0.025 A 
ATOM     26  C   UNL     1       1.419  -0.625   5.921  0.00  0.00    +0.034 A 
ATOM     27  C   UNL     1       2.104  -1.823   5.823  0.00  0.00    +0.126 A 
ATOM     28  C   UNL     1       2.185  -2.479   4.609  0.00  0.00    +0.034 A 
ATOM     29  C   UNL     1       1.575  -1.944   3.491  0.00  0.00    +0.025 A 
BRANCH  27  30
ATOM     30  N   UNL     1       2.753  -2.403   7.020  0.00  0.00    +0.056 N 
ATOM     31  O   UNL     1       2.684  -1.830   8.083  0.00  0.00    -0.126 OA
ATOM     32  O   UNL     1       3.353  -3.449   6.936  0.00  0.00    -0.126 OA
ENDBRANCH  27  30
ENDBRANCH  22  24
ENDBRANCH  19  20
ENDBRANCH   1  19
TORSDOF 6
