REMARK  Name = ZINC59849587
REMARK  6 active torsions:
REMARK  status: ('A' for Active; 'I' for Inactive)
REMARK    1  A    between atoms: C_1  and  N_2
REMARK    2  A    between atoms: N_2  and  C_3
REMARK    3  A    between atoms: C_3  and  C_4
REMARK    4  A    between atoms: N_14  and  C_15
REMARK    5  A    between atoms: C_15  and  C_17
REMARK    6  A    between atoms: C_15  and  C_27
REMARK                            x       y       z     vdW  Elec       q    Type
REMARK                         _______ _______ _______ _____ _____    ______ ____
ROOT
ATOM      1  C   UNL     1      -0.020   1.467   0.034  0.00  0.00    +0.134 C 
ATOM      2  N   UNL     1      -0.020   0.002  -0.001  0.00  0.00    -0.284 N 
ATOM      3  C   UNL     1      -0.066  -0.644  -1.182  0.00  0.00    +0.303 C 
ATOM      4  O   UNL     1      -0.162  -1.856  -1.209  0.00  0.00    -0.253 OA
ATOM      5  N   UNL     1      -0.006   0.053  -2.334  0.00  0.00    -0.292 N 
ATOM      6  H   UNL     1       0.070   1.019  -2.313  0.00  0.00    +0.151 HD
ENDROOT
BRANCH   2   7
ATOM      7  C   UNL     1       0.028  -0.760   1.250  0.00  0.00    +0.145 C 
BRANCH   7   8
ATOM      8  C   UNL     1      -1.367  -0.917   1.797  0.00  0.00    -0.010 A 
ATOM      9  C   UNL     1      -2.450  -0.464   1.068  0.00  0.00    +0.007 A 
ATOM     10  C   UNL     1      -3.731  -0.607   1.570  0.00  0.00    +0.002 A 
ATOM     11  C   UNL     1      -3.929  -1.203   2.801  0.00  0.00    +0.021 A 
ATOM     12  C   UNL     1      -2.845  -1.657   3.532  0.00  0.00    +0.060 A 
ATOM     13  C   UNL     1      -1.563  -1.519   3.027  0.00  0.00    +0.064 A 
ATOM     14 CL   UNL     1      -0.204  -2.095   3.939  0.00  0.00    -0.082 Cl
ATOM     15 CL   UNL     1      -3.094  -2.405   5.079  0.00  0.00    -0.082 Cl
ENDBRANCH   7   8
ENDBRANCH   2   7
BRANCH   5  16
ATOM     16  C   UNL     1      -0.055  -0.650  -3.619  0.00  0.00    +0.108 C 
BRANCH  16  17
ATOM     17  C   UNL     1      -0.579   0.282  -4.681  0.00  0.00    -0.023 A 
ATOM     18  C   UNL     1      -0.176   1.604  -4.699  0.00  0.00    +0.009 A 
ATOM     19  C   UNL     1      -0.655   2.462  -5.671  0.00  0.00    +0.050 A 
ATOM     20  C   UNL     1      -1.542   1.998  -6.631  0.00  0.00    +0.162 A 
ATOM     21  C   UNL     1      -1.946   0.669  -6.614  0.00  0.00    +0.162 A 
ATOM     22  C   UNL     1      -1.458  -0.188  -5.639  0.00  0.00    +0.055 A 
ATOM     23  O   UNL     1      -2.810   0.191  -7.552  0.00  0.00    -0.485 OA
ATOM     24  C   UNL     1      -3.560   1.162  -8.289  0.00  0.00    +0.270 C 
ATOM     25  C   UNL     1      -2.599   2.268  -8.744  0.00  0.00    +0.270 C 
ATOM     26  O   UNL     1      -2.009   2.856  -7.579  0.00  0.00    -0.485 OA
ENDBRANCH  16  17
BRANCH  16  27
ATOM     27  C   UNL     1       1.351  -1.117  -3.999  0.00  0.00    +0.014 C 
ATOM     28  C   UNL     1       1.527  -2.588  -4.381  0.00  0.00    +0.006 C 
ATOM     29  C   UNL     1       2.060  -2.077  -3.041  0.00  0.00    +0.006 C 
ENDBRANCH  16  27
ENDBRANCH   5  16
TORSDOF 5
