REMARK  Name = ZINC35553241
REMARK  9 active torsions:
REMARK  status: ('A' for Active; 'I' for Inactive)
REMARK    1  A    between atoms: C_1  and  C_2
REMARK    2  A    between atoms: C_2  and  C_3
REMARK    3  A    between atoms: C_3  and  C_5
REMARK    4  A    between atoms: C_3  and  C_6
REMARK    5  A    between atoms: N_23  and  C_26
REMARK    6  A    between atoms: C_26  and  C_27
REMARK    7  A    between atoms: C_27  and  N_28
REMARK    8  A    between atoms: N_28  and  C_29
REMARK    9  A    between atoms: N_28  and  C_30
REMARK                            x       y       z     vdW  Elec       q    Type
REMARK                         _______ _______ _______ _____ _____    ______ ____
ROOT
ATOM      1  C   UNL     1      -1.218  -2.044   0.237  0.00  0.00    +0.135 A 
ATOM      2  N   UNL     1      -1.818  -2.620   1.264  0.00  0.00    -0.216 NA
ATOM      3  C   UNL     1      -2.024  -3.926   1.317  0.00  0.00    +0.133 A 
ATOM      4  C   UNL     1      -1.588  -4.740   0.235  0.00  0.00    +0.051 A 
ATOM      5  C   UNL     1      -1.709  -6.194   0.079  0.00  0.00    -0.025 A 
ATOM      6  C   UNL     1      -1.204  -6.726  -1.051  0.00  0.00    -0.004 A 
ATOM      7  S   UNL     1      -0.557  -5.349  -1.966  0.00  0.00    -0.073 S 
ATOM      8  C   UNL     1      -0.959  -4.055  -0.822  0.00  0.00    +0.114 A 
ATOM      9  N   UNL     1      -0.797  -2.746  -0.797  0.00  0.00    -0.224 NA
ATOM     10  C   UNL     1      -1.175  -8.167  -1.456  0.00  0.00    +0.043 C 
ATOM     11  C   UNL     1      -2.573  -8.772  -1.274  0.00  0.00    +0.005 C 
ATOM     12  C   UNL     1      -2.676  -9.327   0.144  0.00  0.00    +0.001 C 
ATOM     13  C   UNL     1      -1.848  -8.471   1.101  0.00  0.00    +0.005 C 
ATOM     14  C   UNL     1      -2.388  -7.047   1.148  0.00  0.00    +0.037 C 
ATOM     15  N   UNL     1      -2.655  -4.492   2.411  0.00  0.00    -0.312 N 
ATOM     16  C   UNL     1      -1.900  -4.831   3.626  0.00  0.00    +0.122 C 
ATOM     17  C   UNL     1      -2.620  -4.219   4.833  0.00  0.00    +0.103 C 
ATOM     18  N   UNL     1      -4.024  -4.652   4.833  0.00  0.00    -0.301 NA
ATOM     19  C   UNL     1      -4.733  -4.161   3.643  0.00  0.00    +0.103 C 
ATOM     20  C   UNL     1      -4.100  -4.765   2.390  0.00  0.00    +0.122 C 
ENDROOT
BRANCH   1  21
ATOM     21  C   UNL     1      -1.017  -0.551   0.244  0.00  0.00    +0.054 C 
ATOM     22  C   UNL     1      -1.740   0.067  -0.955  0.00  0.00    +0.015 C 
BRANCH  21  24
ATOM     23  C   UNL     1       0.691   1.272   0.289  0.00  0.00    +0.004 C 
ATOM     24  C   UNL     1       0.478  -0.237   0.156  0.00  0.00    +0.007 C 
ENDBRANCH  21  24
ENDBRANCH   1  21
BRANCH  18  25
ATOM     25  C   UNL     1      -4.705  -4.229   6.063  0.00  0.00    +0.066 C 
BRANCH  25  26
ATOM     26  C   UNL     1      -6.077  -4.902   6.144  0.00  0.00    -0.064 C 
BRANCH  26  27
ATOM     27  N   UNL     1      -6.758  -4.479   7.375  0.00  0.00    +0.377 N 
ATOM     28  C   UNL     1      -8.120  -5.029   7.394  0.00  0.00    -0.097 C 
ATOM     29  C   UNL     1      -6.014  -4.972   8.541  0.00  0.00    -0.097 C 
ATOM     30  H   UNL     1      -6.803  -3.471   7.405  0.00  0.00    -0.083 HD
ENDBRANCH  26  27
ENDBRANCH  25  26
ENDBRANCH  18  25
TORSDOF 5
