REMARK  Name = ZINC65307840
REMARK  4 active torsions:
REMARK  status: ('A' for Active; 'I' for Inactive)
REMARK    1  A    between atoms: C_1  and  C_2
REMARK    2  A    between atoms: N_6  and  C_20
REMARK    3  A    between atoms: N_12  and  C_13
REMARK    4  A    between atoms: C_20  and  C_21
REMARK                            x       y       z     vdW  Elec       q    Type
REMARK                         _______ _______ _______ _____ _____    ______ ____
ROOT
ATOM      1  C   UNL     1      -0.038   1.424  -0.755  0.00  0.00    +0.066 C 
ATOM      2  C   UNL     1      -0.009  -0.049  -0.440  0.00  0.00    +0.045 A 
ATOM      3  C   UNL     1      -1.173  -0.714  -0.238  0.00  0.00    +0.071 A 
ATOM      4  C   UNL     1      -1.122  -2.102   0.057  0.00  0.00    +0.166 A 
ATOM      5  N   UNL     1      -2.044  -2.999   0.297  0.00  0.00    -0.148 NA
ATOM      6  N   UNL     1      -1.402  -4.224   0.528  0.00  0.00    -0.203 N 
ATOM      7  C   UNL     1      -0.073  -4.017   0.417  0.00  0.00    +0.354 A 
ATOM      8  O   UNL     1       0.798  -4.858   0.553  0.00  0.00    -0.244 OA
ATOM      9  N   UNL     1       0.119  -2.717   0.127  0.00  0.00    -0.214 N 
ATOM     10  C   UNL     1       1.248  -1.967  -0.091  0.00  0.00    +0.210 A 
ATOM     11  N   UNL     1       1.165  -0.687  -0.367  0.00  0.00    -0.220 NA
ATOM     12  N   UNL     1       2.482  -2.566  -0.024  0.00  0.00    -0.285 N 
ATOM     13  H   UNL     1       2.549  -3.526   0.098  0.00  0.00    +0.155 HD
ENDROOT
BRANCH  12  14
ATOM     14  C   UNL     1       3.643  -1.792  -0.131  0.00  0.00    +0.034 A 
ATOM     15  C   UNL     1       3.703  -0.542   0.471  0.00  0.00    +0.026 A 
ATOM     16  C   UNL     1       4.849   0.221   0.364  0.00  0.00    +0.040 A 
ATOM     17  C   UNL     1       5.938  -0.261  -0.343  0.00  0.00    +0.124 A 
ATOM     18  C   UNL     1       5.880  -1.506  -0.945  0.00  0.00    +0.040 A 
ATOM     19  C   UNL     1       4.738  -2.275  -0.835  0.00  0.00    +0.026 A 
ATOM     20  F   UNL     1       7.059   0.487  -0.447  0.00  0.00    -0.205 F 
ENDBRANCH  12  14
BRANCH   6  21
ATOM     21  C   UNL     1      -2.056  -5.499   0.836  0.00  0.00    +0.245 C 
BRANCH  21  22
ATOM     22  C   UNL     1      -2.210  -5.637   2.329  0.00  0.00    +0.241 C 
ATOM     23  O   UNL     1      -1.813  -4.757   3.063  0.00  0.00    -0.273 OA
ATOM     24  N   UNL     1      -2.790  -6.738   2.847  0.00  0.00    -0.269 N 
ATOM     25  C   UNL     1      -3.000  -6.982   4.277  0.00  0.00    +0.118 C 
ATOM     26  C   UNL     1      -3.687  -8.355   4.355  0.00  0.00    +0.056 C 
ATOM     27  C   UNL     1      -3.817  -8.798   2.914  0.00  0.00    -0.024 A 
ATOM     28  C   UNL     1      -3.283  -7.811   2.100  0.00  0.00    +0.040 A 
ATOM     29  C   UNL     1      -3.296  -7.995   0.716  0.00  0.00    +0.024 A 
ATOM     30  C   UNL     1      -3.837  -9.141   0.172  0.00  0.00    +0.002 A 
ATOM     31  C   UNL     1      -4.370 -10.116   0.993  0.00  0.00    +0.000 A 
ATOM     32  C   UNL     1      -4.354  -9.946   2.365  0.00  0.00    +0.005 A 
ENDBRANCH  21  22
ENDBRANCH   6  21
TORSDOF 3
