REMARK  Name = ZINC64002448
REMARK  10 active torsions:
REMARK  status: ('A' for Active; 'I' for Inactive)
REMARK    1  A    between atoms: C_1  and  C_2
REMARK    2  A    between atoms: C_10  and  C_12
REMARK    3  A    between atoms: C_18  and  C_21
REMARK    4  A    between atoms: C_21  and  O_22
REMARK    5  A    between atoms: O_22  and  C_23
REMARK    6  A    between atoms: C_26  and  C_29
REMARK    7  A    between atoms: C_29  and  N_30
REMARK    8  A    between atoms: N_30  and  C_31
REMARK    9  A    between atoms: N_30  and  C_32
REMARK   10  A    between atoms: C_32  and  C_33
REMARK                            x       y       z     vdW  Elec       q    Type
REMARK                         _______ _______ _______ _____ _____    ______ ____
ROOT
ATOM      1  C   UNL     1       1.266  -0.670   2.024  0.00  0.00    +0.242 C 
ATOM      2  O   UNL     1       2.221  -1.410   1.919  0.00  0.00    -0.273 OA
ATOM      3  N   UNL     1       1.315   0.377   2.872  0.00  0.00    -0.299 N 
ATOM      4  C   UNL     1       0.164   1.279   3.014  0.00  0.00    +0.108 C 
ATOM      5  C   UNL     1      -0.210   1.372   4.497  0.00  0.00    +0.019 C 
ATOM      6  C   UNL     1       1.021   1.792   5.303  0.00  0.00    +0.010 C 
ATOM      7  C   UNL     1       2.119   0.737   5.147  0.00  0.00    +0.044 C 
ATOM      8  C   UNL     1       2.517   0.633   3.676  0.00  0.00    +0.114 C 
ENDROOT
BRANCH   1  18
ATOM      9  C   UNL     1      -0.018   1.503   0.010  0.00  0.00    +0.042 C 
ATOM     10  C   UNL     1       0.002  -0.004   0.002  0.00  0.00    -0.033 C 
ATOM     11  C   UNL     1       0.009  -0.811  -1.083  0.00  0.00    +0.001 A 
ATOM     12  C   UNL     1      -0.002  -0.538  -2.525  0.00  0.00    +0.030 A 
ATOM     13  C   UNL     1       0.009  -1.579  -3.390  0.00  0.00    +0.042 A 
ATOM     14  C   UNL     1       0.028  -2.909  -2.944  0.00  0.00    +0.022 A 
ATOM     15  C   UNL     1       0.038  -3.238  -1.635  0.00  0.00    +0.027 A 
ATOM     16  C   UNL     1       0.030  -2.223  -0.638  0.00  0.00    +0.043 A 
ATOM     17  N   UNL     1       0.036  -2.286   0.671  0.00  0.00    -0.370 N 
ATOM     18  C   UNL     1       0.026  -0.920   1.206  0.00  0.00    +0.193 C 
ATOM     19 CL   UNL     1      -0.004  -1.260  -5.097  0.00  0.00    -0.084 Cl
ATOM     20  H   UNL     1       0.049  -3.100   1.199  0.00  0.00    +0.161 HD
ENDBRANCH   1  18
BRANCH   7  21
ATOM     21  C   UNL     1       3.337   1.141   5.981  0.00  0.00    +0.234 C 
BRANCH  21  22
ATOM     22  O   UNL     1       2.991   1.124   7.368  0.00  0.00    -0.492 OA
BRANCH  22  23
ATOM     23  C   UNL     1       3.968   1.461   8.251  0.00  0.00    +0.121 A 
ATOM     24  C   UNL     1       5.231   1.806   7.792  0.00  0.00    +0.046 A 
ATOM     25  C   UNL     1       6.222   2.148   8.692  0.00  0.00    +0.005 A 
ATOM     26  C   UNL     1       5.956   2.146  10.049  0.00  0.00    -0.064 A 
ATOM     27  C   UNL     1       4.698   1.802  10.508  0.00  0.00    +0.005 A 
ATOM     28  C   UNL     1       3.702   1.465   9.612  0.00  0.00    +0.046 A 
BRANCH  26  29
ATOM     29  C   UNL     1       7.039   2.519  11.028  0.00  0.00    -0.043 C 
BRANCH  29  30
ATOM     30  N   UNL     1       7.001   3.968  11.271  0.00  0.00    +0.384 N 
ATOM     31  C   UNL     1       7.335   4.681  10.031  0.00  0.00    -0.095 C 
ATOM     32  H   UNL     1       6.076   4.234  11.573  0.00  0.00    -0.081 HD
BRANCH  30  33
ATOM     33  C   UNL     1       7.976   4.315  12.314  0.00  0.00    -0.019 C 
BRANCH  33  34
ATOM     34  C   UNL     1       7.851   5.778  12.651  0.00  0.00    +0.067 A 
ATOM     35  C   UNL     1       7.095   6.322  13.704  0.00  0.00    +0.065 A 
ATOM     36  C   UNL     1       7.239   7.661  13.676  0.00  0.00    +0.230 A 
ATOM     37  O   UNL     1       8.050   7.969  12.652  0.00  0.00    -0.363 OA
ATOM     38  N   UNL     1       8.431   6.760  12.020  0.00  0.00    -0.085 NA
ENDBRANCH  33  34
ENDBRANCH  30  33
ENDBRANCH  29  30
ENDBRANCH  26  29
ENDBRANCH  22  23
ENDBRANCH  21  22
ENDBRANCH   7  21
TORSDOF 8
