REMARK  Name = ZINC05164816
REMARK  7 active torsions:
REMARK  status: ('A' for Active; 'I' for Inactive)
REMARK    1  A    between atoms: C_1  and  C_2
REMARK    2  A    between atoms: C_3  and  O_17
REMARK    3  A    between atoms: C_4  and  C_8
REMARK    4  A    between atoms: C_11  and  O_15
REMARK    5  A    between atoms: C_13  and  O_14
REMARK    6  A    between atoms: O_15  and  C_16
REMARK    7  A    between atoms: O_17  and  C_18
REMARK                            x       y       z     vdW  Elec       q    Type
REMARK                         _______ _______ _______ _____ _____    ______ ____
ROOT
ATOM      1  C   UNL     1      -0.018   1.503   0.010  0.00  0.00    +0.069 C 
ATOM      2  C   UNL     1       0.002  -0.004   0.002  0.00  0.00    +0.076 A 
ATOM      3  C   UNL     1       0.008  -0.796  -1.097  0.00  0.00    +0.176 A 
ATOM      4  C   UNL     1       0.028  -2.138  -0.661  0.00  0.00    +0.138 A 
ATOM      5  N   UNL     1       0.034  -2.140   0.655  0.00  0.00    -0.170 NA
ATOM      6  N   UNL     1       0.024  -0.811   1.096  0.00  0.00    -0.278 N 
ATOM      7  H   UNL     1       0.029  -0.517   2.020  0.00  0.00    +0.189 HD
ENDROOT
BRANCH   4   8
ATOM      8  C   UNL     1       0.040  -3.337  -1.534  0.00  0.00    +0.047 A 
ATOM      9  C   UNL     1       0.037  -3.192  -2.920  0.00  0.00    +0.017 A 
ATOM     10  C   UNL     1       0.048  -4.309  -3.730  0.00  0.00    +0.046 A 
ATOM     11  C   UNL     1       0.062  -5.579  -3.168  0.00  0.00    +0.124 A 
ATOM     12  C   UNL     1       0.065  -5.731  -1.789  0.00  0.00    +0.091 A 
ATOM     13  C   UNL     1       0.060  -4.616  -0.969  0.00  0.00    +0.130 A 
BRANCH  13  14
ATOM     14  O   UNL     1       0.069  -4.764   0.381  0.00  0.00    -0.506 OA
ATOM     15  H   UNL     1      -0.812  -4.818   0.777  0.00  0.00    +0.292 HD
ENDBRANCH  13  14
BRANCH  11  16
ATOM     16  O   UNL     1       0.073  -6.675  -3.971  0.00  0.00    -0.495 OA
ATOM     17  C   UNL     1       0.069  -6.446  -5.381  0.00  0.00    +0.277 C 
ENDBRANCH  11  16
ENDBRANCH   4   8
BRANCH   3  18
ATOM     18  O   UNL     1      -0.004  -0.372  -2.391  0.00  0.00    -0.451 OA
BRANCH  18  19
ATOM     19  C   UNL     1       1.190  -0.158  -3.003  0.00  0.00    +0.143 A 
ATOM     20  C   UNL     1       2.374  -0.376  -2.313  0.00  0.00    +0.047 A 
ATOM     21  C   UNL     1       3.586  -0.157  -2.937  0.00  0.00    +0.004 A 
ATOM     22  C   UNL     1       3.622   0.279  -4.249  0.00  0.00    +0.001 A 
ATOM     23  C   UNL     1       2.444   0.497  -4.939  0.00  0.00    +0.019 A 
ATOM     24  C   UNL     1       1.228   0.274  -4.322  0.00  0.00    +0.060 A 
ATOM     25 BR   UNL     1      -0.383   0.566  -5.269  0.00  0.00    -0.046 Br
ENDBRANCH  18  19
ENDBRANCH   3  18
TORSDOF 5
