REMARK  Name = ZINC25153413
REMARK  7 active torsions:
REMARK  status: ('A' for Active; 'I' for Inactive)
REMARK    1  A    between atoms: C_1  and  C_2
REMARK    2  A    between atoms: C_2  and  C_4
REMARK    3  A    between atoms: C_2  and  N_15
REMARK    4  A    between atoms: C_16  and  C_18
REMARK    5  A    between atoms: C_23  and  S_24
REMARK    6  A    between atoms: S_24  and  C_25
REMARK    7  A    between atoms: C_25  and  C_26
REMARK                            x       y       z     vdW  Elec       q    Type
REMARK                         _______ _______ _______ _____ _____    ______ ____
ROOT
ATOM      1  C   UNL     1       7.996  -2.515  -0.090  0.00  0.00    +0.050 A 
ATOM      2  C   UNL     1       8.463  -3.833  -0.097  0.00  0.00    +0.014 A 
ATOM      3  C   UNL     1       7.567  -4.879  -0.093  0.00  0.00    +0.001 A 
ATOM      4  C   UNL     1       6.202  -4.634  -0.079  0.00  0.00    +0.001 A 
ATOM      5  C   UNL     1       5.725  -3.340  -0.067  0.00  0.00    +0.015 A 
ATOM      6  C   UNL     1       6.613  -2.270  -0.070  0.00  0.00    +0.020 A 
ENDROOT
BRANCH   1   8
ATOM      7  N   UNL     1      10.275  -1.631  -0.118  0.00  0.00    -0.305 N 
ATOM      8  C   UNL     1       8.949  -1.391  -0.099  0.00  0.00    +0.246 C 
ATOM      9  O   UNL     1       8.538  -0.246  -0.090  0.00  0.00    -0.270 OA
ATOM     10  H   UNL     1      10.646  -2.667  -0.127  0.00  0.00    +0.150 HD
BRANCH   7  12
ATOM     11  C   UNL     1      11.475  -0.048   1.308  0.00  0.00    +0.033 C 
ATOM     12  C   UNL     1      11.222  -0.514  -0.128  0.00  0.00    +0.100 C 
BRANCH  12  13
ATOM     13  C   UNL     1      12.521  -0.961  -0.748  0.00  0.00    -0.025 A 
ATOM     14  C   UNL     1      13.023  -2.218  -0.465  0.00  0.00    +0.009 A 
ATOM     15  C   UNL     1      14.214  -2.636  -1.030  0.00  0.00    +0.048 A 
ATOM     16  C   UNL     1      14.906  -1.793  -1.882  0.00  0.00    +0.142 A 
ATOM     17  C   UNL     1      14.400  -0.526  -2.167  0.00  0.00    +0.076 A 
ATOM     18  C   UNL     1      13.204  -0.115  -1.602  0.00  0.00    +0.032 A 
ATOM     19  N   UNL     1      15.111   0.319  -3.031  0.00  0.00    -0.280 N 
ATOM     20  C   UNL     1      16.083  -0.208  -3.808  0.00  0.00    +0.255 C 
ATOM     21  O   UNL     1      16.732   0.507  -4.541  0.00  0.00    -0.272 OA
ATOM     22  C   UNL     1      16.357  -1.690  -3.760  0.00  0.00    +0.325 C 
ATOM     23  O   UNL     1      16.077  -2.188  -2.449  0.00  0.00    -0.481 OA
ATOM     24  H   UNL     1      14.875   1.392  -3.069  0.00  0.00    +0.155 HD
ENDBRANCH  12  13
ENDBRANCH   7  12
ENDBRANCH   1   8
BRANCH   6  25
ATOM     25  S   UNL     1       6.007  -0.616  -0.057  0.00  0.00    -0.115 S 
BRANCH  25  26
ATOM     26  C   UNL     1       4.204  -0.809  -0.041  0.00  0.00    +0.170 C 
BRANCH  26  27
ATOM     27  C   UNL     1       3.553   0.550  -0.029  0.00  0.00    +0.230 C 
ATOM     28  O   UNL     1       4.238   1.551  -0.030  0.00  0.00    -0.274 OA
ATOM     29  N   UNL     1       2.209   0.654  -0.015  0.00  0.00    -0.270 N 
ATOM     30  C   UNL     1       1.464   1.915  -0.002  0.00  0.00    +0.118 C 
ATOM     31  C   UNL     1      -0.018   1.508   0.010  0.00  0.00    +0.056 C 
ATOM     32  C   UNL     1       0.002  -0.004   0.002  0.00  0.00    -0.024 A 
ATOM     33  C   UNL     1       1.322  -0.427  -0.013  0.00  0.00    +0.039 A 
ATOM     34  C   UNL     1       1.595  -1.796  -0.024  0.00  0.00    +0.024 A 
ATOM     35  C   UNL     1       0.563  -2.711  -0.019  0.00  0.00    +0.002 A 
ATOM     36  C   UNL     1      -0.750  -2.278  -0.004  0.00  0.00    +0.000 A 
ATOM     37  C   UNL     1      -1.028  -0.924   0.006  0.00  0.00    +0.005 A 
ENDBRANCH  26  27
ENDBRANCH  25  26
ENDBRANCH   6  25
TORSDOF 6
