REMARK  Name = ZINC38990095
REMARK  9 active torsions:
REMARK  status: ('A' for Active; 'I' for Inactive)
REMARK    1  A    between atoms: C_1  and  C_2
REMARK    2  A    between atoms: C_2  and  C_4
REMARK    3  A    between atoms: C_2  and  N_23
REMARK    4  A    between atoms: N_6  and  C_7
REMARK    5  A    between atoms: C_11  and  C_13
REMARK    6  A    between atoms: C_13  and  O_15
REMARK    7  A    between atoms: O_15  and  C_16
REMARK    8  A    between atoms: C_20  and  O_21
REMARK    9  A    between atoms: O_21  and  C_22
REMARK                            x       y       z     vdW  Elec       q    Type
REMARK                         _______ _______ _______ _____ _____    ______ ____
ROOT
ATOM      1  C   UNL     1       1.424   0.360   1.403  0.00  0.00    +0.203 C 
ATOM      2  O   UNL     1       0.592  -0.355   1.919  0.00  0.00    -0.277 OA
ATOM      3  N   UNL     1       2.655   0.461   1.944  0.00  0.00    -0.287 N 
ATOM      4  H   UNL     1       3.303   1.074   1.564  0.00  0.00    +0.155 HD
ENDROOT
BRANCH   3   5
ATOM      5  C   UNL     1       2.988  -0.299   3.025  0.00  0.00    +0.056 C 
ATOM      6  C   UNL     1       4.233  -0.414   3.610  0.00  0.00    +0.059 A 
ATOM      7  C   UNL     1       4.139  -1.341   4.752  0.00  0.00    +0.048 A 
ATOM      8  N   UNL     1       2.905  -1.786   4.881  0.00  0.00    -0.367 N 
ATOM      9  C   UNL     1       2.069  -1.185   3.836  0.00  0.00    +0.234 C 
ATOM     10  C   UNL     1       5.315  -1.602   5.497  0.00  0.00    +0.026 A 
ATOM     11  C   UNL     1       6.488  -1.011   5.161  0.00  0.00    +0.006 A 
ATOM     12  C   UNL     1       6.606  -0.132   4.088  0.00  0.00    +0.046 A 
ATOM     13  C   UNL     1       5.533   0.186   3.305  0.00  0.00    +0.131 A 
ATOM     14  H   UNL     1       2.598  -2.406   5.560  0.00  0.00    +0.161 HD
BRANCH   9  15
ATOM     15  C   UNL     1       0.969  -0.362   4.456  0.00  0.00    +0.335 C 
ATOM     16  O   UNL     1       1.208   0.353   5.399  0.00  0.00    -0.248 OA
BRANCH  15  17
ATOM     17  O   UNL     1      -0.277  -0.425   3.960  0.00  0.00    -0.466 OA
ATOM     18  C   UNL     1      -1.270   0.381   4.597  0.00  0.00    +0.280 C 
ENDBRANCH  15  17
ENDBRANCH   9  15
BRANCH  13  19
ATOM     19  O   UNL     1       5.669   1.045   2.265  0.00  0.00    -0.494 OA
ATOM     20  C   UNL     1       6.971   1.587   2.037  0.00  0.00    +0.277 C 
ENDBRANCH  13  19
ENDBRANCH   3   5
BRANCH   1  22
ATOM     21  C   UNL     1       0.579   2.527   0.544  0.00  0.00    -0.004 C 
ATOM     22  C   UNL     1       1.083   1.136   0.157  0.00  0.00    +0.016 C 
BRANCH  22  23
ATOM     23  N   UNL     1       0.036   0.426  -0.590  0.00  0.00    +0.387 N 
ATOM     24  C   UNL     1      -0.298   1.186  -1.801  0.00  0.00    -0.073 C 
ATOM     25  C   UNL     1      -1.448   0.495  -2.539  0.00  0.00    +0.046 C 
ATOM     26  C   UNL     1      -1.022  -0.925  -2.919  0.00  0.00    +0.167 C 
ATOM     27  C   UNL     1      -0.597  -1.685  -1.661  0.00  0.00    +0.046 C 
ATOM     28  C   UNL     1       0.520  -0.910  -0.957  0.00  0.00    -0.073 C 
ATOM     29  O   UNL     1      -2.123  -1.605  -3.542  0.00  0.00    -0.346 OA
ATOM     30  C   UNL     1      -1.905  -1.435  -4.964  0.00  0.00    +0.191 C 
ATOM     31  C   UNL     1      -0.361  -1.512  -5.058  0.00  0.00    +0.191 C 
ATOM     32  O   UNL     1       0.073  -0.869  -3.842  0.00  0.00    -0.346 OA
ATOM     33  H   UNL     1      -0.786   0.338  -0.013  0.00  0.00    -0.081 HD
ENDBRANCH  22  23
ENDBRANCH   1  22
TORSDOF 6
