REMARK  Name = ZINC15043767
REMARK  9 active torsions:
REMARK  status: ('A' for Active; 'I' for Inactive)
REMARK    1  A    between atoms: C_1  and  C_2
REMARK    2  A    between atoms: C_2  and  C_4
REMARK    3  A    between atoms: C_2  and  N_11
REMARK    4  A    between atoms: C_12  and  C_14
REMARK    5  A    between atoms: C_14  and  C_16
REMARK    6  A    between atoms: C_14  and  N_58
REMARK    7  A    between atoms: C_19  and  C_22
REMARK    8  A    between atoms: N_24  and  C_25
REMARK    9  A    between atoms: C_30  and  O_31
REMARK                            x       y       z     vdW  Elec       q    Type
REMARK                         _______ _______ _______ _____ _____    ______ ____
ROOT
ATOM      1  C   UNL     1      -5.672   1.159   0.876  0.00  0.00    -0.077 C 
ATOM      2  C   UNL     1      -4.724   2.321   1.185  0.00  0.00    -0.006 C 
ATOM      3  C   UNL     1      -3.309   1.776   1.399  0.00  0.00    +0.072 C 
ATOM      4  C   UNL     1      -2.872   1.008   0.148  0.00  0.00    -0.006 C 
ATOM      5  C   UNL     1      -3.873  -0.116  -0.130  0.00  0.00    -0.077 C 
ATOM      6  N   UNL     1      -5.210   0.477  -0.351  0.00  0.00    +0.387 N 
ATOM      7  H   UNL     1      -5.148   1.164  -1.111  0.00  0.00    -0.081 HD
ENDROOT
BRANCH   3   8
ATOM      8  C   UNL     1      -2.361   2.920   1.645  0.00  0.00    +0.220 C 
ATOM      9  O   UNL     1      -2.774   4.061   1.649  0.00  0.00    -0.275 OA
ATOM     10  N   UNL     1      -1.052   2.677   1.860  0.00  0.00    -0.282 N 
ATOM     11  H   UNL     1      -0.707   1.775   1.774  0.00  0.00    +0.155 HD
BRANCH  10  12
ATOM     12  C   UNL     1      -0.191   3.728   2.201  0.00  0.00    +0.075 A 
ATOM     13  C   UNL     1      -0.706   4.913   2.708  0.00  0.00    +0.027 A 
ATOM     14  C   UNL     1       0.145   5.948   3.044  0.00  0.00    +0.002 A 
ATOM     15  C   UNL     1       1.510   5.807   2.876  0.00  0.00    +0.004 A 
ATOM     16  C   UNL     1       2.031   4.630   2.372  0.00  0.00    +0.047 A 
ATOM     17  C   UNL     1       1.185   3.585   2.037  0.00  0.00    +0.138 A 
BRANCH  17  18
ATOM     18  O   UNL     1       1.695   2.425   1.546  0.00  0.00    -0.505 OA
ATOM     19  H   UNL     1       1.779   2.408   0.583  0.00  0.00    +0.292 HD
ENDBRANCH  17  18
ENDBRANCH  10  12
ENDBRANCH   3   8
BRANCH   6  20
ATOM     20  C   UNL     1      -6.172  -0.577  -0.735  0.00  0.00    +0.016 C 
ATOM     21  C   UNL     1      -5.570  -1.418  -1.863  0.00  0.00    -0.004 C 
BRANCH  20  23
ATOM     22  N   UNL     1      -7.685  -2.066   0.536  0.00  0.00    -0.310 N 
ATOM     23  C   UNL     1      -6.482  -1.465   0.443  0.00  0.00    +0.200 C 
ATOM     24  O   UNL     1      -5.649  -1.639   1.307  0.00  0.00    -0.278 OA
ATOM     25  H   UNL     1      -8.351  -1.926  -0.155  0.00  0.00    +0.149 HD
BRANCH  22  27
ATOM     26  C   UNL     1      -8.487  -2.074   2.846  0.00  0.00    +0.033 C 
ATOM     27  C   UNL     1      -7.986  -2.929   1.680  0.00  0.00    +0.100 C 
BRANCH  27  28
ATOM     28  C   UNL     1      -9.050  -3.923   1.293  0.00  0.00    -0.027 A 
ATOM     29  C   UNL     1     -10.115  -3.524   0.506  0.00  0.00    +0.008 A 
ATOM     30  C   UNL     1     -11.088  -4.436   0.146  0.00  0.00    +0.038 A 
ATOM     31  C   UNL     1     -11.004  -5.747   0.583  0.00  0.00    +0.123 A 
ATOM     32  C   UNL     1      -9.941  -6.144   1.377  0.00  0.00    +0.038 A 
ATOM     33  C   UNL     1      -8.965  -5.232   1.730  0.00  0.00    +0.008 A 
ATOM     34  F   UNL     1     -11.959  -6.638   0.237  0.00  0.00    -0.205 F 
ENDBRANCH  27  28
ENDBRANCH  22  27
ENDBRANCH  20  23
ENDBRANCH   6  20
TORSDOF 7
