REMARK  Name = ZINC63426847
REMARK  14 active torsions:
REMARK  status: ('A' for Active; 'I' for Inactive)
REMARK    1  A    between atoms: C_1  and  C_2
REMARK    2  A    between atoms: C_2  and  C_3
REMARK    3  A    between atoms: C_2  and  C_4
REMARK    4  A    between atoms: C_4  and  O_5
REMARK    5  A    between atoms: O_5  and  C_6
REMARK    6  A    between atoms: N_8  and  C_9
REMARK    7  A    between atoms: C_9  and  C_11
REMARK    8  A    between atoms: C_9  and  C_21
REMARK    9  A    between atoms: C_11  and  C_12
REMARK   10  A    between atoms: N_23  and  N_24
REMARK   11  A    between atoms: C_25  and  C_26
REMARK   12  A    between atoms: C_29  and  N_32
REMARK   13  A    between atoms: N_32  and  C_33
REMARK   14  A    between atoms: N_32  and  C_34
REMARK                            x       y       z     vdW  Elec       q    Type
REMARK                         _______ _______ _______ _____ _____    ______ ____
ROOT
ATOM      1  C   UNL     1      -3.903  -4.489  -0.191  0.00  0.00    +0.168 C 
ENDROOT
BRANCH   1   4
ATOM      2  C   UNL     1      -2.786  -2.353   0.163  0.00  0.00    +0.401 C 
ATOM      3  O   UNL     1      -3.879  -1.828   0.244  0.00  0.00    -0.226 OA
ATOM      4  N   UNL     1      -2.690  -3.680  -0.053  0.00  0.00    -0.269 N 
ATOM      5  H   UNL     1      -1.817  -4.099  -0.118  0.00  0.00    +0.153 HD
BRANCH   2   6
ATOM      6  O   UNL     1      -1.671  -1.609   0.289  0.00  0.00    -0.450 OA
BRANCH   6   7
ATOM      7  C   UNL     1      -1.848  -0.209   0.517  0.00  0.00    +0.236 C 
BRANCH   7   9
ATOM      8  C   UNL     1      -0.665   1.979   0.752  0.00  0.00    +0.010 C 
ATOM      9  C   UNL     1      -0.479   0.465   0.633  0.00  0.00    +0.021 C 
ATOM     10  C   UNL     1       0.244  -0.059   1.875  0.00  0.00    +0.010 C 
ENDBRANCH   7   9
ENDBRANCH   6   7
ENDBRANCH   2   6
ENDBRANCH   1   4
BRANCH   1  11
ATOM     11  C   UNL     1      -3.616  -5.680  -1.068  0.00  0.00    +0.253 C 
ATOM     12  O   UNL     1      -2.506  -5.837  -1.534  0.00  0.00    -0.272 OA
ATOM     13  N   UNL     1      -4.591  -6.571  -1.337  0.00  0.00    -0.205 N 
ATOM     14  H   UNL     1      -5.478  -6.445  -0.964  0.00  0.00    +0.177 HD
BRANCH  13  15
ATOM     15  N   UNL     1      -4.324  -7.678  -2.153  0.00  0.00    -0.188 NA
ATOM     16  C   UNL     1      -5.263  -8.535  -2.411  0.00  0.00    +0.138 C 
BRANCH  16  17
ATOM     17  C   UNL     1      -4.982  -9.700  -3.270  0.00  0.00    -0.005 A 
ATOM     18  C   UNL     1      -3.704  -9.885  -3.802  0.00  0.00    +0.011 A 
ATOM     19  C   UNL     1      -3.444 -10.975  -4.604  0.00  0.00    +0.024 A 
ATOM     20  C   UNL     1      -4.454 -11.890  -4.884  0.00  0.00    +0.029 A 
ATOM     21  C   UNL     1      -5.728 -11.709  -4.356  0.00  0.00    +0.024 A 
ATOM     22  C   UNL     1      -5.993 -10.625  -3.549  0.00  0.00    +0.011 A 
BRANCH  20  23
ATOM     23  N   UNL     1      -4.188 -12.992  -5.696  0.00  0.00    -0.336 N 
ATOM     24  C   UNL     1      -2.847 -13.185  -6.253  0.00  0.00    +0.129 C 
ATOM     25  C   UNL     1      -5.250 -13.957  -5.993  0.00  0.00    +0.129 C 
ENDBRANCH  20  23
ENDBRANCH  16  17
ENDBRANCH  13  15
ENDBRANCH   1  11
BRANCH   1  26
ATOM     26  C   UNL     1      -4.354  -4.971   1.190  0.00  0.00    +0.065 C 
BRANCH  26  27
ATOM     27  C   UNL     1      -3.253  -5.781   1.824  0.00  0.00    -0.039 C 
ATOM     28  C   UNL     1      -2.306  -5.336   2.681  0.00  0.00    -0.001 A 
ATOM     29  C   UNL     1      -2.027  -4.014   3.256  0.00  0.00    +0.010 A 
ATOM     30  C   UNL     1      -0.983  -3.875   4.105  0.00  0.00    +0.001 A 
ATOM     31  C   UNL     1      -0.162  -4.958   4.447  0.00  0.00    +0.002 A 
ATOM     32  C   UNL     1      -0.354  -6.202   3.959  0.00  0.00    +0.026 A 
ATOM     33  C   UNL     1      -1.424  -6.463   3.058  0.00  0.00    +0.043 A 
ATOM     34  N   UNL     1      -1.811  -7.563   2.458  0.00  0.00    -0.380 N 
ATOM     35  C   UNL     1      -2.987  -7.258   1.636  0.00  0.00    +0.144 C 
ATOM     36  H   UNL     1      -1.392  -8.433   2.546  0.00  0.00    +0.160 HD
ENDBRANCH  26  27
ENDBRANCH   1  26
TORSDOF 10
