REMARK  Name = ZINC09217358
REMARK  12 active torsions:
REMARK  status: ('A' for Active; 'I' for Inactive)
REMARK    1  A    between atoms: C_1  and  C_2
REMARK    2  A    between atoms: C_2  and  C_3
REMARK    3  A    between atoms: C_3  and  C_5
REMARK    4  A    between atoms: C_3  and  C_6
REMARK    5  A    between atoms: C_11  and  N_12
REMARK    6  A    between atoms: C_13  and  C_15
REMARK    7  A    between atoms: C_15  and  S_16
REMARK    8  A    between atoms: S_16  and  C_17
REMARK    9  A    between atoms: C_20  and  C_29
REMARK   10  A    between atoms: N_21  and  C_22
REMARK   11  A    between atoms: C_29  and  C_31
REMARK   12  A    between atoms: C_29  and  N_69
REMARK                            x       y       z     vdW  Elec       q    Type
REMARK                         _______ _______ _______ _____ _____    ______ ____
ROOT
ATOM      1  C   UNL     1      -2.119   4.107   0.046  0.00  0.00    +0.197 A 
ATOM      2  N   UNL     1      -3.191   3.350  -0.006  0.00  0.00    -0.122 NA
ATOM      3  N   UNL     1      -4.246   4.083   0.025  0.00  0.00    -0.135 NA
ATOM      4  C   UNL     1      -3.916   5.341   0.098  0.00  0.00    +0.125 A 
ATOM      5  N   UNL     1      -2.548   5.403   0.119  0.00  0.00    -0.275 N 
ENDROOT
BRANCH   5   6
ATOM      6  C   UNL     1      -1.753   6.557   0.197  0.00  0.00    +0.050 A 
ATOM      7  C   UNL     1      -1.793   7.353   1.333  0.00  0.00    +0.029 A 
ATOM      8  C   UNL     1      -1.005   8.485   1.411  0.00  0.00    +0.040 A 
ATOM      9  C   UNL     1      -0.184   8.832   0.351  0.00  0.00    +0.124 A 
ATOM     10  C   UNL     1      -0.147   8.041  -0.786  0.00  0.00    +0.040 A 
ATOM     11  C   UNL     1      -0.929   6.906  -0.864  0.00  0.00    +0.029 A 
ATOM     12  F   UNL     1       0.582   9.942   0.426  0.00  0.00    -0.205 F 
ENDBRANCH   5   6
BRANCH   4  13
ATOM     13  C   UNL     1      -4.864   6.511   0.154  0.00  0.00    -0.002 C 
ATOM     14  C   UNL     1      -5.372   6.825  -1.255  0.00  0.00    -0.005 C 
BRANCH  13  20
ATOM     15  C   UNL     1      -7.046   7.208   0.938  0.00  0.00    -0.078 C 
ATOM     16  C   UNL     1      -8.272   6.759   1.737  0.00  0.00    -0.019 C 
ATOM     17  C   UNL     1      -7.868   6.531   3.196  0.00  0.00    -0.004 C 
ATOM     18  C   UNL     1      -6.747   5.491   3.251  0.00  0.00    -0.019 C 
ATOM     19  C   UNL     1      -5.565   5.976   2.409  0.00  0.00    -0.078 C 
ATOM     20  N   UNL     1      -6.013   6.153   1.011  0.00  0.00    +0.386 N 
ATOM     21  H   UNL     1      -6.416   5.269   0.676  0.00  0.00    -0.081 HD
ENDBRANCH  13  20
ENDBRANCH   4  13
BRANCH   1  22
ATOM     22  S   UNL     1      -0.445   3.556   0.032  0.00  0.00    -0.076 S 
BRANCH  22  23
ATOM     23  C   UNL     1      -0.704   1.768  -0.070  0.00  0.00    +0.173 C 
BRANCH  23  25
ATOM     24  N   UNL     1       0.685  -0.277  -0.170  0.00  0.00    -0.285 N 
ATOM     25  C   UNL     1       0.631   1.068  -0.095  0.00  0.00    +0.227 C 
ATOM     26  O   UNL     1       1.656   1.715  -0.054  0.00  0.00    -0.275 OA
ATOM     27  H   UNL     1      -0.133  -0.798  -0.139  0.00  0.00    +0.155 HD
BRANCH  24  33
ATOM     28  C   UNL     1       2.031  -2.079  -1.050  0.00  0.00    -0.023 A 
ATOM     29  C   UNL     1       3.253  -2.712  -1.168  0.00  0.00    +0.006 A 
ATOM     30  C   UNL     1       4.365  -2.196  -0.529  0.00  0.00    +0.000 A 
ATOM     31  C   UNL     1       4.259  -1.044   0.228  0.00  0.00    +0.002 A 
ATOM     32  C   UNL     1       3.042  -0.402   0.344  0.00  0.00    +0.023 A 
ATOM     33  C   UNL     1       1.921  -0.921  -0.290  0.00  0.00    +0.037 A 
BRANCH  28  34
ATOM     34  C   UNL     1       0.819  -2.642  -1.746  0.00  0.00    +0.017 C 
ATOM     35  C   UNL     1       1.115  -2.799  -3.239  0.00  0.00    +0.012 C 
BRANCH  34  37
ATOM     36  C   UNL     1      -0.825  -4.523  -1.766  0.00  0.00    +0.004 C 
ATOM     37  C   UNL     1       0.476  -4.008  -1.148  0.00  0.00    +0.004 C 
ENDBRANCH  34  37
ENDBRANCH  28  34
ENDBRANCH  24  33
ENDBRANCH  23  25
ENDBRANCH  22  23
ENDBRANCH   1  22
TORSDOF 9
