REMARK  Name = ZINC12507032
REMARK  4 active torsions:
REMARK  status: ('A' for Active; 'I' for Inactive)
REMARK    1  A    between atoms: C_1  and  O_2
REMARK    2  A    between atoms: O_2  and  C_3
REMARK    3  A    between atoms: C_5  and  C_11
REMARK    4  A    between atoms: C_8  and  O_9
REMARK                            x       y       z     vdW  Elec       q    Type
REMARK                         _______ _______ _______ _____ _____    ______ ____
ROOT
ATOM      1  C   UNL     1       2.462   0.335   4.204  0.00  0.00    +0.209 C 
ATOM      2  N   UNL     1       2.240  -0.311   5.510  0.00  0.00    -0.294 N 
ATOM      3  C   UNL     1       3.064  -1.328   5.917  0.00  0.00    +0.160 C 
ATOM      4  N   UNL     1       2.568  -2.302   6.740  0.00  0.00    -0.332 N 
ATOM      5  N   UNL     1       4.326  -1.388   5.531  0.00  0.00    -0.302 N 
ATOM      6  C   UNL     1       4.782  -0.450   4.666  0.00  0.00    +0.213 A 
ATOM      7  N   UNL     1       3.915   0.408   4.011  0.00  0.00    -0.286 N 
ATOM      8  C   UNL     1       4.667   1.246   3.222  0.00  0.00    +0.076 A 
ATOM      9  C   UNL     1       4.369   2.300   2.368  0.00  0.00    +0.077 A 
ATOM     10  C   UNL     1       5.387   2.957   1.704  0.00  0.00    +0.164 A 
ATOM     11  C   UNL     1       6.712   2.571   1.885  0.00  0.00    +0.164 A 
ATOM     12  C   UNL     1       7.026   1.526   2.729  0.00  0.00    +0.079 A 
ATOM     13  C   UNL     1       6.005   0.852   3.407  0.00  0.00    +0.095 A 
ATOM     14  N   UNL     1       6.006  -0.193   4.289  0.00  0.00    -0.212 NA
ATOM     15  O   UNL     1       7.703   3.235   1.221  0.00  0.00    -0.488 OA
ATOM     16  C   UNL     1       7.736   3.056  -0.197  0.00  0.00    +0.232 C 
ATOM     17  C   UNL     1       6.784   4.022  -0.884  0.00  0.00    +0.082 C 
ATOM     18  C   UNL     1       5.330   3.755  -0.527  0.00  0.00    +0.232 C 
ATOM     19  O   UNL     1       5.097   3.993   0.862  0.00  0.00    -0.488 OA
ATOM     20  H   UNL     1       1.643  -2.268   7.029  0.00  0.00    +0.145 HD
ATOM     21  H   UNL     1       4.913  -2.088   5.859  0.00  0.00    +0.171 HD
ATOM     22  H   UNL     1       3.141  -3.027   7.034  0.00  0.00    +0.145 HD
ATOM     23  H   UNL     1       1.514  -0.016   6.081  0.00  0.00    +0.151 HD
ENDROOT
BRANCH   1  26
ATOM     24  C   UNL     1       0.626  -0.619   1.042  0.00  0.00    +0.163 A 
ATOM     25  C   UNL     1       1.202   0.137   2.051  0.00  0.00    +0.056 A 
ATOM     26  C   UNL     1       1.837  -0.489   3.108  0.00  0.00    -0.002 A 
ATOM     27  C   UNL     1       1.899  -1.869   3.162  0.00  0.00    +0.031 A 
ATOM     28  C   UNL     1       1.326  -2.630   2.158  0.00  0.00    +0.086 A 
ATOM     29  C   UNL     1       0.683  -2.008   1.099  0.00  0.00    +0.177 A 
ATOM     30 CL   UNL     1       1.407  -4.362   2.228  0.00  0.00    -0.080 Cl
BRANCH  24  32
ATOM     31  C   UNL     1      -0.017   1.425   0.010  0.00  0.00    +0.277 C 
ATOM     32  O   UNL     1       0.002  -0.004   0.002  0.00  0.00    -0.491 OA
ENDBRANCH  24  32
BRANCH  29  33
ATOM     33  O   UNL     1       0.114  -2.754   0.114  0.00  0.00    -0.502 OA
ATOM     34  H   UNL     1       0.710  -2.957  -0.620  0.00  0.00    +0.292 HD
ENDBRANCH  29  33
ENDBRANCH   1  26
TORSDOF 3
