REMARK  Name = ZINC09312262
REMARK  15 active torsions:
REMARK  status: ('A' for Active; 'I' for Inactive)
REMARK    1  A    between atoms: C_1  and  C_2
REMARK    2  A    between atoms: C_2  and  N_73
REMARK    3  A    between atoms: C_3  and  C_4
REMARK    4  A    between atoms: C_3  and  N_73
REMARK    5  A    between atoms: C_5  and  C_6
REMARK    6  A    between atoms: C_5  and  N_73
REMARK    7  A    between atoms: C_6  and  C_7
REMARK    8  A    between atoms: C_7  and  N_8
REMARK    9  A    between atoms: C_9  and  C_29
REMARK   10  A    between atoms: C_12  and  C_13
REMARK   11  A    between atoms: C_12  and  O_24
REMARK   12  A    between atoms: C_20  and  C_23
REMARK   13  A    between atoms: C_32  and  O_35
REMARK   14  A    between atoms: O_35  and  C_36
REMARK   15  A    between atoms: C_36  and  C_37
REMARK                            x       y       z     vdW  Elec       q    Type
REMARK                         _______ _______ _______ _____ _____    ______ ____
ROOT
ATOM      1  N   UNL     1      -1.156   1.815   0.831  0.00  0.00    -0.284 N 
ATOM      2  C   UNL     1      -1.849   0.916   1.759  0.00  0.00    +0.144 C 
ATOM      3  C   UNL     1      -2.428   1.784   2.851  0.00  0.00    +0.071 C 
ATOM      4  C   UNL     1      -3.164   1.365   3.943  0.00  0.00    +0.133 C 
ATOM      5  C   UNL     1      -2.067   3.103   2.535  0.00  0.00    +0.249 C 
ATOM      6  O   UNL     1      -2.351   4.095   3.181  0.00  0.00    -0.282 OA
ATOM      7  C   UNL     1      -1.274   3.077   1.277  0.00  0.00    +0.288 C 
ATOM      8  O   UNL     1      -0.803   4.054   0.731  0.00  0.00    -0.266 OA
ENDROOT
BRANCH   4   9
ATOM      9  C   UNL     1      -3.528   2.324   4.997  0.00  0.00    +0.017 A 
ATOM     10  C   UNL     1      -4.857   2.430   5.428  0.00  0.00    +0.015 A 
ATOM     11  C   UNL     1      -5.195   3.329   6.410  0.00  0.00    +0.046 A 
ATOM     12  C   UNL     1      -4.220   4.144   6.989  0.00  0.00    +0.124 A 
ATOM     13  C   UNL     1      -2.899   4.029   6.563  0.00  0.00    -0.002 A 
ATOM     14  C   UNL     1      -2.548   3.135   5.583  0.00  0.00    +0.019 A 
ATOM     15  C   UNL     1      -2.083   5.012   7.381  0.00  0.00    +0.083 C 
ATOM     16  C   UNL     1      -3.056   5.354   8.534  0.00  0.00    +0.175 C 
ATOM     17  O   UNL     1      -4.344   5.098   7.950  0.00  0.00    -0.488 OA
ATOM     18  C   UNL     1      -2.815   4.440   9.736  0.00  0.00    +0.052 C 
ENDBRANCH   4   9
BRANCH   2  19
ATOM     19  C   UNL     1      -0.874  -0.072   2.345  0.00  0.00    -0.022 A 
ATOM     20  C   UNL     1       0.397   0.341   2.700  0.00  0.00    +0.009 A 
ATOM     21  C   UNL     1       1.291  -0.561   3.244  0.00  0.00    +0.046 A 
ATOM     22  C   UNL     1       0.916  -1.885   3.423  0.00  0.00    +0.121 A 
ATOM     23  C   UNL     1      -0.358  -2.298   3.061  0.00  0.00    +0.046 A 
ATOM     24  C   UNL     1      -1.250  -1.391   2.523  0.00  0.00    +0.009 A 
BRANCH  22  25
ATOM     25  O   UNL     1       1.796  -2.776   3.952  0.00  0.00    -0.488 OA
BRANCH  25  26
ATOM     26  C   UNL     1       3.090  -2.280   4.302  0.00  0.00    +0.256 C 
BRANCH  26  27
ATOM     27  C   UNL     1       3.921  -3.402   4.869  0.00  0.00    +0.006 C 
ATOM     28  C   UNL     1       5.162  -3.558   4.481  0.00  0.00    +0.007 C 
ENDBRANCH  26  27
ENDBRANCH  25  26
ENDBRANCH  22  25
ENDBRANCH   2  19
BRANCH   4  29
ATOM     29  O   UNL     1      -3.549   0.074   4.042  0.00  0.00    -0.506 OA
ATOM     30  H   UNL     1      -4.069  -0.055   4.886  0.00  0.00    +0.292 HD
ENDBRANCH   4  29
BRANCH   1  31
ATOM     31  C   UNL     1      -0.446   1.403  -0.382  0.00  0.00    +0.107 C 
BRANCH  31  32
ATOM     32  C   UNL     1      -1.413   1.409  -1.567  0.00  0.00    +0.000 C 
BRANCH  32  33
ATOM     33  C   UNL     1      -0.671   0.979  -2.834  0.00  0.00    -0.077 C 
BRANCH  33  34
ATOM     34  N   UNL     1      -1.648   0.854  -3.936  0.00  0.00    +0.379 N 
ATOM     35  H   UNL     1      -2.495   0.395  -3.580  0.00  0.00    -0.082 HD
BRANCH  34  37
ATOM     36  C   UNL     1      -3.176   2.051  -5.424  0.00  0.00    -0.017 C 
ATOM     37  C   UNL     1      -2.007   2.193  -4.447  0.00  0.00    -0.082 C 
ENDBRANCH  34  37
BRANCH  34  38
ATOM     38  C   UNL     1      -1.078   0.033  -5.025  0.00  0.00    -0.082 C 
ATOM     39  C   UNL     1      -1.147  -1.440  -4.616  0.00  0.00    -0.017 C 
ENDBRANCH  34  38
ENDBRANCH  33  34
ENDBRANCH  32  33
ENDBRANCH  31  32
ENDBRANCH   1  31
TORSDOF 12
