REMARK  Name = ZINC44302798
REMARK  4 active torsions:
REMARK  status: ('A' for Active; 'I' for Inactive)
REMARK    1  A    between atoms: C_3  and  C_7
REMARK    2  A    between atoms: C_13  and  C_15
REMARK    3  A    between atoms: N_20  and  S_21
REMARK    4  A    between atoms: S_21  and  C_24
REMARK                            x       y       z     vdW  Elec       q    Type
REMARK                         _______ _______ _______ _____ _____    ______ ____
ROOT
ATOM      1  C   UNL     1       3.680   2.028  -0.023  0.00  0.00    +0.251 A 
ATOM      2  N   UNL     1       3.873   3.325  -0.012  0.00  0.00    -0.106 NA
ATOM      3  N   UNL     1       5.137   3.568  -0.025  0.00  0.00    -0.092 NA
ATOM      4  C   UNL     1       5.799   2.436  -0.045  0.00  0.00    +0.314 A 
ATOM      5  O   UNL     1       4.895   1.439  -0.037  0.00  0.00    -0.405 OA
ATOM      6  N   UNL     1       7.177   2.293  -0.064  0.00  0.00    -0.237 N 
ATOM      7  C   UNL     1       7.968   3.384  -0.063  0.00  0.00    +0.239 C 
ATOM      8  O   UNL     1       7.474   4.492  -0.046  0.00  0.00    -0.274 OA
ATOM      9  H   UNL     1       7.572   1.407  -0.078  0.00  0.00    +0.159 HD
ENDROOT
BRANCH   1  12
ATOM     10  C   UNL     1      -0.017   1.379   0.010  0.00  0.00    +0.020 A 
ATOM     11  C   UNL     1       1.181   2.073   0.002  0.00  0.00    +0.016 A 
ATOM     12  C   UNL     1       2.373   1.339  -0.013  0.00  0.00    +0.057 A 
ATOM     13  C   UNL     1       2.306  -0.056  -0.020  0.00  0.00    +0.124 A 
ATOM     14  N   UNL     1       1.141  -0.670  -0.012  0.00  0.00    -0.263 NA
ATOM     15  C   UNL     1       0.002  -0.004   0.002  0.00  0.00    +0.111 A 
ENDBRANCH   1  12
BRANCH   7  16
ATOM     16  C   UNL     1       9.467   3.229  -0.084  0.00  0.00    +0.166 C 
ATOM     17  C   UNL     1       9.934   2.478   1.181  0.00  0.00    +0.031 C 
ATOM     18  C   UNL     1      11.254   3.205   1.549  0.00  0.00    +0.019 C 
ATOM     19  C   UNL     1      10.925   4.666   1.154  0.00  0.00    +0.110 C 
ATOM     20  N   UNL     1      10.107   4.552  -0.071  0.00  0.00    -0.164 NA
BRANCH  20  21
ATOM     21  S   UNL     1       9.939   5.717  -1.236  0.00  0.00    +0.068 S 
ATOM     22  O   UNL     1      11.089   6.546  -1.150  0.00  0.00    -0.152 OA
ATOM     23  O   UNL     1       9.572   5.044  -2.433  0.00  0.00    -0.152 OA
BRANCH  21  24
ATOM     24  C   UNL     1       8.562   6.716  -0.778  0.00  0.00    +0.143 A 
ATOM     25  C   UNL     1       8.537   7.838  -0.018  0.00  0.00    +0.036 A 
ATOM     26  C   UNL     1       7.327   8.465   0.212  0.00  0.00    +0.010 A 
ATOM     27  C   UNL     1       6.200   7.939  -0.329  0.00  0.00    +0.047 A 
ATOM     28  S   UNL     1       6.839   6.518  -1.201  0.00  0.00    -0.077 S 
ENDBRANCH  21  24
ENDBRANCH  20  21
ENDBRANCH   7  16
TORSDOF 4
