REMARK  Name = ZINC39654508
REMARK  10 active torsions:
REMARK  status: ('A' for Active; 'I' for Inactive)
REMARK    1  A    between atoms: C_1  and  C_2
REMARK    2  A    between atoms: C_2  and  C_3
REMARK    3  A    between atoms: C_6  and  C_9
REMARK    4  A    between atoms: C_9  and  C_10
REMARK    5  A    between atoms: C_10  and  N_11
REMARK    6  A    between atoms: C_12  and  C_14
REMARK    7  A    between atoms: C_25  and  C_27
REMARK    8  A    between atoms: C_28  and  C_38
REMARK    9  A    between atoms: C_31  and  C_32
REMARK   10  A    between atoms: C_34  and  C_37
REMARK                            x       y       z     vdW  Elec       q    Type
REMARK                         _______ _______ _______ _____ _____    ______ ____
ROOT
ATOM      1  C   UNL     1     -10.222  -0.998   0.084  0.00  0.00    +0.100 C 
ATOM      2  C   UNL     1     -10.549  -1.692  -1.257  0.00  0.00    +0.121 C 
ATOM      3  N   UNL     1     -11.961  -1.334  -1.529  0.00  0.00    -0.296 N 
ATOM      4  C   UNL     1     -12.071   0.082  -1.104  0.00  0.00    +0.115 C 
ATOM      5  C   UNL     1     -11.222   0.166   0.180  0.00  0.00    -0.004 C 
ATOM      6  C   UNL     1     -10.480   1.498   0.235  0.00  0.00    -0.010 C 
ATOM      7  C   UNL     1     -11.493   2.636   0.390  0.00  0.00    -0.082 C 
ATOM      8  N   UNL     1     -12.272   2.436   1.618  0.00  0.00    +0.379 N 
ATOM      9  C   UNL     1     -13.056   1.199   1.518  0.00  0.00    -0.082 C 
ATOM     10  C   UNL     1     -12.109   0.000   1.411  0.00  0.00    -0.010 C 
ATOM     11  C   UNL     1     -12.927  -2.119  -2.047  0.00  0.00    +0.252 C 
ATOM     12  O   UNL     1     -14.047  -1.675  -2.212  0.00  0.00    -0.270 OA
ATOM     13  H   UNL     1     -11.645   2.373   2.406  0.00  0.00    -0.086 HD
ATOM     14  H   UNL     1     -12.896   3.218   1.749  0.00  0.00    -0.086 HD
ENDROOT
BRANCH  11  15
ATOM     15  C   UNL     1     -12.626  -3.514  -2.412  0.00  0.00    +0.108 A 
ATOM     16  C   UNL     1     -12.749  -4.648  -1.571  0.00  0.00    +0.093 A 
ATOM     17  N   UNL     1     -12.392  -5.696  -2.251  0.00  0.00    -0.082 NA
ATOM     18  O   UNL     1     -12.023  -5.293  -3.555  0.00  0.00    -0.352 OA
ATOM     19  C   UNL     1     -12.175  -3.962  -3.645  0.00  0.00    +0.201 A 
ATOM     20  C   UNL     1     -13.213  -4.639  -0.137  0.00  0.00    +0.070 C 
BRANCH  19  21
ATOM     21  C   UNL     1     -11.909  -3.128  -4.837  0.00  0.00    +0.152 A 
ATOM     22  C   UNL     1     -11.454  -3.592  -6.096  0.00  0.00    +0.079 A 
ATOM     23  C   UNL     1     -11.335  -2.530  -6.912  0.00  0.00    +0.135 A 
ATOM     24  O   UNL     1     -11.691  -1.431  -6.229  0.00  0.00    -0.359 OA
ATOM     25  N   UNL     1     -12.057  -1.826  -4.919  0.00  0.00    -0.075 NA
ATOM     26  C   UNL     1     -10.879  -2.567  -8.348  0.00  0.00    +0.089 C 
ENDBRANCH  19  21
ENDBRANCH  11  15
BRANCH   1  28
ATOM     27  N   UNL     1      -8.121  -0.367   1.228  0.00  0.00    -0.315 N 
ATOM     28  C   UNL     1      -8.808  -0.475   0.073  0.00  0.00    +0.218 C 
ATOM     29  O   UNL     1      -8.289  -0.152  -0.974  0.00  0.00    -0.275 OA
ATOM     30  H   UNL     1      -8.537  -0.625   2.065  0.00  0.00    +0.149 HD
BRANCH  27  31
ATOM     31  C   UNL     1      -6.747   0.141   1.217  0.00  0.00    +0.109 C 
BRANCH  31  32
ATOM     32  C   UNL     1      -6.201   0.163   2.646  0.00  0.00    +0.054 C 
BRANCH  32  36
ATOM     33  C   UNL     1      -2.194   1.644   2.618  0.00  0.00    -0.048 A 
ATOM     34  C   UNL     1      -3.254   2.520   2.762  0.00  0.00    +0.004 A 
ATOM     35  C   UNL     1      -4.550   2.041   2.771  0.00  0.00    +0.004 A 
ATOM     36  C   UNL     1      -4.787   0.685   2.635  0.00  0.00    -0.046 A 
ATOM     37  C   UNL     1      -3.728  -0.190   2.491  0.00  0.00    +0.004 A 
ATOM     38  C   UNL     1      -2.431   0.289   2.478  0.00  0.00    +0.004 A 
BRANCH  33  40
ATOM     39  C   UNL     1      -0.371   2.504   1.173  0.00  0.00    +0.009 C 
ATOM     40  C   UNL     1      -0.781   2.166   2.608  0.00  0.00    +0.032 C 
ENDBRANCH  33  40
ENDBRANCH  32  36
ENDBRANCH  31  32
ENDBRANCH  27  31
ENDBRANCH   1  28
TORSDOF 7
