REMARK  Name = ZINC04863197
REMARK  5 active torsions:
REMARK  status: ('A' for Active; 'I' for Inactive)
REMARK    1  A    between atoms: C_3  and  C_6
REMARK    2  A    between atoms: C_9  and  C_18
REMARK    3  A    between atoms: C_12  and  C_14
REMARK    4  A    between atoms: C_14  and  C_15
REMARK    5  A    between atoms: C_15  and  C_16
REMARK                            x       y       z     vdW  Elec       q    Type
REMARK                         _______ _______ _______ _____ _____    ______ ____
ROOT
ATOM      1  C   UNL     1      -3.454  -5.266   0.013  0.00  0.00    +0.172 C 
ATOM      2  C   UNL     1      -2.857  -6.688  -0.007  0.00  0.00    +0.090 C 
ATOM      3  C   UNL     1      -1.363  -6.455  -0.019  0.00  0.00    +0.069 C 
ATOM      4  N   UNL     1      -1.125  -5.189  -0.015  0.00  0.00    -0.181 NA
ATOM      5  N   UNL     1      -2.269  -4.394   0.000  0.00  0.00    -0.182 N 
ATOM      6  C   UNL     1      -2.287  -3.047   0.007  0.00  0.00    +0.236 C 
ATOM      7  O   UNL     1      -3.346  -2.454   0.021  0.00  0.00    -0.274 OA
ENDROOT
BRANCH   3   8
ATOM      8  C   UNL     1      -0.337  -7.514  -0.035  0.00  0.00    -0.002 A 
ATOM      9  C   UNL     1      -0.717  -8.859  -0.034  0.00  0.00    +0.011 A 
ATOM     10  C   UNL     1       0.248  -9.844  -0.055  0.00  0.00    +0.016 A 
ATOM     11  C   UNL     1       1.590  -9.504  -0.065  0.00  0.00    +0.018 A 
ATOM     12  C   UNL     1       1.973  -8.173  -0.061  0.00  0.00    +0.016 A 
ATOM     13  C   UNL     1       1.018  -7.178  -0.046  0.00  0.00    +0.011 A 
ATOM     14 BR   UNL     1       2.905 -10.862  -0.086  0.00  0.00    -0.050 Br
ENDBRANCH   3   8
BRANCH   1  17
ATOM     15  C   UNL     1      -6.012  -4.765  -2.593  0.00  0.00    +0.041 A 
ATOM     16  C   UNL     1      -5.643  -5.020  -1.252  0.00  0.00    +0.046 A 
ATOM     17  C   UNL     1      -4.298  -5.032  -1.214  0.00  0.00    +0.128 A 
ATOM     18  O   UNL     1      -3.836  -4.793  -2.452  0.00  0.00    -0.466 OA
ATOM     19  C   UNL     1      -4.870  -4.636  -3.294  0.00  0.00    +0.195 A 
ENDBRANCH   1  17
BRANCH   6  20
ATOM     20  C   UNL     1      -0.993  -2.276  -0.001  0.00  0.00    +0.109 C 
BRANCH  20  21
ATOM     21  C   UNL     1      -1.293  -0.775   0.010  0.00  0.00    +0.134 C 
BRANCH  21  22
ATOM     22  C   UNL     1       0.002  -0.004   0.002  0.00  0.00    +0.356 C 
ATOM     23  O   UNL     1       1.056  -0.594  -0.011  0.00  0.00    -0.246 OA
ATOM     24  O   UNL     1      -0.016   1.338   0.009  0.00  0.00    -0.246 OA
ENDBRANCH  21  22
ENDBRANCH  20  21
ENDBRANCH   6  20
TORSDOF 5
