REMARK  Name = ZINC12932646
REMARK  10 active torsions:
REMARK  status: ('A' for Active; 'I' for Inactive)
REMARK    1  A    between atoms: C_1  and  C_2
REMARK    2  A    between atoms: C_2  and  C_4
REMARK    3  A    between atoms: C_2  and  N_9
REMARK    4  A    between atoms: N_9  and  C_10
REMARK    5  A    between atoms: C_10  and  C_11
REMARK    6  A    between atoms: C_14  and  C_31
REMARK    7  A    between atoms: C_16  and  O_30
REMARK    8  A    between atoms: C_18  and  C_20
REMARK    9  A    between atoms: C_34  and  O_37
REMARK   10  A    between atoms: O_37  and  C_38
REMARK                            x       y       z     vdW  Elec       q    Type
REMARK                         _______ _______ _______ _____ _____    ______ ____
ROOT
ATOM      1  C   UNL     1       0.572  -1.074   3.547  0.00  0.00    +0.249 C 
ATOM      2  O   UNL     1       1.752  -1.338   3.448  0.00  0.00    -0.272 OA
ATOM      3  N   UNL     1      -0.057  -1.229   4.729  0.00  0.00    -0.181 N 
ATOM      4  C   UNL     1       0.567  -1.703   5.974  0.00  0.00    +0.165 C 
ATOM      5  C   UNL     1      -0.593  -1.687   6.989  0.00  0.00    +0.192 C 
ATOM      6  C   UNL     1      -1.774  -1.193   6.185  0.00  0.00    +0.099 C 
ATOM      7  N   UNL     1      -1.403  -0.962   4.972  0.00  0.00    -0.178 NA
ENDROOT
BRANCH   6   8
ATOM      8  C   UNL     1      -3.137  -1.001   6.707  0.00  0.00    +0.025 A 
ATOM      9  C   UNL     1      -3.558  -1.223   7.981  0.00  0.00    +0.093 A 
ATOM     10  N   UNL     1      -4.886  -0.932   8.084  0.00  0.00    -0.360 N 
ATOM     11  H   UNL     1      -5.410  -1.013   8.896  0.00  0.00    +0.165 HD
ATOM     12  C   UNL     1      -5.377  -0.506   6.867  0.00  0.00    +0.047 A 
ATOM     13  C   UNL     1      -4.310  -0.522   5.954  0.00  0.00    +0.009 A 
ATOM     14  C   UNL     1      -4.516  -0.130   4.633  0.00  0.00    +0.010 A 
ATOM     15  C   UNL     1      -5.769   0.277   4.230  0.00  0.00    +0.001 A 
ATOM     16  C   UNL     1      -6.822   0.297   5.133  0.00  0.00    +0.002 A 
ATOM     17  C   UNL     1      -6.635  -0.097   6.440  0.00  0.00    +0.026 A 
ENDBRANCH   6   8
BRANCH   4  18
ATOM     18  C   UNL     1       1.666  -0.767   6.406  0.00  0.00    -0.022 A 
ATOM     19  C   UNL     1       1.507   0.599   6.260  0.00  0.00    +0.009 A 
ATOM     20  C   UNL     1       2.514   1.458   6.654  0.00  0.00    +0.046 A 
ATOM     21  C   UNL     1       3.685   0.951   7.198  0.00  0.00    +0.120 A 
ATOM     22  C   UNL     1       3.842  -0.420   7.344  0.00  0.00    +0.046 A 
ATOM     23  C   UNL     1       2.830  -1.275   6.953  0.00  0.00    +0.009 A 
BRANCH  21  24
ATOM     24  O   UNL     1       4.677   1.795   7.586  0.00  0.00    -0.495 OA
ATOM     25  C   UNL     1       5.854   1.202   8.137  0.00  0.00    +0.277 C 
ENDBRANCH  21  24
ENDBRANCH   4  18
BRANCH   5  26
ATOM     26  O   UNL     1      -0.839  -3.002   7.491  0.00  0.00    -0.383 OA
ATOM     27  H   UNL     1      -1.560  -3.050   8.134  0.00  0.00    +0.210 HD
ENDBRANCH   5  26
BRANCH   1  28
ATOM     28  C   UNL     1      -0.191  -0.572   2.348  0.00  0.00    +0.180 C 
BRANCH  28  29
ATOM     29  N   UNL     1       0.713  -0.491   1.192  0.00  0.00    -0.301 NA
ATOM     30  H   UNL     1       1.151  -1.381   1.012  0.00  0.00    +0.123 HD
BRANCH  29  32
ATOM     31  C   UNL     1      -0.019   1.526   0.010  0.00  0.00    +0.029 C 
ATOM     32  C   UNL     1       0.002  -0.004   0.002  0.00  0.00    +0.088 C 
BRANCH  32  33
ATOM     33  C   UNL     1       0.707  -0.490  -1.238  0.00  0.00    +0.006 A 
ATOM     34  C   UNL     1       0.176  -0.943  -2.400  0.00  0.00    +0.013 A 
ATOM     35  C   UNL     1       1.026  -1.340  -3.415  0.00  0.00    +0.008 A 
ATOM     36  C   UNL     1       2.365  -1.266  -3.219  0.00  0.00    +0.045 A 
ATOM     37  S   UNL     1       2.459  -0.612  -1.560  0.00  0.00    -0.100 S 
ENDBRANCH  32  33
ENDBRANCH  29  32
ENDBRANCH  28  29
ENDBRANCH   1  28
TORSDOF 8
