REMARK  Name = ZINC01456274
REMARK  12 active torsions:
REMARK  status: ('A' for Active; 'I' for Inactive)
REMARK    1  A    between atoms: C_1  and  C_2
REMARK    2  A    between atoms: C_3  and  C_32
REMARK    3  A    between atoms: C_4  and  C_20
REMARK    4  A    between atoms: C_10  and  C_15
REMARK    5  A    between atoms: C_22  and  O_30
REMARK    6  A    between atoms: C_23  and  O_28
REMARK    7  A    between atoms: C_24  and  O_26
REMARK    8  A    between atoms: O_26  and  C_27
REMARK    9  A    between atoms: O_28  and  C_29
REMARK   10  A    between atoms: O_30  and  C_31
REMARK   11  A    between atoms: C_32  and  O_34
REMARK   12  A    between atoms: O_34  and  C_35
REMARK                            x       y       z     vdW  Elec       q    Type
REMARK                         _______ _______ _______ _____ _____    ______ ____
ROOT
ATOM      1  C   UNL     1      -1.189  -3.743   2.485  0.00  0.00    +0.061 C 
ATOM      2  C   UNL     1      -1.121  -2.934   1.216  0.00  0.00    +0.016 C 
ATOM      3  C   UNL     1      -1.361  -1.612   1.253  0.00  0.00    +0.065 C 
ATOM      4  C   UNL     1      -1.294  -0.773   0.010  0.00  0.00    +0.092 C 
ATOM      5  C   UNL     1      -1.368  -1.632  -1.227  0.00  0.00    +0.024 C 
ATOM      6  C   UNL     1      -1.129  -2.959  -1.161  0.00  0.00    +0.016 C 
ATOM      7  N   UNL     1      -0.816  -3.550   0.034  0.00  0.00    -0.321 N 
ATOM      8  C   UNL     1      -1.204  -3.825  -2.394  0.00  0.00    +0.060 C 
ATOM      9  C   UNL     1      -0.814  -3.002  -3.624  0.00  0.00    +0.039 C 
ATOM     10  C   UNL     1      -1.761  -1.802  -3.727  0.00  0.00    +0.088 C 
ATOM     11  C   UNL     1      -1.690  -1.012  -2.448  0.00  0.00    +0.162 C 
ATOM     12  O   UNL     1      -1.914   0.182  -2.470  0.00  0.00    -0.292 OA
ATOM     13  H   UNL     1      -0.315  -4.529   0.036  0.00  0.00    +0.152 HD
ENDROOT
BRANCH   4  14
ATOM     14  C   UNL     1       0.002  -0.004   0.002  0.00  0.00    -0.028 A 
ATOM     15  C   UNL     1      -0.017   1.378   0.010  0.00  0.00    +0.054 A 
ATOM     16  C   UNL     1       1.173   2.090   0.002  0.00  0.00    +0.165 A 
ATOM     17  C   UNL     1       2.386   1.411  -0.014  0.00  0.00    +0.204 A 
ATOM     18  C   UNL     1       2.401   0.021  -0.021  0.00  0.00    +0.165 A 
ATOM     19  C   UNL     1       1.206  -0.683  -0.013  0.00  0.00    +0.054 A 
BRANCH  18  20
ATOM     20  O   UNL     1       3.585  -0.647  -0.035  0.00  0.00    -0.491 OA
ATOM     21  C   UNL     1       3.524  -2.075  -0.042  0.00  0.00    +0.277 C 
ENDBRANCH  18  20
BRANCH  17  22
ATOM     22  O   UNL     1       3.557   2.106  -0.021  0.00  0.00    -0.488 OA
ATOM     23  C   UNL     1       4.103   2.443  -1.298  0.00  0.00    +0.277 C 
ENDBRANCH  17  22
BRANCH  16  24
ATOM     24  O   UNL     1       1.154   3.449   0.010  0.00  0.00    -0.491 OA
ATOM     25  C   UNL     1      -0.128   4.080   0.025  0.00  0.00    +0.277 C 
ENDBRANCH  16  24
ENDBRANCH   4  14
BRANCH   9  26
ATOM     26  C   UNL     1      -0.938  -3.852  -4.863  0.00  0.00    -0.006 A 
ATOM     27  C   UNL     1       0.016  -4.194  -5.763  0.00  0.00    +0.011 A 
ATOM     28  C   UNL     1      -0.331  -4.994  -6.835  0.00  0.00    +0.008 A 
ATOM     29  C   UNL     1      -1.614  -5.413  -6.955  0.00  0.00    +0.045 A 
ATOM     30  S   UNL     1      -2.379  -4.676  -5.520  0.00  0.00    -0.101 S 
ENDBRANCH   9  26
BRANCH   3  31
ATOM     31  C   UNL     1      -1.683  -1.000   2.486  0.00  0.00    +0.338 C 
ATOM     32  O   UNL     1      -1.740  -1.669   3.501  0.00  0.00    -0.245 OA
BRANCH  31  33
ATOM     33  O   UNL     1      -1.926   0.327   2.538  0.00  0.00    -0.458 OA
BRANCH  33  34
ATOM     34  C   UNL     1      -2.245   0.878   3.818  0.00  0.00    +0.177 C 
ATOM     35  C   UNL     1      -3.774   0.899   4.018  0.00  0.00    +0.044 C 
ATOM     36  C   UNL     1      -4.039   2.218   4.785  0.00  0.00    +0.004 C 
ATOM     37  C   UNL     1      -3.030   3.198   4.138  0.00  0.00    +0.004 C 
ATOM     38  C   UNL     1      -1.772   2.340   3.894  0.00  0.00    +0.044 C 
ENDBRANCH  33  34
ENDBRANCH  31  33
ENDBRANCH   3  31
TORSDOF 8
