REMARK  Name = ZINC28287368
REMARK  8 active torsions:
REMARK  status: ('A' for Active; 'I' for Inactive)
REMARK    1  A    between atoms: C_1  and  C_2
REMARK    2  A    between atoms: C_5  and  C_30
REMARK    3  A    between atoms: C_6  and  C_12
REMARK    4  A    between atoms: C_10  and  C_11
REMARK    5  A    between atoms: N_14  and  C_15
REMARK    6  A    between atoms: C_15  and  C_16
REMARK    7  A    between atoms: C_16  and  C_18
REMARK    8  A    between atoms: C_16  and  N_25
REMARK                            x       y       z     vdW  Elec       q    Type
REMARK                         _______ _______ _______ _____ _____    ______ ____
ROOT
ATOM      1  C   UNL     1       0.250   1.303   2.333  0.00  0.00    +0.280 C 
ATOM      2  O   UNL     1       1.346   0.776   2.299  0.00  0.00    -0.267 OA
ATOM      3  N   UNL     1      -0.429   1.522   1.189  0.00  0.00    -0.310 N 
ATOM      4  H   UNL     1      -1.420   1.998   1.220  0.00  0.00    +0.149 HD
ENDROOT
BRANCH   1  10
ATOM      5  C   UNL     1      -1.719   2.893   9.351  0.00  0.00    +0.044 C 
ATOM      6  C   UNL     1      -1.732   2.761   7.850  0.00  0.00    -0.047 A 
ATOM      7  C   UNL     1      -0.667   2.192   7.210  0.00  0.00    +0.015 A 
ATOM      8  C   UNL     1      -0.682   2.070   5.818  0.00  0.00    +0.024 A 
ATOM      9  C   UNL     1       0.255   1.531   4.833  0.00  0.00    +0.008 A 
ATOM     10  C   UNL     1      -0.335   1.701   3.621  0.00  0.00    +0.193 A 
ATOM     11  O   UNL     1      -1.536   2.296   3.778  0.00  0.00    -0.450 OA
ATOM     12  C   UNL     1      -1.789   2.530   5.081  0.00  0.00    +0.136 A 
ATOM     13  C   UNL     1      -2.860   3.105   5.755  0.00  0.00    +0.050 A 
ATOM     14  C   UNL     1      -2.826   3.216   7.128  0.00  0.00    -0.044 A 
ATOM     15  C   UNL     1      -3.991   3.840   7.854  0.00  0.00    +0.044 C 
ATOM     16  C   UNL     1       1.602   0.913   5.106  0.00  0.00    +0.048 C 
ENDBRANCH   1  10
BRANCH   3  17
ATOM     17  C   UNL     1       0.154   1.125  -0.096  0.00  0.00    +0.094 C 
BRANCH  17  18
ATOM     18  C   UNL     1      -0.864   1.363  -1.213  0.00  0.00    -0.019 C 
BRANCH  18  19
ATOM     19  C   UNL     1      -2.048   0.452  -1.016  0.00  0.00    -0.041 A 
ATOM     20  C   UNL     1      -3.205   0.937  -0.435  0.00  0.00    +0.003 A 
ATOM     21  C   UNL     1      -4.293   0.103  -0.259  0.00  0.00    +0.000 A 
ATOM     22  C   UNL     1      -4.221  -1.220  -0.654  0.00  0.00    +0.001 A 
ATOM     23  C   UNL     1      -3.064  -1.708  -1.230  0.00  0.00    +0.020 A 
ATOM     24  C   UNL     1      -1.976  -0.872  -1.411  0.00  0.00    +0.043 A 
ATOM     25 CL   UNL     1      -0.521  -1.484  -2.134  0.00  0.00    -0.083 Cl
ENDBRANCH  18  19
BRANCH  18  26
ATOM     26  N   UNL     1      -1.311   2.762  -1.177  0.00  0.00    +0.385 N 
ATOM     27  C   UNL     1      -0.155   3.692  -1.239  0.00  0.00    -0.078 C 
ATOM     28  C   UNL     1      -0.794   5.020  -1.717  0.00  0.00    -0.020 C 
ATOM     29  C   UNL     1      -1.862   4.546  -2.729  0.00  0.00    -0.020 C 
ATOM     30  C   UNL     1      -2.149   3.080  -2.354  0.00  0.00    -0.078 C 
ATOM     31  H   UNL     1      -1.875   2.872  -0.239  0.00  0.00    -0.081 HD
ENDBRANCH  18  26
ENDBRANCH  17  18
ENDBRANCH   3  17
TORSDOF 5
