REMARK  Name = ZINC05490407
REMARK  7 active torsions:
REMARK  status: ('A' for Active; 'I' for Inactive)
REMARK    1  A    between atoms: C_1  and  C_2
REMARK    2  A    between atoms: C_4  and  C_8
REMARK    3  A    between atoms: C_5  and  C_7
REMARK    4  A    between atoms: C_15  and  N_28
REMARK    5  A    between atoms: C_16  and  C_26
REMARK    6  A    between atoms: C_17  and  C_19
REMARK    7  A    between atoms: C_23  and  O_25
REMARK                            x       y       z     vdW  Elec       q    Type
REMARK                         _______ _______ _______ _____ _____    ______ ____
ROOT
ATOM      1  C   UNL     1      -1.893  -3.214  -0.007  0.00  0.00    +0.074 A 
ATOM      2  C   UNL     1      -2.190  -4.093   0.980  0.00  0.00    +0.054 A 
ATOM      3  C   UNL     1      -3.317  -4.836   0.579  0.00  0.00    +0.245 A 
ATOM      4  N   UNL     1      -3.684  -4.420  -0.600  0.00  0.00    -0.135 NA
ATOM      5  N   UNL     1      -2.813  -3.395  -1.001  0.00  0.00    -0.273 N 
ATOM      6  H   UNL     1      -2.856  -2.904  -1.836  0.00  0.00    +0.189 HD
ATOM      7  O   UNL     1      -3.857  -5.807   1.365  0.00  0.00    -0.421 OA
ATOM      8  C   UNL     1      -3.130  -6.229   2.418  0.00  0.00    +0.201 C 
ATOM      9  C   UNL     1      -2.040  -5.595   2.899  0.00  0.00    +0.098 C 
ATOM     10  C   UNL     1      -1.506  -4.316   2.304  0.00  0.00    +0.102 C 
ENDROOT
BRANCH   1  14
ATOM     11  C   UNL     1      -0.018   1.503   0.010  0.00  0.00    +0.051 C 
ATOM     12  C   UNL     1       0.002  -0.004   0.002  0.00  0.00    -0.012 A 
ATOM     13  C   UNL     1      -1.039  -0.866   0.002  0.00  0.00    +0.021 A 
ATOM     14  C   UNL     1      -0.782  -2.235  -0.007  0.00  0.00    +0.010 A 
ATOM     15  C   UNL     1       0.520  -2.654  -0.015  0.00  0.00    -0.004 A 
ATOM     16  S   UNL     1       1.407  -1.105  -0.018  0.00  0.00    -0.098 S 
ATOM     17  C   UNL     1       1.065  -4.059  -0.026  0.00  0.00    +0.052 C 
ENDBRANCH   1  14
BRANCH  10  18
ATOM     18  C   UNL     1      -1.800  -3.164   3.230  0.00  0.00    -0.031 A 
ATOM     19  C   UNL     1      -3.106  -2.876   3.582  0.00  0.00    +0.005 A 
ATOM     20  C   UNL     1      -3.378  -1.820   4.431  0.00  0.00    +0.004 A 
ATOM     21  C   UNL     1      -2.346  -1.048   4.929  0.00  0.00    +0.045 A 
ATOM     22  C   UNL     1      -1.036  -1.334   4.577  0.00  0.00    +0.117 A 
ATOM     23  C   UNL     1      -0.764  -2.399   3.730  0.00  0.00    +0.050 A 
BRANCH  22  24
ATOM     24  O   UNL     1      -0.019  -0.577   5.066  0.00  0.00    -0.507 OA
ATOM     25  H   UNL     1       0.344  -0.898   5.903  0.00  0.00    +0.292 HD
ENDBRANCH  22  24
ENDBRANCH  10  18
BRANCH   8  26
ATOM     26  N   UNL     1      -3.524  -7.385   3.044  0.00  0.00    -0.328 N 
ATOM     27  H   UNL     1      -4.303  -7.868   2.726  0.00  0.00    +0.145 HD
ATOM     28  H   UNL     1      -3.024  -7.719   3.805  0.00  0.00    +0.145 HD
ENDBRANCH   8  26
BRANCH   9  29
ATOM     29  C   UNL     1      -1.360  -6.162   4.024  0.00  0.00    +0.101 C 
ATOM     30  N   UNL     1      -0.821  -6.612   4.918  0.00  0.00    -0.191 NA
ENDBRANCH   9  29
TORSDOF 5
