REMARK  Name = ZINC67180076
REMARK  10 active torsions:
REMARK  status: ('A' for Active; 'I' for Inactive)
REMARK    1  A    between atoms: C_1  and  N_2
REMARK    2  A    between atoms: N_2  and  C_3
REMARK    3  A    between atoms: N_2  and  C_4
REMARK    4  A    between atoms: C_4  and  C_6
REMARK    5  A    between atoms: C_4  and  C_27
REMARK    6  A    between atoms: C_6  and  N_7
REMARK    7  A    between atoms: C_8  and  C_10
REMARK    8  A    between atoms: C_10  and  C_12
REMARK    9  A    between atoms: C_10  and  N_18
REMARK   10  A    between atoms: C_19  and  C_21
REMARK                            x       y       z     vdW  Elec       q    Type
REMARK                         _______ _______ _______ _____ _____    ______ ____
ROOT
ATOM      1  C   UNL     1       1.604  -4.654  -0.552  0.00  0.00    +0.190 C 
ENDROOT
BRANCH   1   2
ATOM      2  C   UNL     1       0.774  -4.386  -1.781  0.00  0.00    -0.018 A 
ATOM      3  C   UNL     1      -0.444  -5.020  -1.944  0.00  0.00    +0.006 A 
ATOM      4  C   UNL     1      -1.205  -4.774  -3.072  0.00  0.00    +0.000 A 
ATOM      5  C   UNL     1      -0.749  -3.893  -4.035  0.00  0.00    +0.000 A 
ATOM      6  C   UNL     1       0.468  -3.259  -3.871  0.00  0.00    +0.000 A 
ATOM      7  C   UNL     1       1.227  -3.502  -2.742  0.00  0.00    +0.006 A 
ENDBRANCH   1   2
BRANCH   1   9
ATOM      8  N   UNL     1       1.024  -2.505   0.526  0.00  0.00    -0.315 N 
ATOM      9  C   UNL     1       1.066  -3.849   0.603  0.00  0.00    +0.238 C 
ATOM     10  O   UNL     1       0.671  -4.412   1.602  0.00  0.00    -0.273 OA
ATOM     11  H   UNL     1       1.339  -2.054  -0.273  0.00  0.00    +0.149 HD
BRANCH   8  12
ATOM     12  C   UNL     1       0.500  -1.723   1.649  0.00  0.00    +0.096 C 
BRANCH  12  13
ATOM     13  C   UNL     1       0.682  -0.231   1.360  0.00  0.00    +0.016 C 
BRANCH  13  14
ATOM     14  C   UNL     1      -0.174   0.160   0.182  0.00  0.00    +0.093 A 
ATOM     15  C   UNL     1      -1.368   0.775   0.247  0.00  0.00    +0.043 A 
ATOM     16  C   UNL     1      -1.813   0.949  -1.083  0.00  0.00    +0.041 A 
ATOM     17  C   UNL     1      -0.863   0.430  -1.882  0.00  0.00    +0.195 A 
ATOM     18  O   UNL     1       0.130  -0.042  -1.110  0.00  0.00    -0.469 OA
ENDBRANCH  13  14
BRANCH  13  20
ATOM     19  C   UNL     1       2.264   1.471   0.765  0.00  0.00    -0.096 C 
ATOM     20  N   UNL     1       2.092   0.040   1.052  0.00  0.00    +0.384 N 
ATOM     21  C   UNL     1       2.925  -0.332   2.203  0.00  0.00    -0.096 C 
ATOM     22  H   UNL     1       2.370  -0.500   0.247  0.00  0.00    -0.082 HD
ENDBRANCH  13  20
ENDBRANCH  12  13
ENDBRANCH   8  12
ENDBRANCH   1   9
BRANCH   1  23
ATOM     23  N   UNL     1       1.543  -6.080  -0.224  0.00  0.00    -0.296 N 
ATOM     24  C   UNL     1       2.385  -6.946  -0.823  0.00  0.00    +0.245 C 
ATOM     25  O   UNL     1       3.193  -6.543  -1.636  0.00  0.00    -0.270 OA
ATOM     26  H   UNL     1       0.898  -6.402   0.425  0.00  0.00    +0.150 HD
BRANCH  24  27
ATOM     27  C   UNL     1       2.324  -8.386  -0.492  0.00  0.00    +0.037 A 
ATOM     28  C   UNL     1       1.392  -8.852   0.437  0.00  0.00    +0.013 A 
ATOM     29  C   UNL     1       1.340 -10.197   0.741  0.00  0.00    +0.001 A 
ATOM     30  C   UNL     1       2.209 -11.082   0.128  0.00  0.00    +0.000 A 
ATOM     31  C   UNL     1       3.135 -10.626  -0.793  0.00  0.00    +0.001 A 
ATOM     32  C   UNL     1       3.193  -9.285  -1.111  0.00  0.00    +0.013 A 
ENDBRANCH  24  27
ENDBRANCH   1  23
TORSDOF 8
