REMARK  Name = ZINC15033211
REMARK  9 active torsions:
REMARK  status: ('A' for Active; 'I' for Inactive)
REMARK    1  A    between atoms: C_1  and  C_2
REMARK    2  A    between atoms: C_5  and  C_8
REMARK    3  A    between atoms: C_9  and  C_36
REMARK    4  A    between atoms: C_17  and  C_19
REMARK    5  A    between atoms: C_19  and  N_20
REMARK    6  A    between atoms: C_28  and  C_35
REMARK    7  A    between atoms: C_30  and  C_32
REMARK    8  A    between atoms: C_32  and  C_33
REMARK    9  A    between atoms: C_32  and  C_34
REMARK                            x       y       z     vdW  Elec       q    Type
REMARK                         _______ _______ _______ _____ _____    ______ ____
ROOT
ATOM      1  C   UNL     1       9.187  -2.319  -6.139  0.00  0.00    +0.007 A 
ATOM      2  C   UNL     1       8.470  -1.476  -6.921  0.00  0.00    -0.003 A 
ATOM      3  S   UNL     1       7.036  -1.111  -5.928  0.00  0.00    -0.073 S 
ATOM      4  C   UNL     1       7.427  -2.089  -4.501  0.00  0.00    +0.116 A 
ATOM      5  C   UNL     1       8.661  -2.675  -4.827  0.00  0.00    +0.080 A 
ATOM      6  C   UNL     1       9.222  -3.535  -3.829  0.00  0.00    +0.260 A 
ATOM      7  O   UNL     1      10.291  -4.090  -4.020  0.00  0.00    -0.267 OA
ATOM      8  N   UNL     1       8.555  -3.717  -2.675  0.00  0.00    -0.309 N 
ATOM      9  H   UNL     1       8.975  -4.367  -1.893  0.00  0.00    +0.170 HD
ATOM     10  C   UNL     1       7.361  -3.111  -2.447  0.00  0.00    +0.125 A 
ATOM     11  N   UNL     1       6.824  -2.321  -3.338  0.00  0.00    -0.225 NA
ATOM     12  C   UNL     1       8.806  -0.968  -8.300  0.00  0.00    +0.052 C 
ENDROOT
BRANCH   1  17
ATOM     13  C   UNL     1      14.214  -4.454  -7.963  0.00  0.00    +0.044 C 
ATOM     14  C   UNL     1      12.898  -3.896  -7.486  0.00  0.00    -0.050 A 
ATOM     15  C   UNL     1      12.767  -2.536  -7.265  0.00  0.00    +0.004 A 
ATOM     16  C   UNL     1      11.564  -2.019  -6.828  0.00  0.00    +0.009 A 
ATOM     17  C   UNL     1      10.481  -2.869  -6.609  0.00  0.00    -0.016 A 
ATOM     18  C   UNL     1      10.621  -4.238  -6.828  0.00  0.00    +0.009 A 
ATOM     19  C   UNL     1      11.827  -4.744  -7.269  0.00  0.00    +0.004 A 
ENDBRANCH   1  17
BRANCH  10  20
ATOM     20  C   UNL     1       6.647  -3.348  -1.141  0.00  0.00    +0.158 C 
BRANCH  20  21
ATOM     21  N   UNL     1       5.391  -2.587  -1.125  0.00  0.00    -0.292 NA
ATOM     22  C   UNL     1       4.556  -2.974   0.021  0.00  0.00    +0.104 C 
ATOM     23  C   UNL     1       3.226  -2.218  -0.042  0.00  0.00    +0.122 C 
ATOM     24  N   UNL     1       3.487  -0.772  -0.036  0.00  0.00    -0.313 N 
ATOM     25  C   UNL     1       4.322  -0.386  -1.182  0.00  0.00    +0.122 C 
ATOM     26  C   UNL     1       5.651  -1.141  -1.119  0.00  0.00    +0.104 C 
ATOM     27  C   UNL     1       2.302  -0.054  -0.020  0.00  0.00    +0.125 A 
ATOM     28  C   UNL     1       2.318   1.342  -0.013  0.00  0.00    +0.064 A 
ATOM     29  C   UNL     1       1.111   2.012   0.002  0.00  0.00    +0.017 A 
ATOM     30  N   UNL     1      -0.016   1.313   0.009  0.00  0.00    -0.347 N 
ATOM     31  C   UNL     1       0.002  -0.004   0.002  0.00  0.00    +0.112 A 
ATOM     32  N   UNL     1       1.131  -0.684  -0.012  0.00  0.00    -0.219 NA
ATOM     33  C   UNL     1       1.075   3.518   0.010  0.00  0.00    +0.063 C 
ATOM     34  H   UNL     1      -0.985   1.833   0.021  0.00  0.00    +0.167 HD
BRANCH  31  35
ATOM     35  C   UNL     1      -1.305  -0.754   0.010  0.00  0.00    +0.049 C 
ATOM     36  C   UNL     1      -2.095  -0.390   1.268  0.00  0.00    +0.015 C 
ATOM     37  C   UNL     1      -2.118  -0.376  -1.230  0.00  0.00    +0.015 C 
ENDBRANCH  31  35
ENDBRANCH  20  21
ENDBRANCH  10  20
TORSDOF 4
