REMARK  Name = ZINC12587046
REMARK  4 active torsions:
REMARK  status: ('A' for Active; 'I' for Inactive)
REMARK    1  A    between atoms: N_4  and  C_15
REMARK    2  A    between atoms: C_5  and  N_6
REMARK    3  A    between atoms: C_7  and  C_9
REMARK    4  A    between atoms: C_21  and  C_23
REMARK                            x       y       z     vdW  Elec       q    Type
REMARK                         _______ _______ _______ _____ _____    ______ ____
ROOT
ATOM      1  C   UNL     1      -6.449   3.511  -3.248  0.00  0.00    +0.065 A 
ATOM      2  C   UNL     1      -5.498   3.054  -4.164  0.00  0.00    +0.136 A 
ATOM      3  N   UNL     1      -4.431   2.688  -3.501  0.00  0.00    -0.178 NA
ATOM      4  N   UNL     1      -4.668   2.892  -2.135  0.00  0.00    -0.247 N 
ATOM      5  C   UNL     1      -5.914   3.401  -2.001  0.00  0.00    +0.123 A 
ENDROOT
BRANCH   4   6
ATOM      6  C   UNL     1      -3.731   2.608  -1.046  0.00  0.00    +0.112 C 
ATOM      7  C   UNL     1      -3.382   1.119  -1.048  0.00  0.00    +0.046 C 
ATOM      8  C   UNL     1      -2.429   0.820   0.114  0.00  0.00    +0.110 C 
ATOM      9  N   UNL     1      -1.266   1.712   0.013  0.00  0.00    -0.298 N 
ATOM     10  C   UNL     1      -1.493   3.161  -0.077  0.00  0.00    +0.110 C 
ATOM     11  C   UNL     1      -2.457   3.433  -1.242  0.00  0.00    +0.046 C 
ATOM     12  C   UNL     1      -0.014   1.212   0.009  0.00  0.00    +0.242 C 
ATOM     13  O   UNL     1       0.159   0.008  -0.007  0.00  0.00    -0.270 OA
BRANCH  12  14
ATOM     14  C   UNL     1       1.141   2.122   0.017  0.00  0.00    +0.011 C 
ATOM     15  C   UNL     1       1.448   2.724   1.145  0.00  0.00    -0.018 C 
ATOM     16  C   UNL     1       2.593   3.683   1.295  0.00  0.00    +0.027 C 
ATOM     17  C   UNL     1       3.567   3.528   0.125  0.00  0.00    +0.004 C 
ATOM     18  C   UNL     1       2.767   3.569  -1.183  0.00  0.00    +0.005 C 
ATOM     19  C   UNL     1       1.907   2.304  -1.262  0.00  0.00    +0.040 C 
ENDBRANCH  12  14
ENDBRANCH   4   6
BRANCH   5  20
ATOM     20  N   UNL     1      -6.537   3.750  -0.803  0.00  0.00    -0.270 N 
ATOM     21  C   UNL     1      -7.789   4.250  -0.815  0.00  0.00    +0.224 C 
ATOM     22  O   UNL     1      -8.373   4.396  -1.868  0.00  0.00    -0.275 OA
ATOM     23  H   UNL     1      -6.070   3.633   0.038  0.00  0.00    +0.156 HD
BRANCH  21  24
ATOM     24  C   UNL     1      -8.462   4.627   0.479  0.00  0.00    +0.103 C 
ATOM     25  C   UNL     1      -9.882   5.173   0.211  0.00  0.00    +0.043 C 
ATOM     26  C   UNL     1      -9.836   6.620   0.750  0.00  0.00    +0.160 C 
ATOM     27  O   UNL     1      -8.439   6.985   0.709  0.00  0.00    -0.379 OA
ATOM     28  C   UNL     1      -7.726   5.809   1.148  0.00  0.00    +0.172 C 
ENDBRANCH  21  24
ENDBRANCH   5  20
TORSDOF 4
