REMARK  Name = ZINC20530369
REMARK  7 active torsions:
REMARK  status: ('A' for Active; 'I' for Inactive)
REMARK    1  A    between atoms: C_4  and  C_7
REMARK    2  A    between atoms: C_10  and  C_13
REMARK    3  A    between atoms: C_13  and  C_15
REMARK    4  A    between atoms: C_15  and  O_16
REMARK    5  A    between atoms: O_16  and  C_17
REMARK    6  A    between atoms: C_17  and  C_19
REMARK    7  A    between atoms: C_32  and  C_35
REMARK                            x       y       z     vdW  Elec       q    Type
REMARK                         _______ _______ _______ _____ _____    ______ ____
ROOT
ATOM      1  C   UNL     1       1.252   1.965   0.001  0.00  0.00    +0.059 A 
ATOM      2  C   UNL     1       1.233   3.364   0.003  0.00  0.00    +0.017 A 
ATOM      3  C   UNL     1       2.410   4.056   0.002  0.00  0.00    +0.024 A 
ATOM      4  C   UNL     1       3.626   3.376  -0.015  0.00  0.00    +0.031 A 
ATOM      5  C   UNL     1       3.662   1.987  -0.023  0.00  0.00    -0.019 A 
ATOM      6  C   UNL     1       2.470   1.284  -0.015  0.00  0.00    +0.021 A 
ATOM      7  C   UNL     1       4.946   1.219  -0.041  0.00  0.00    +0.049 C 
ATOM      8  C   UNL     1       5.217   0.633  -1.407  0.00  0.00    -0.023 C 
ATOM      9  C   UNL     1       6.501   0.668  -1.668  0.00  0.00    -0.030 C 
ATOM     10  C   UNL     1       7.263   1.278  -0.507  0.00  0.00    +0.033 C 
ATOM     11  C   UNL     1       6.177   2.101   0.245  0.00  0.00    +0.029 C 
ATOM     12  C   UNL     1       6.037   3.442  -0.482  0.00  0.00    +0.105 C 
ATOM     13  N   UNL     1       4.812   4.106  -0.024  0.00  0.00    -0.336 N 
ATOM     14  H   UNL     1       4.845   5.156   0.301  0.00  0.00    +0.147 HD
ENDROOT
BRANCH  12  15
ATOM     15  C   UNL     1       7.229   4.311  -0.171  0.00  0.00    -0.027 A 
ATOM     16  C   UNL     1       7.282   5.009   1.021  0.00  0.00    +0.007 A 
ATOM     17  C   UNL     1       8.377   5.801   1.309  0.00  0.00    +0.020 A 
ATOM     18  C   UNL     1       9.415   5.905   0.399  0.00  0.00    +0.041 A 
ATOM     19  C   UNL     1       9.357   5.210  -0.796  0.00  0.00    +0.020 A 
ATOM     20  C   UNL     1       8.264   4.414  -1.081  0.00  0.00    +0.007 A 
ATOM     21 CL   UNL     1      10.787   6.906   0.757  0.00  0.00    -0.084 Cl
ENDBRANCH  12  15
BRANCH   1  22
ATOM     22  C   UNL     1      -0.014   1.211   0.009  0.00  0.00    +0.340 C 
ATOM     23  O   UNL     1       0.002  -0.004   0.002  0.00  0.00    -0.245 OA
BRANCH  22  24
ATOM     24  O   UNL     1      -1.190   1.869   0.018  0.00  0.00    -0.453 OA
BRANCH  24  25
ATOM     25  C   UNL     1      -2.397   1.062   0.019  0.00  0.00    +0.311 C 
BRANCH  25  26
ATOM     26  C   UNL     1      -3.605   1.963   0.030  0.00  0.00    +0.200 C 
ATOM     27  O   UNL     1      -3.462   3.168   0.036  0.00  0.00    -0.288 OA
BRANCH  26  31
ATOM     28  C   UNL     1      -7.499   0.290   0.038  0.00  0.00    -0.018 A 
ATOM     29  C   UNL     1      -7.337   1.676   0.045  0.00  0.00    +0.009 A 
ATOM     30  C   UNL     1      -6.078   2.220   0.043  0.00  0.00    +0.012 A 
ATOM     31  C   UNL     1      -4.955   1.383   0.033  0.00  0.00    +0.021 A 
ATOM     32  C   UNL     1      -5.121  -0.007   0.020  0.00  0.00    +0.012 A 
ATOM     33  C   UNL     1      -6.382  -0.546   0.029  0.00  0.00    +0.009 A 
BRANCH  28  37
ATOM     34  C   UNL     1     -11.405  -1.388   0.046  0.00  0.00    +0.000 A 
ATOM     35  C   UNL     1     -10.299  -2.218   0.036  0.00  0.00    +0.001 A 
ATOM     36  C   UNL     1      -9.028  -1.679   0.034  0.00  0.00    +0.008 A 
ATOM     37  C   UNL     1      -8.861  -0.295   0.041  0.00  0.00    -0.018 A 
ATOM     38  C   UNL     1      -9.980   0.537   0.057  0.00  0.00    +0.008 A 
ATOM     39  C   UNL     1     -11.246  -0.014   0.054  0.00  0.00    +0.001 A 
ENDBRANCH  28  37
ENDBRANCH  26  31
ENDBRANCH  25  26
ENDBRANCH  24  25
ENDBRANCH  22  24
ENDBRANCH   1  22
TORSDOF 7
