REMARK  Name = ZINC16523569
REMARK  7 active torsions:
REMARK  status: ('A' for Active; 'I' for Inactive)
REMARK    1  A    between atoms: C_1  and  C_2
REMARK    2  A    between atoms: C_2  and  C_4
REMARK    3  A    between atoms: C_2  and  N_51
REMARK    4  A    between atoms: N_6  and  C_7
REMARK    5  A    between atoms: C_10  and  N_13
REMARK    6  A    between atoms: N_18  and  S_21
REMARK    7  A    between atoms: S_21  and  C_24
REMARK                            x       y       z     vdW  Elec       q    Type
REMARK                         _______ _______ _______ _____ _____    ______ ____
ROOT
ATOM      1  C   UNL     1      -1.763   3.791  -2.462  0.00  0.00    -0.060 C 
ATOM      2  C   UNL     1      -1.109   4.571  -1.317  0.00  0.00    +0.091 C 
ATOM      3  N   UNL     1       0.340   4.320  -1.349  0.00  0.00    -0.180 NA
ATOM      4  C   UNL     1       1.053   4.518  -2.621  0.00  0.00    +0.091 C 
ATOM      5  C   UNL     1       0.312   3.734  -3.716  0.00  0.00    -0.060 C 
ATOM      6  N   UNL     1      -1.103   4.166  -3.732  0.00  0.00    +0.389 N 
ATOM      7  H   UNL     1      -1.137   5.187  -3.836  0.00  0.00    -0.081 HD
ENDROOT
BRANCH   3   8
ATOM      8  S   UNL     1       1.149   3.833   0.011  0.00  0.00    +0.062 S 
ATOM      9  O   UNL     1       2.389   3.295  -0.424  0.00  0.00    -0.153 OA
ATOM     10  O   UNL     1       0.224   3.084   0.787  0.00  0.00    -0.153 OA
BRANCH   8  11
ATOM     11  C   UNL     1       1.527   5.283   0.939  0.00  0.00    +0.125 A 
ATOM     12  C   UNL     1       0.935   5.489   2.171  0.00  0.00    +0.050 A 
ATOM     13  C   UNL     1       1.232   6.627   2.899  0.00  0.00    +0.043 A 
ATOM     14  C   UNL     1       2.121   7.559   2.394  0.00  0.00    +0.021 A 
ATOM     15  C   UNL     1       2.712   7.354   1.162  0.00  0.00    +0.023 A 
ATOM     16  C   UNL     1       2.415   6.215   0.434  0.00  0.00    +0.067 A 
ATOM     17 CL   UNL     1       3.152   5.960  -1.117  0.00  0.00    -0.082 Cl
ATOM     18 CL   UNL     1       0.489   6.886   4.447  0.00  0.00    -0.083 Cl
ENDBRANCH   8  11
ENDBRANCH   3   8
BRANCH   6  20
ATOM     19  C   UNL     1      -1.718   2.018  -4.790  0.00  0.00    -0.004 C 
ATOM     20  C   UNL     1      -1.808   3.543  -4.871  0.00  0.00    +0.017 C 
BRANCH  20  21
ATOM     21  C   UNL     1      -1.175   4.017  -6.153  0.00  0.00    +0.203 C 
ATOM     22  O   UNL     1      -0.228   4.774  -6.119  0.00  0.00    -0.277 OA
ATOM     23  N   UNL     1      -1.660   3.599  -7.339  0.00  0.00    -0.287 N 
ATOM     24  H   UNL     1      -2.460   3.051  -7.370  0.00  0.00    +0.155 HD
BRANCH  23  25
ATOM     25  C   UNL     1      -1.011   3.957  -8.526  0.00  0.00    +0.033 A 
ATOM     26  C   UNL     1      -0.411   5.204  -8.643  0.00  0.00    +0.025 A 
ATOM     27  C   UNL     1       0.234   5.551  -9.813  0.00  0.00    +0.034 A 
ATOM     28  C   UNL     1       0.272   4.664 -10.873  0.00  0.00    +0.126 A 
ATOM     29  C   UNL     1      -0.330   3.424 -10.762  0.00  0.00    +0.034 A 
ATOM     30  C   UNL     1      -0.971   3.068  -9.592  0.00  0.00    +0.025 A 
BRANCH  28  31
ATOM     31  N   UNL     1       0.958   5.042 -12.129  0.00  0.00    +0.056 N 
ATOM     32  O   UNL     1       0.993   4.261 -13.063  0.00  0.00    -0.126 OA
ATOM     33  O   UNL     1       1.489   6.134 -12.228  0.00  0.00    -0.126 OA
ENDBRANCH  28  31
ENDBRANCH  23  25
ENDBRANCH  20  21
ENDBRANCH   6  20
TORSDOF 6
