REMARK  Name = ZINC03672470
REMARK  9 active torsions:
REMARK  status: ('A' for Active; 'I' for Inactive)
REMARK    1  A    between atoms: C_1  and  C_2
REMARK    2  A    between atoms: C_2  and  C_27
REMARK    3  A    between atoms: C_6  and  O_25
REMARK    4  A    between atoms: C_7  and  O_23
REMARK    5  A    between atoms: N_11  and  N_12
REMARK    6  A    between atoms: C_15  and  C_20
REMARK    7  A    between atoms: C_15  and  C_21
REMARK    8  A    between atoms: O_23  and  C_24
REMARK    9  A    between atoms: O_25  and  C_26
REMARK                            x       y       z     vdW  Elec       q    Type
REMARK                         _______ _______ _______ _____ _____    ______ ____
ROOT
ATOM      1  C   UNL     1      -0.046   1.552   0.042  0.00  0.00    +0.031 C 
ATOM      2  C   UNL     1      -0.004   0.023   0.008  0.00  0.00    +0.032 C 
ATOM      3  C   UNL     1      -1.428  -0.529   0.027  0.00  0.00    +0.061 C 
ATOM      4  C   UNL     1      -2.071  -0.318   1.372  0.00  0.00    -0.031 A 
ATOM      5  C   UNL     1      -3.450  -0.299   1.465  0.00  0.00    +0.053 A 
ATOM      6  C   UNL     1      -4.066  -0.113   2.693  0.00  0.00    +0.162 A 
ATOM      7  C   UNL     1      -3.302   0.055   3.846  0.00  0.00    +0.162 A 
ATOM      8  C   UNL     1      -1.922   0.040   3.764  0.00  0.00    +0.061 A 
ATOM      9  C   UNL     1      -1.304  -0.144   2.525  0.00  0.00    +0.021 A 
ATOM     10  C   UNL     1       0.173  -0.141   2.431  0.00  0.00    +0.121 C 
ATOM     11  N   UNL     1       0.932   0.161   3.462  0.00  0.00    -0.264 N 
ATOM     12  N   UNL     1       0.718  -0.477   1.191  0.00  0.00    -0.324 N 
ATOM     13  C   UNL     1       0.711  -0.442  -1.262  0.00  0.00    +0.031 C 
ATOM     14  H   UNL     1       1.526  -1.008   1.113  0.00  0.00    +0.148 HD
ATOM     15  H   UNL     1       1.894   0.053   3.404  0.00  0.00    +0.190 HD
ENDROOT
BRANCH  11  16
ATOM     16  N   UNL     1       0.397   0.602   4.550  0.00  0.00    -0.177 NA
ATOM     17  C   UNL     1       1.157   1.002   5.539  0.00  0.00    +0.065 C 
ATOM     18  C   UNL     1       0.533   1.383   6.857  0.00  0.00    +0.064 C 
ATOM     19  C   UNL     1       1.540   1.117   7.981  0.00  0.00    -0.022 C 
ATOM     20  C   UNL     1       2.825   1.895   7.688  0.00  0.00    +0.085 C 
ATOM     21  C   UNL     1       3.368   1.484   6.346  0.00  0.00    +0.158 C 
ATOM     22  C   UNL     1       2.557   1.067   5.365  0.00  0.00    +0.071 C 
ATOM     23  O   UNL     1       4.702   1.531   6.127  0.00  0.00    -0.293 OA
ATOM     24  C   UNL     1       0.952   1.582   9.315  0.00  0.00    +0.011 C 
ATOM     25  C   UNL     1       1.850  -0.379   8.048  0.00  0.00    +0.011 C 
ENDBRANCH  11  16
BRANCH   7  26
ATOM     26  O   UNL     1      -3.911   0.233   5.049  0.00  0.00    -0.491 OA
ATOM     27  C   UNL     1      -3.064   0.399   6.188  0.00  0.00    +0.277 C 
ENDBRANCH   7  26
BRANCH   6  28
ATOM     28  O   UNL     1      -5.423  -0.094   2.772  0.00  0.00    -0.491 OA
ATOM     29  C   UNL     1      -6.147  -0.272   1.553  0.00  0.00    +0.277 C 
ENDBRANCH   6  28
TORSDOF 3
