REMARK  Name = ZINC45275497
REMARK  12 active torsions:
REMARK  status: ('A' for Active; 'I' for Inactive)
REMARK    1  A    between atoms: C_1  and  C_2
REMARK    2  A    between atoms: C_6  and  C_38
REMARK    3  A    between atoms: C_7  and  N_8
REMARK    4  A    between atoms: C_9  and  C_11
REMARK    5  A    between atoms: C_11  and  N_12
REMARK    6  A    between atoms: C_13  and  C_15
REMARK    7  A    between atoms: C_15  and  C_17
REMARK    8  A    between atoms: C_15  and  O_18
REMARK    9  A    between atoms: O_18  and  C_19
REMARK   10  A    between atoms: C_19  and  C_21
REMARK   11  A    between atoms: C_23  and  C_32
REMARK   12  A    between atoms: N_24  and  C_26
REMARK                            x       y       z     vdW  Elec       q    Type
REMARK                         _______ _______ _______ _____ _____    ______ ____
ROOT
ATOM      1  O   UNL     1       0.162  -0.493   9.557  0.00  0.00    -0.447 OA
ENDROOT
BRANCH   1   2
ATOM      2  C   UNL     1       0.485  -1.346   8.457  0.00  0.00    +0.259 C 
ATOM      3  C   UNL     1      -0.786  -2.034   7.954  0.00  0.00    +0.062 C 
BRANCH   2   5
ATOM      4  N   UNL     1       1.563  -1.135   6.241  0.00  0.00    -0.304 N 
ATOM      5  C   UNL     1       1.087  -0.526   7.345  0.00  0.00    +0.254 C 
ATOM      6  O   UNL     1       1.142   0.681   7.443  0.00  0.00    -0.272 OA
ATOM      7  H   UNL     1       1.519  -2.101   6.162  0.00  0.00    +0.149 HD
BRANCH   4   8
ATOM      8  C   UNL     1       2.148  -0.338   5.160  0.00  0.00    +0.200 C 
BRANCH   8  10
ATOM      9  N   UNL     1       3.174  -0.737   2.944  0.00  0.00    -0.284 N 
ATOM     10  C   UNL     1       2.601  -1.252   4.050  0.00  0.00    +0.234 C 
ATOM     11  O   UNL     1       2.451  -2.451   4.153  0.00  0.00    -0.274 OA
ATOM     12  H   UNL     1       3.347   0.216   2.886  0.00  0.00    +0.155 HD
BRANCH   9  19
ATOM     13  C   UNL     1       5.756  -0.443   1.784  0.00  0.00    +0.045 C 
ATOM     14  C   UNL     1       4.769  -1.466   1.284  0.00  0.00    -0.029 A 
ATOM     15  C   UNL     1       5.109  -2.301   0.237  0.00  0.00    +0.005 A 
ATOM     16  C   UNL     1       4.205  -3.240  -0.222  0.00  0.00    +0.001 A 
ATOM     17  C   UNL     1       2.957  -3.348   0.365  0.00  0.00    +0.005 A 
ATOM     18  C   UNL     1       2.611  -2.517   1.412  0.00  0.00    -0.029 A 
ATOM     19  C   UNL     1       3.519  -1.576   1.879  0.00  0.00    +0.039 A 
ATOM     20  C   UNL     1       1.252  -2.635   2.051  0.00  0.00    +0.045 C 
ENDBRANCH   9  19
ENDBRANCH   8  10
ENDBRANCH   4   8
ENDBRANCH   2   5
ENDBRANCH   1   2
BRANCH   1  21
ATOM     21  C   UNL     1       0.214  -1.036  10.788  0.00  0.00    +0.379 C 
ATOM     22  O   UNL     1       0.525  -2.203  10.925  0.00  0.00    -0.241 OA
BRANCH  21  23
ATOM     23  C   UNL     1      -0.108  -0.214  11.973  0.00  0.00    +0.260 A 
ATOM     24  N   UNL     1      -0.470   1.080  11.957  0.00  0.00    -0.201 NA
ATOM     25  C   UNL     1      -0.669   1.446  13.208  0.00  0.00    +0.164 A 
ATOM     26  N   UNL     1      -0.423   0.357  13.990  0.00  0.00    -0.212 N 
ATOM     27  N   UNL     1      -0.094  -0.625  13.223  0.00  0.00    -0.137 NA
BRANCH  26  28
ATOM     28  C   UNL     1      -0.518   0.312  15.386  0.00  0.00    +0.068 A 
ATOM     29  C   UNL     1      -1.601   0.897  16.030  0.00  0.00    +0.028 A 
ATOM     30  C   UNL     1      -1.692   0.850  17.407  0.00  0.00    +0.002 A 
ATOM     31  C   UNL     1      -0.706   0.222  18.146  0.00  0.00    +0.000 A 
ATOM     32  C   UNL     1       0.374  -0.361  17.508  0.00  0.00    +0.002 A 
ATOM     33  C   UNL     1       0.468  -0.323  16.131  0.00  0.00    +0.028 A 
ENDBRANCH  26  28
BRANCH  25  34
ATOM     34  C   UNL     1      -1.081   2.788  13.675  0.00  0.00    +0.019 A 
ATOM     35  C   UNL     1      -0.730   3.222  14.953  0.00  0.00    +0.011 A 
ATOM     36  C   UNL     1      -1.117   4.475  15.383  0.00  0.00    +0.001 A 
ATOM     37  C   UNL     1      -1.852   5.299  14.550  0.00  0.00    +0.000 A 
ATOM     38  C   UNL     1      -2.204   4.873  13.281  0.00  0.00    +0.001 A 
ATOM     39  C   UNL     1      -1.817   3.625  12.837  0.00  0.00    +0.011 A 
ENDBRANCH  25  34
ENDBRANCH  21  23
ENDBRANCH   1  21
TORSDOF 9
