REMARK  Name = ZINC63795325
REMARK  7 active torsions:
REMARK  status: ('A' for Active; 'I' for Inactive)
REMARK    1  A    between atoms: C_1  and  C_2
REMARK    2  A    between atoms: C_3  and  C_27
REMARK    3  A    between atoms: C_9  and  C_11
REMARK    4  A    between atoms: C_11  and  S_12
REMARK    5  A    between atoms: S_12  and  C_13
REMARK    6  A    between atoms: C_13  and  C_14
REMARK    7  A    between atoms: N_16  and  C_17
REMARK                            x       y       z     vdW  Elec       q    Type
REMARK                         _______ _______ _______ _____ _____    ______ ____
ROOT
ATOM      1  C   UNL     1       0.138  -6.147   5.443  0.00  0.00    +0.165 C 
ENDROOT
BRANCH   1   2
ATOM      2  C   UNL     1       0.155  -7.607   5.072  0.00  0.00    +0.226 C 
ATOM      3  O   UNL     1       0.148  -7.936   3.904  0.00  0.00    -0.275 OA
ATOM      4  N   UNL     1       0.177  -8.548   6.037  0.00  0.00    -0.278 N 
ATOM      5  H   UNL     1       0.182  -8.284   6.970  0.00  0.00    +0.152 HD
BRANCH   4   6
ATOM      6  C   UNL     1       0.193  -9.967   5.676  0.00  0.00    +0.269 C 
ATOM      7  N   UNL     1       1.544 -10.367   5.262  0.00  0.00    -0.348 N 
ATOM      8  C   UNL     1       1.945 -11.296   6.081  0.00  0.00    +0.061 A 
ATOM      9  C   UNL     1       3.187 -12.075   6.178  0.00  0.00    +0.027 A 
ATOM     10  C   UNL     1       3.322 -12.993   7.156  0.00  0.00    +0.002 A 
ATOM     11  C   UNL     1       2.314 -13.245   8.103  0.00  0.00    +0.002 A 
ATOM     12  C   UNL     1       1.137 -12.588   8.104  0.00  0.00    +0.027 A 
ATOM     13  C   UNL     1       0.878 -11.563   7.083  0.00  0.00    +0.061 A 
ATOM     14  N   UNL     1      -0.141 -10.789   6.846  0.00  0.00    -0.348 N 
ATOM     15  H   UNL     1       2.047 -10.004   4.516  0.00  0.00    +0.163 HD
ATOM     16  H   UNL     1      -0.970 -10.759   7.350  0.00  0.00    +0.163 HD
ENDBRANCH   4   6
ENDBRANCH   1   2
BRANCH   1  17
ATOM     17  S   UNL     1       0.110  -5.139   3.935  0.00  0.00    -0.144 S 
BRANCH  17  18
ATOM     18  C   UNL     1       0.091  -3.432   4.547  0.00  0.00    +0.143 C 
BRANCH  18  27
ATOM     19  C   UNL     1      -0.018   1.503   0.010  0.00  0.00    +0.045 C 
ATOM     20  C   UNL     1       0.002  -0.004   0.002  0.00  0.00    -0.026 A 
ATOM     21  C   UNL     1       0.006  -0.677  -1.160  0.00  0.00    -0.008 A 
ATOM     22  S   UNL     1       0.032  -2.385  -0.648  0.00  0.00    -0.073 S 
ATOM     23  C   UNL     1       0.037  -2.144   1.110  0.00  0.00    +0.116 A 
ATOM     24  C   UNL     1       0.024  -0.745   1.250  0.00  0.00    +0.075 A 
ATOM     25  C   UNL     1       0.029  -0.257   2.597  0.00  0.00    +0.260 A 
ATOM     26  N   UNL     1       0.051  -1.142   3.611  0.00  0.00    -0.310 N 
ATOM     27  C   UNL     1       0.067  -2.480   3.380  0.00  0.00    +0.121 A 
ATOM     28  N   UNL     1       0.054  -2.956   2.163  0.00  0.00    -0.226 NA
ATOM     29  O   UNL     1       0.015   0.942   2.821  0.00  0.00    -0.267 OA
ATOM     30  C   UNL     1      -0.009  -0.122  -2.561  0.00  0.00    +0.052 C 
ATOM     31  H   UNL     1       0.055  -0.817   4.525  0.00  0.00    +0.170 HD
ENDBRANCH  18  27
ENDBRANCH  17  18
ENDBRANCH   1  17
TORSDOF 5
