REMARK  Name = ZINC08735914
REMARK  7 active torsions:
REMARK  status: ('A' for Active; 'I' for Inactive)
REMARK    1  A    between atoms: C_1  and  C_2
REMARK    2  A    between atoms: C_5  and  C_8
REMARK    3  A    between atoms: C_8  and  N_9
REMARK    4  A    between atoms: C_10  and  C_12
REMARK    5  A    between atoms: C_12  and  S_13
REMARK    6  A    between atoms: S_13  and  C_14
REMARK    7  A    between atoms: N_21  and  C_24
REMARK                            x       y       z     vdW  Elec       q    Type
REMARK                         _______ _______ _______ _____ _____    ______ ____
ROOT
ATOM      1  C   UNL     1       4.876  -8.769  -0.073  0.00  0.00    +0.194 A 
ATOM      2  N   UNL     1       5.766  -7.783  -0.067  0.00  0.00    -0.183 NA
ATOM      3  C   UNL     1       7.067  -8.033  -0.075  0.00  0.00    +0.285 A 
ATOM      4  O   UNL     1       7.967  -7.022  -0.069  0.00  0.00    -0.265 OA
ATOM      5  C   UNL     1       7.493  -9.374  -0.090  0.00  0.00    +0.105 A 
ATOM      6  C   UNL     1       8.753 -10.014  -0.102  0.00  0.00    +0.150 A 
ATOM      7  N   UNL     1       8.562 -11.303  -0.114  0.00  0.00    -0.172 NA
ATOM      8  N   UNL     1       7.189 -11.578  -0.111  0.00  0.00    -0.214 N 
ATOM      9  C   UNL     1       6.515 -10.389  -0.096  0.00  0.00    +0.171 A 
ATOM     10  N   UNL     1       5.230 -10.044  -0.082  0.00  0.00    -0.202 NA
ENDROOT
BRANCH   8  11
ATOM     11  C   UNL     1       6.606 -12.851  -0.121  0.00  0.00    +0.068 A 
ATOM     12  C   UNL     1       5.421 -13.079   0.566  0.00  0.00    +0.028 A 
ATOM     13  C   UNL     1       4.848 -14.336   0.554  0.00  0.00    +0.002 A 
ATOM     14  C   UNL     1       5.454 -15.367  -0.142  0.00  0.00    +0.000 A 
ATOM     15  C   UNL     1       6.634 -15.143  -0.827  0.00  0.00    +0.002 A 
ATOM     16  C   UNL     1       7.209 -13.887  -0.823  0.00  0.00    +0.028 A 
ENDBRANCH   8  11
BRANCH   1  17
ATOM     17  S   UNL     1       3.161  -8.365  -0.061  0.00  0.00    -0.077 S 
BRANCH  17  18
ATOM     18  C   UNL     1       3.137  -6.551  -0.051  0.00  0.00    +0.173 C 
BRANCH  18  20
ATOM     19  N   UNL     1       1.447  -4.746  -0.032  0.00  0.00    -0.311 N 
ATOM     20  C   UNL     1       1.710  -6.067  -0.040  0.00  0.00    +0.224 C 
ATOM     21  O   UNL     1       0.799  -6.867  -0.040  0.00  0.00    -0.275 OA
ATOM     22  H   UNL     1       2.176  -4.106  -0.032  0.00  0.00    +0.149 HD
BRANCH  19  23
ATOM     23  C   UNL     1       0.059  -4.275  -0.021  0.00  0.00    +0.139 C 
BRANCH  23  28
ATOM     24  C   UNL     1      -0.018   1.503   0.010  0.00  0.00    +0.044 C 
ATOM     25  C   UNL     1       0.002  -0.004   0.002  0.00  0.00    -0.050 A 
ATOM     26  C   UNL     1       0.006  -0.689  -1.199  0.00  0.00    +0.003 A 
ATOM     27  C   UNL     1       0.025  -2.071  -1.206  0.00  0.00    +0.005 A 
ATOM     28  C   UNL     1       0.040  -2.768  -0.013  0.00  0.00    -0.030 A 
ATOM     29  C   UNL     1       0.037  -2.084   1.188  0.00  0.00    +0.005 A 
ATOM     30  C   UNL     1       0.023  -0.702   1.195  0.00  0.00    +0.003 A 
ENDBRANCH  23  28
ENDBRANCH  19  23
ENDBRANCH  18  20
ENDBRANCH  17  18
ENDBRANCH   1  17
TORSDOF 6
