REMARK  Name = ZINC36045058
REMARK  12 active torsions:
REMARK  status: ('A' for Active; 'I' for Inactive)
REMARK    1  A    between atoms: C_1  and  C_2
REMARK    2  A    between atoms: C_5  and  N_9
REMARK    3  A    between atoms: C_7  and  C_8
REMARK    4  A    between atoms: C_11  and  C_31
REMARK    5  A    between atoms: C_15  and  C_17
REMARK    6  A    between atoms: C_17  and  N_18
REMARK    7  A    between atoms: N_18  and  C_19
REMARK    8  A    between atoms: C_19  and  C_20
REMARK    9  A    between atoms: C_20  and  N_21
REMARK   10  A    between atoms: N_21  and  C_22
REMARK   11  A    between atoms: N_21  and  C_23
REMARK   12  A    between atoms: C_24  and  C_26
REMARK                            x       y       z     vdW  Elec       q    Type
REMARK                         _______ _______ _______ _____ _____    ______ ____
ROOT
ATOM      1  N   UNL     1       1.187  -6.645  -0.401  0.00  0.00    -0.287 N 
ATOM      2  C   UNL     1       1.944  -7.771  -0.184  0.00  0.00    +0.122 A 
ATOM      3  C   UNL     1       1.301  -8.799  -0.795  0.00  0.00    +0.091 A 
ATOM      4  N   UNL     1       0.181  -8.310  -1.369  0.00  0.00    -0.214 NA
ATOM      5  C   UNL     1       0.101  -7.024  -1.134  0.00  0.00    +0.207 A 
ATOM      6  N   UNL     1      -0.918  -6.184  -1.564  0.00  0.00    -0.254 N 
ATOM      7  C   UNL     1      -1.942  -6.682  -2.285  0.00  0.00    +0.237 C 
ATOM      8  O   UNL     1      -1.972  -7.863  -2.560  0.00  0.00    -0.274 OA
ATOM      9  H   UNL     1      -0.893  -5.240  -1.344  0.00  0.00    +0.158 HD
ENDROOT
BRANCH   1  14
ATOM     10  C   UNL     1       2.348  -1.401   1.434  0.00  0.00    +0.044 C 
ATOM     11  C   UNL     1       2.039  -2.793   0.947  0.00  0.00    -0.047 A 
ATOM     12  C   UNL     1       1.718  -3.004  -0.381  0.00  0.00    +0.005 A 
ATOM     13  C   UNL     1       1.435  -4.279  -0.831  0.00  0.00    +0.026 A 
ATOM     14  C   UNL     1       1.474  -5.350   0.052  0.00  0.00    +0.049 A 
ATOM     15  C   UNL     1       1.798  -5.135   1.385  0.00  0.00    +0.029 A 
ATOM     16  C   UNL     1       2.085  -3.858   1.828  0.00  0.00    -0.046 A 
ATOM     17  C   UNL     1       2.441  -3.625   3.273  0.00  0.00    +0.044 C 
ENDBRANCH   1  14
BRANCH   3  18
ATOM     18  C   UNL     1       1.751 -10.212  -0.826  0.00  0.00    +0.002 A 
ATOM     19  C   UNL     1       2.931 -10.585  -0.184  0.00  0.00    +0.011 A 
ATOM     20  C   UNL     1       3.344 -11.901  -0.215  0.00  0.00    +0.020 A 
ATOM     21  C   UNL     1       2.590 -12.850  -0.884  0.00  0.00    +0.041 A 
ATOM     22  C   UNL     1       1.418 -12.485  -1.523  0.00  0.00    +0.020 A 
ATOM     23  C   UNL     1       0.992 -11.173  -1.492  0.00  0.00    +0.011 A 
ATOM     24 CL   UNL     1       3.117 -14.504  -0.921  0.00  0.00    -0.084 Cl
ENDBRANCH   3  18
BRANCH   7  25
ATOM     25  C   UNL     1      -3.048  -5.771  -2.752  0.00  0.00    +0.203 C 
BRANCH  25  26
ATOM     26  N   UNL     1      -4.032  -6.547  -3.510  0.00  0.00    -0.294 N 
ATOM     27  C   UNL     1      -3.946  -6.615  -4.853  0.00  0.00    +0.219 C 
ATOM     28  O   UNL     1      -4.813  -7.176  -5.489  0.00  0.00    -0.275 OA
BRANCH  27  29
ATOM     29  C   UNL     1      -2.773  -5.993  -5.566  0.00  0.00    +0.075 C 
ATOM     30  C   UNL     1      -3.111  -4.545  -5.977  0.00  0.00    +0.013 C 
ATOM     31  C   UNL     1      -2.428  -4.373  -7.357  0.00  0.00    +0.001 C 
ATOM     32  C   UNL     1      -2.647  -5.754  -8.022  0.00  0.00    +0.001 C 
ATOM     33  C   UNL     1      -2.478  -6.762  -6.866  0.00  0.00    +0.013 C 
ENDBRANCH  27  29
BRANCH  26  34
ATOM     34  C   UNL     1      -5.110  -7.248  -2.808  0.00  0.00    +0.090 C 
BRANCH  34  35
ATOM     35  C   UNL     1      -6.364  -6.372  -2.793  0.00  0.00    -0.060 C 
BRANCH  35  36
ATOM     36  N   UNL     1      -7.445  -7.075  -2.090  0.00  0.00    +0.377 N 
ATOM     37  C   UNL     1      -7.077  -7.252  -0.678  0.00  0.00    -0.097 C 
ATOM     38  C   UNL     1      -8.681  -6.287  -2.178  0.00  0.00    -0.097 C 
ATOM     39  H   UNL     1      -7.590  -7.979  -2.515  0.00  0.00    -0.083 HD
ENDBRANCH  35  36
ENDBRANCH  34  35
ENDBRANCH  26  34
ENDBRANCH  25  26
ENDBRANCH   7  25
TORSDOF 8
