REMARK  Name = ZINC08412488
REMARK  9 active torsions:
REMARK  status: ('A' for Active; 'I' for Inactive)
REMARK    1  A    between atoms: C_1  and  C_2
REMARK    2  A    between atoms: C_5  and  C_8
REMARK    3  A    between atoms: C_13  and  C_17
REMARK    4  A    between atoms: C_13  and  C_18
REMARK    5  A    between atoms: N_19  and  C_31
REMARK    6  A    between atoms: C_20  and  N_30
REMARK    7  A    between atoms: C_21  and  C_22
REMARK    8  A    between atoms: C_22  and  C_24
REMARK    9  A    between atoms: C_34  and  N_37
REMARK                            x       y       z     vdW  Elec       q    Type
REMARK                         _______ _______ _______ _____ _____    ______ ____
ROOT
ATOM      1  C   UNL     1      -3.670   1.880  -0.176  0.00  0.00    +0.091 C 
ATOM      2  C   UNL     1      -3.315   3.268  -0.649  0.00  0.00    +0.025 C 
ATOM      3  C   UNL     1      -2.060   3.747  -0.522  0.00  0.00    +0.025 C 
ATOM      4  C   UNL     1      -1.706   5.133  -1.001  0.00  0.00    +0.058 C 
ATOM      5  C   UNL     1      -2.925   6.049  -0.875  0.00  0.00    -0.023 C 
ATOM      6  C   UNL     1      -4.068   5.450  -1.701  0.00  0.00    +0.086 C 
ATOM      7  C   UNL     1      -4.334   4.048  -1.224  0.00  0.00    +0.162 C 
ATOM      8  O   UNL     1      -5.450   3.581  -1.339  0.00  0.00    -0.292 OA
ATOM      9  C   UNL     1      -3.347   6.144   0.593  0.00  0.00    +0.011 C 
ATOM     10  C   UNL     1      -2.579   7.443  -1.402  0.00  0.00    +0.011 C 
ATOM     11  N   UNL     1      -1.072   2.984   0.049  0.00  0.00    -0.261 N 
ATOM     12  C   UNL     1      -1.199   1.618   0.115  0.00  0.00    +0.100 C 
ATOM     13  C   UNL     1      -2.441   1.039   0.008  0.00  0.00    +0.048 C 
ENDROOT
BRANCH   1  18
ATOM     14  C   UNL     1      -6.482   2.252   4.858  0.00  0.00    +0.044 C 
ATOM     15  C   UNL     1      -5.749   2.156   3.545  0.00  0.00    -0.050 A 
ATOM     16  C   UNL     1      -6.399   1.674   2.424  0.00  0.00    +0.003 A 
ATOM     17  C   UNL     1      -5.726   1.585   1.220  0.00  0.00    +0.005 A 
ATOM     18  C   UNL     1      -4.403   1.978   1.136  0.00  0.00    -0.035 A 
ATOM     19  C   UNL     1      -3.752   2.454   2.258  0.00  0.00    +0.005 A 
ATOM     20  C   UNL     1      -4.426   2.548   3.461  0.00  0.00    +0.003 A 
ENDBRANCH   1  18
BRANCH  11  21
ATOM     21  C   UNL     1       0.075   3.600   0.563  0.00  0.00    +0.040 A 
ATOM     22  C   UNL     1       0.017   4.277   1.775  0.00  0.00    +0.026 A 
ATOM     23  C   UNL     1       1.152   4.879   2.282  0.00  0.00    +0.034 A 
ATOM     24  C   UNL     1       2.342   4.818   1.579  0.00  0.00    +0.126 A 
ATOM     25  C   UNL     1       2.401   4.150   0.370  0.00  0.00    +0.034 A 
ATOM     26  C   UNL     1       1.271   3.541  -0.140  0.00  0.00    +0.026 A 
BRANCH  24  27
ATOM     27  N   UNL     1       3.554   5.470   2.123  0.00  0.00    +0.056 N 
ATOM     28  O   UNL     1       4.603   5.418   1.505  0.00  0.00    -0.126 OA
ATOM     29  O   UNL     1       3.504   6.059   3.188  0.00  0.00    -0.126 OA
ENDBRANCH  24  27
ENDBRANCH  11  21
BRANCH  12  30
ATOM     30  N   UNL     1      -0.090   0.833   0.292  0.00  0.00    -0.346 N 
ATOM     31  H   UNL     1      -0.187  -0.124   0.412  0.00  0.00    +0.143 HD
ATOM     32  H   UNL     1       0.793   1.235   0.293  0.00  0.00    +0.143 HD
ENDBRANCH  12  30
BRANCH  13  33
ATOM     33  C   UNL     1      -2.562  -0.356   0.073  0.00  0.00    +0.193 C 
ATOM     34  O   UNL     1      -2.279  -0.945   1.103  0.00  0.00    -0.287 OA
BRANCH  33  35
ATOM     35  C   UNL     1      -3.031  -1.115  -1.108  0.00  0.00    +0.022 A 
ATOM     36  C   UNL     1      -3.290  -0.453  -2.308  0.00  0.00    +0.012 A 
ATOM     37  C   UNL     1      -3.722  -1.166  -3.408  0.00  0.00    +0.001 A 
ATOM     38  C   UNL     1      -3.910  -2.534  -3.318  0.00  0.00    +0.000 A 
ATOM     39  C   UNL     1      -3.661  -3.196  -2.129  0.00  0.00    +0.001 A 
ATOM     40  C   UNL     1      -3.223  -2.494  -1.024  0.00  0.00    +0.012 A 
ENDBRANCH  33  35
ENDBRANCH  13  33
TORSDOF 6
