REMARK  Name = ZINC39697118
REMARK  8 active torsions:
REMARK  status: ('A' for Active; 'I' for Inactive)
REMARK    1  A    between atoms: C_1  and  C_2
REMARK    2  A    between atoms: C_5  and  C_8
REMARK    3  A    between atoms: C_8  and  N_9
REMARK    4  A    between atoms: C_10  and  C_12
REMARK    5  A    between atoms: C_23  and  C_25
REMARK    6  A    between atoms: C_31  and  O_33
REMARK    7  A    between atoms: O_33  and  C_34
REMARK    8  A    between atoms: C_34  and  C_35
REMARK                            x       y       z     vdW  Elec       q    Type
REMARK                         _______ _______ _______ _____ _____    ______ ____
ROOT
ATOM      1  C   UNL     1      -2.947  -6.540  -0.338  0.00  0.00    +0.100 C 
ATOM      2  C   UNL     1      -3.748  -6.224   0.946  0.00  0.00    +0.121 C 
ATOM      3  N   UNL     1      -4.607  -7.414   1.152  0.00  0.00    -0.300 N 
ATOM      4  C   UNL     1      -3.741  -8.562   0.792  0.00  0.00    +0.115 C 
ATOM      5  C   UNL     1      -2.944  -8.075  -0.435  0.00  0.00    -0.004 C 
ATOM      6  C   UNL     1      -1.514  -8.605  -0.379  0.00  0.00    -0.010 C 
ATOM      7  C   UNL     1      -1.534 -10.128  -0.536  0.00  0.00    -0.082 C 
ATOM      8  N   UNL     1      -2.159 -10.482  -1.816  0.00  0.00    +0.379 N 
ATOM      9  C   UNL     1      -3.562 -10.050  -1.824  0.00  0.00    -0.082 C 
ATOM     10  C   UNL     1      -3.628  -8.524  -1.722  0.00  0.00    -0.010 C 
ATOM     11  C   UNL     1      -5.887  -7.445   1.572  0.00  0.00    +0.219 C 
ATOM     12  O   UNL     1      -6.460  -8.507   1.693  0.00  0.00    -0.275 OA
ATOM     13  H   UNL     1      -1.664 -10.027  -2.568  0.00  0.00    -0.086 HD
ATOM     14  H   UNL     1      -2.115 -11.482  -1.944  0.00  0.00    -0.086 HD
ENDROOT
BRANCH  11  15
ATOM     15  C   UNL     1      -6.607  -6.160   1.892  0.00  0.00    +0.078 C 
ATOM     16  C   UNL     1      -5.866  -5.426   3.012  0.00  0.00    +0.032 C 
ATOM     17  C   UNL     1      -6.581  -4.104   3.310  0.00  0.00    +0.112 C 
ATOM     18  N   UNL     1      -7.993  -4.385   3.603  0.00  0.00    -0.267 N 
ATOM     19  C   UNL     1      -8.774  -5.164   2.633  0.00  0.00    +0.112 C 
ATOM     20  C   UNL     1      -8.035  -6.474   2.342  0.00  0.00    +0.032 C 
ATOM     21  C   UNL     1      -8.560  -3.938   4.741  0.00  0.00    +0.403 C 
ATOM     22  O   UNL     1      -7.903  -3.295   5.536  0.00  0.00    -0.226 OA
BRANCH  21  23
ATOM     23  O   UNL     1      -9.855  -4.203   4.997  0.00  0.00    -0.445 OA
BRANCH  23  24
ATOM     24  C   UNL     1     -10.391  -3.698   6.222  0.00  0.00    +0.269 C 
BRANCH  24  25
ATOM     25  C   UNL     1     -11.842  -4.090   6.335  0.00  0.00    -0.010 A 
ATOM     26  C   UNL     1     -12.824  -3.261   5.826  0.00  0.00    +0.007 A 
ATOM     27  C   UNL     1     -14.154  -3.621   5.930  0.00  0.00    +0.000 A 
ATOM     28  C   UNL     1     -14.503  -4.810   6.542  0.00  0.00    +0.000 A 
ATOM     29  C   UNL     1     -13.521  -5.640   7.050  0.00  0.00    +0.000 A 
ATOM     30  C   UNL     1     -12.190  -5.282   6.943  0.00  0.00    +0.007 A 
ENDBRANCH  24  25
ENDBRANCH  23  24
ENDBRANCH  21  23
ENDBRANCH  11  15
BRANCH   1  32
ATOM     31  N   UNL     1      -0.858  -5.655  -1.324  0.00  0.00    -0.309 N 
ATOM     32  C   UNL     1      -1.538  -6.019  -0.218  0.00  0.00    +0.219 C 
ATOM     33  O   UNL     1      -1.016  -5.927   0.872  0.00  0.00    -0.275 OA
ATOM     34  H   UNL     1      -1.276  -5.728  -2.196  0.00  0.00    +0.149 HD
BRANCH  31  35
ATOM     35  C   UNL     1       0.512  -5.148  -1.208  0.00  0.00    +0.161 C 
BRANCH  35  40
ATOM     36  C   UNL     1       2.498  -3.840  -6.375  0.00  0.00    +0.067 C 
ATOM     37  C   UNL     1       1.967  -4.173  -5.004  0.00  0.00    +0.056 A 
ATOM     38  C   UNL     1       2.054  -5.468  -4.525  0.00  0.00    +0.134 A 
ATOM     39  N   UNL     1       1.589  -5.760  -3.323  0.00  0.00    -0.255 NA
ATOM     40  C   UNL     1       1.042  -4.815  -2.578  0.00  0.00    +0.076 A 
ATOM     41  C   UNL     1       0.956  -3.520  -3.058  0.00  0.00    +0.136 A 
ATOM     42  N   UNL     1       1.425  -3.227  -4.258  0.00  0.00    -0.257 NA
ENDBRANCH  35  40
ENDBRANCH  31  35
ENDBRANCH   1  32
TORSDOF 7
