REMARK  Name = ZINC02400595
REMARK  4 active torsions:
REMARK  status: ('A' for Active; 'I' for Inactive)
REMARK    1  A    between atoms: C_1  and  S_2
REMARK    2  A    between atoms: S_2  and  C_3
REMARK    3  A    between atoms: C_9  and  C_21
REMARK    4  A    between atoms: C_14  and  N_16
REMARK                            x       y       z     vdW  Elec       q    Type
REMARK                         _______ _______ _______ _____ _____    ______ ____
ROOT
ATOM      1  C   UNL     1       3.073   0.541  -3.196  0.00  0.00    +0.190 A 
ATOM      2  N   UNL     1       1.976   0.825  -2.526  0.00  0.00    -0.221 NA
ATOM      3  C   UNL     1       0.894   1.355  -3.140  0.00  0.00    +0.094 A 
ATOM      4  C   UNL     1      -0.400   1.726  -2.537  0.00  0.00    +0.037 A 
ATOM      5  C   UNL     1      -0.785   1.607  -1.181  0.00  0.00    -0.030 A 
ATOM      6  C   UNL     1      -2.034   2.001  -0.800  0.00  0.00    -0.018 A 
ATOM      7  C   UNL     1      -2.922   2.520  -1.749  0.00  0.00    +0.076 A 
ATOM      8  N   UNL     1      -2.555   2.630  -3.019  0.00  0.00    -0.239 NA
ATOM      9  C   UNL     1      -1.359   2.259  -3.419  0.00  0.00    +0.112 A 
ATOM     10  S   UNL     1      -0.547   2.263  -4.999  0.00  0.00    -0.064 S 
ATOM     11  C   UNL     1       1.014   1.579  -4.516  0.00  0.00    +0.080 A 
ATOM     12  C   UNL     1       2.187   1.268  -5.192  0.00  0.00    +0.140 A 
ATOM     13  N   UNL     1       3.200   0.749  -4.500  0.00  0.00    -0.206 NA
ATOM     14  C   UNL     1      -2.212   1.777   0.687  0.00  0.00    +0.038 C 
ATOM     15  C   UNL     1      -0.779   1.605   1.244  0.00  0.00    +0.009 C 
ATOM     16  C   UNL     1      -0.013   1.086   0.008  0.00  0.00    +0.036 C 
ENDROOT
BRANCH  12  17
ATOM     17  N   UNL     1       2.300   1.493  -6.555  0.00  0.00    -0.318 N 
ATOM     18  C   UNL     1       2.028   2.899  -6.882  0.00  0.00    +0.087 C 
ATOM     19  C   UNL     1       2.085   3.088  -8.399  0.00  0.00    -0.063 C 
ATOM     20  C   UNL     1       3.683   1.277  -8.565  0.00  0.00    -0.063 C 
ATOM     21  C   UNL     1       3.625   1.088  -7.047  0.00  0.00    +0.087 C 
ATOM     22  N   UNL     1       3.416   2.690  -8.896  0.00  0.00    +0.381 N 
ATOM     23  H   UNL     1       4.132   3.281  -8.459  0.00  0.00    -0.086 HD
ATOM     24  H   UNL     1       3.448   2.811  -9.915  0.00  0.00    -0.086 HD
ENDBRANCH  12  17
BRANCH   7  25
ATOM     25  C   UNL     1      -4.279   2.948  -1.333  0.00  0.00    +0.001 A 
ATOM     26  C   UNL     1      -4.957   2.252  -0.334  0.00  0.00    +0.010 A 
ATOM     27  C   UNL     1      -6.218   2.658   0.053  0.00  0.00    +0.001 A 
ATOM     28  C   UNL     1      -6.814   3.748  -0.557  0.00  0.00    +0.000 A 
ATOM     29  C   UNL     1      -6.148   4.439  -1.553  0.00  0.00    +0.001 A 
ATOM     30  C   UNL     1      -4.885   4.045  -1.944  0.00  0.00    +0.010 A 
ENDBRANCH   7  25
BRANCH   1  32
ATOM     31  C   UNL     1       3.740  -0.209  -0.650  0.00  0.00    +0.093 C 
ATOM     32  S   UNL     1       4.438  -0.146  -2.319  0.00  0.00    -0.089 S 
ENDBRANCH   1  32
TORSDOF 3
