REMARK  Name = ZINC44585149
REMARK  9 active torsions:
REMARK  status: ('A' for Active; 'I' for Inactive)
REMARK    1  A    between atoms: C_1  and  O_2
REMARK    2  A    between atoms: O_2  and  C_3
REMARK    3  A    between atoms: C_3  and  C_5
REMARK    4  A    between atoms: C_5  and  C_6
REMARK    5  A    between atoms: C_6  and  C_7
REMARK    6  A    between atoms: C_7  and  C_8
REMARK    7  A    between atoms: C_8  and  C_9
REMARK    8  A    between atoms: C_9  and  N_10
REMARK    9  A    between atoms: C_22  and  C_24
REMARK                            x       y       z     vdW  Elec       q    Type
REMARK                         _______ _______ _______ _____ _____    ______ ____
ROOT
ATOM      1  N   UNL     1       2.738  -8.629   4.368  0.00  0.00    -0.299 N 
ATOM      2  C   UNL     1       3.215  -7.719   5.240  0.00  0.00    +0.303 C 
ATOM      3  O   UNL     1       3.135  -6.533   4.986  0.00  0.00    -0.253 OA
ATOM      4  N   UNL     1       3.780  -8.124   6.395  0.00  0.00    -0.273 N 
ATOM      5  C   UNL     1       4.207  -7.147   7.408  0.00  0.00    +0.116 C 
ATOM      6  C   UNL     1       3.371  -7.344   8.679  0.00  0.00    +0.074 C 
ATOM      7  C   UNL     1       3.291  -8.817   8.983  0.00  0.00    +0.040 A 
ATOM      8  C   UNL     1       3.557  -9.803   8.100  0.00  0.00    +0.062 A 
ATOM      9  N   UNL     1       3.378 -10.973   8.717  0.00  0.00    -0.348 N 
ATOM     10  C   UNL     1       3.013 -10.753   9.953  0.00  0.00    +0.171 A 
ATOM     11  N   UNL     1       2.949  -9.418  10.157  0.00  0.00    -0.349 N 
ATOM     12  H   UNL     1       2.705  -8.971  10.983  0.00  0.00    +0.166 HD
ATOM     13  C   UNL     1       3.980  -9.557   6.675  0.00  0.00    +0.156 C 
ATOM     14  H   UNL     1       2.871  -9.576   4.534  0.00  0.00    +0.150 HD
ATOM     15  H   UNL     1       3.499 -11.847   8.313  0.00  0.00    +0.167 HD
ENDROOT
BRANCH  13  16
ATOM     16  C   UNL     1       5.435  -9.914   6.509  0.00  0.00    -0.020 A 
ATOM     17  C   UNL     1       6.385  -9.352   7.341  0.00  0.00    +0.006 A 
ATOM     18  C   UNL     1       7.719  -9.679   7.189  0.00  0.00    +0.002 A 
ATOM     19  C   UNL     1       8.105 -10.568   6.204  0.00  0.00    +0.020 A 
ATOM     20  C   UNL     1       7.155 -11.131   5.370  0.00  0.00    +0.041 A 
ATOM     21  C   UNL     1       5.819 -10.808   5.527  0.00  0.00    +0.025 A 
ATOM     22 CL   UNL     1       7.639 -12.248   4.132  0.00  0.00    -0.084 Cl
ENDBRANCH  13  16
BRANCH   1  23
ATOM     23  C   UNL     1       2.019  -8.189   3.170  0.00  0.00    +0.106 C 
BRANCH  23  24
ATOM     24  C   UNL     1       1.588  -9.411   2.356  0.00  0.00    +0.019 C 
BRANCH  24  25
ATOM     25  C   UNL     1       0.838  -8.951   1.104  0.00  0.00    +0.002 C 
BRANCH  25  26
ATOM     26  C   UNL     1       0.407 -10.172   0.290  0.00  0.00    +0.011 C 
BRANCH  26  27
ATOM     27  C   UNL     1      -0.344  -9.712  -0.961  0.00  0.00    +0.120 C 
BRANCH  27  28
ATOM     28  C   UNL     1      -0.768 -10.916  -1.763  0.00  0.00    +0.307 C 
ATOM     29  O   UNL     1      -0.498 -12.027  -1.374  0.00  0.00    -0.251 OA
BRANCH  28  31
ATOM     30  C   UNL     1      -1.817 -11.937  -3.618  0.00  0.00    +0.280 C 
ATOM     31  O   UNL     1      -1.446 -10.753  -2.910  0.00  0.00    -0.468 OA
ENDBRANCH  28  31
ENDBRANCH  27  28
ENDBRANCH  26  27
ENDBRANCH  25  26
ENDBRANCH  24  25
ENDBRANCH  23  24
ENDBRANCH   1  23
TORSDOF 8
