REMARK  Name = ZINC61191093
REMARK  9 active torsions:
REMARK  status: ('A' for Active; 'I' for Inactive)
REMARK    1  A    between atoms: C_1  and  C_2
REMARK    2  A    between atoms: N_5  and  C_8
REMARK    3  A    between atoms: C_8  and  C_9
REMARK    4  A    between atoms: C_8  and  C_22
REMARK    5  A    between atoms: C_9  and  N_10
REMARK    6  A    between atoms: N_13  and  C_14
REMARK    7  A    between atoms: C_14  and  C_15
REMARK    8  A    between atoms: C_15  and  C_16
REMARK    9  A    between atoms: C_16  and  N_17
REMARK                            x       y       z     vdW  Elec       q    Type
REMARK                         _______ _______ _______ _____ _____    ______ ____
ROOT
ATOM      1  C   UNL     1       2.358  -4.349  -1.341  0.00  0.00    +0.095 C 
ENDROOT
BRANCH   1   2
ATOM      2  N   UNL     1       2.290  -5.808  -1.457  0.00  0.00    -0.301 N 
ATOM      3  C   UNL     1       2.895  -6.431  -2.488  0.00  0.00    +0.300 C 
ATOM      4  O   UNL     1       3.497  -5.782  -3.322  0.00  0.00    -0.253 OA
ATOM      5  N   UNL     1       2.833  -7.773  -2.595  0.00  0.00    -0.299 N 
ATOM      6  H   UNL     1       1.810  -6.325  -0.792  0.00  0.00    +0.150 HD
ATOM      7  H   UNL     1       2.352  -8.290  -1.929  0.00  0.00    +0.150 HD
BRANCH   5   8
ATOM      8  C   UNL     1       3.490  -8.450  -3.715  0.00  0.00    +0.107 C 
BRANCH   8   9
ATOM      9  C   UNL     1       3.268  -9.959  -3.600  0.00  0.00    +0.042 C 
BRANCH   9  10
ATOM     10  C   UNL     1       3.955 -10.667  -4.770  0.00  0.00    +0.145 C 
BRANCH  10  11
ATOM     11  N   UNL     1       3.742 -12.112  -4.660  0.00  0.00    -0.271 N 
ATOM     12  C   UNL     1       3.214 -12.911  -5.610  0.00  0.00    +0.108 A 
ATOM     13  C   UNL     1       3.188 -14.173  -5.120  0.00  0.00    +0.041 A 
ATOM     14  C   UNL     1       3.719 -14.143  -3.827  0.00  0.00    +0.134 A 
ATOM     15  N   UNL     1       4.057 -12.909  -3.552  0.00  0.00    -0.180 NA
ENDBRANCH  10  11
ENDBRANCH   9  10
ENDBRANCH   8   9
ENDBRANCH   5   8
ENDBRANCH   1   2
BRANCH   1  16
ATOM     16  C   UNL     1       1.708  -3.911  -0.027  0.00  0.00    -0.013 C 
BRANCH  16  21
ATOM     17  C   UNL     1       0.546   1.655   0.412  0.00  0.00    +0.007 C 
ATOM     18  C   UNL     1       0.415   0.132   0.344  0.00  0.00    -0.018 C 
ATOM     19  C   UNL     1       0.947  -0.368  -1.002  0.00  0.00    -0.015 C 
ATOM     20  C   UNL     1       0.886  -1.897  -1.033  0.00  0.00    -0.078 C 
ATOM     21  N   UNL     1       1.707  -2.444   0.054  0.00  0.00    +0.386 N 
ATOM     22  C   UNL     1       1.160  -2.027   1.350  0.00  0.00    -0.078 C 
ATOM     23  C   UNL     1       1.232  -0.504   1.472  0.00  0.00    -0.015 C 
ATOM     24  H   UNL     1       2.653  -2.104  -0.036  0.00  0.00    -0.081 HD
ENDBRANCH  16  21
BRANCH  16  25
ATOM     25  C   UNL     1       2.488  -4.477   1.132  0.00  0.00    -0.022 A 
ATOM     26  C   UNL     1       2.220  -5.569   1.889  0.00  0.00    +0.009 A 
ATOM     27  C   UNL     1       3.086  -5.905   2.912  0.00  0.00    +0.008 A 
ATOM     28  C   UNL     1       4.179  -5.132   3.128  0.00  0.00    +0.045 A 
ATOM     29  S   UNL     1       4.009  -3.889   1.858  0.00  0.00    -0.103 S 
ENDBRANCH  16  25
ENDBRANCH   1  16
TORSDOF 8
