REMARK  Name = ZINC04126995
REMARK  7 active torsions:
REMARK  status: ('A' for Active; 'I' for Inactive)
REMARK    1  A    between atoms: C_1  and  C_2
REMARK    2  A    between atoms: C_4  and  C_28
REMARK    3  A    between atoms: C_5  and  S_10
REMARK    4  A    between atoms: C_7  and  O_8
REMARK    5  A    between atoms: O_8  and  C_9
REMARK    6  A    between atoms: S_10  and  N_13
REMARK    7  A    between atoms: C_18  and  N_63
REMARK                            x       y       z     vdW  Elec       q    Type
REMARK                         _______ _______ _______ _____ _____    ______ ____
ROOT
ATOM      1  N   UNL     1      -0.872   3.042   1.182  0.00  0.00    -0.180 NA
ATOM      2  C   UNL     1      -0.731   1.581   1.268  0.00  0.00    +0.091 C 
ATOM      3  C   UNL     1      -0.013   1.086   0.008  0.00  0.00    -0.061 C 
ATOM      4  C   UNL     1      -0.705   3.040  -1.250  0.00  0.00    -0.061 C 
ATOM      5  C   UNL     1      -1.452   3.615  -0.042  0.00  0.00    +0.091 C 
ATOM      6  N   UNL     1      -0.753   1.564  -1.180  0.00  0.00    +0.385 N 
ATOM      7  H   UNL     1      -1.733   1.266  -1.103  0.00  0.00    -0.081 HD
ENDROOT
BRANCH   6   8
ATOM      8  C   UNL     1      -0.170   0.981  -2.406  0.00  0.00    -0.065 C 
ATOM      9  C   UNL     1       1.308   1.357  -2.530  0.00  0.00    -0.009 C 
ATOM     10  C   UNL     1       1.886   0.740  -3.805  0.00  0.00    -0.012 C 
ATOM     11  C   UNL     1       1.121   1.270  -5.020  0.00  0.00    +0.007 C 
ATOM     12  C   UNL     1      -0.357   0.894  -4.896  0.00  0.00    -0.012 C 
ATOM     13  C   UNL     1      -0.934   1.511  -3.620  0.00  0.00    -0.009 C 
ATOM     14  C   UNL     1      -0.492  -0.628  -4.833  0.00  0.00    +0.007 C 
ATOM     15  C   UNL     1       0.273  -1.158  -3.618  0.00  0.00    -0.012 C 
ATOM     16  C   UNL     1       1.751  -0.782  -3.742  0.00  0.00    +0.007 C 
ATOM     17  C   UNL     1      -0.305  -0.542  -2.343  0.00  0.00    -0.009 C 
ENDBRANCH   6   8
BRANCH   1  18
ATOM     18  S   UNL     1      -0.390   4.017   2.431  0.00  0.00    +0.061 S 
ATOM     19  O   UNL     1       0.587   3.288   3.162  0.00  0.00    -0.153 OA
ATOM     20  O   UNL     1      -0.125   5.295   1.870  0.00  0.00    -0.153 OA
BRANCH  18  25
ATOM     21  C   UNL     1      -5.143   4.700   6.090  0.00  0.00    +0.047 C 
ATOM     22  C   UNL     1      -3.956   4.529   5.178  0.00  0.00    -0.008 A 
ATOM     23  C   UNL     1      -3.995   5.030   3.891  0.00  0.00    +0.012 A 
ATOM     24  C   UNL     1      -2.904   4.878   3.055  0.00  0.00    -0.024 A 
ATOM     25  C   UNL     1      -1.776   4.215   3.502  0.00  0.00    +0.112 A 
ATOM     26  C   UNL     1      -1.731   3.712   4.787  0.00  0.00    +0.074 A 
ATOM     27  C   UNL     1      -2.823   3.869   5.630  0.00  0.00    +0.125 A 
ATOM     28  C   UNL     1      -2.947   5.431   1.654  0.00  0.00    +0.046 C 
BRANCH  27  29
ATOM     29  O   UNL     1      -2.781   3.376   6.896  0.00  0.00    -0.495 OA
ATOM     30  C   UNL     1      -1.582   2.707   7.293  0.00  0.00    +0.277 C 
ENDBRANCH  27  29
ENDBRANCH  18  25
ENDBRANCH   1  18
TORSDOF 4
