REMARK  Name = ZINC07884419
REMARK  8 active torsions:
REMARK  status: ('A' for Active; 'I' for Inactive)
REMARK    1  A    between atoms: C_1  and  O_2
REMARK    2  A    between atoms: O_2  and  C_3
REMARK    3  A    between atoms: C_6  and  C_9
REMARK    4  A    between atoms: C_9  and  C_10
REMARK    5  A    between atoms: C_10  and  N_11
REMARK    6  A    between atoms: C_12  and  C_23
REMARK    7  A    between atoms: C_27  and  O_30
REMARK    8  A    between atoms: C_28  and  O_29
REMARK                            x       y       z     vdW  Elec       q    Type
REMARK                         _______ _______ _______ _____ _____    ______ ____
ROOT
ATOM      1  N   UNL     1       4.749   0.172  -0.619  0.00  0.00    -0.275 N 
ATOM      2  C   UNL     1       3.724  -0.695  -0.038  0.00  0.00    +0.196 C 
ATOM      3  N   UNL     1       3.591  -1.922  -0.831  0.00  0.00    -0.321 N 
ATOM      4  C   UNL     1       3.561  -1.817  -2.217  0.00  0.00    +0.041 A 
ATOM      5  C   UNL     1       2.872  -2.721  -3.007  0.00  0.00    +0.024 A 
ATOM      6  C   UNL     1       2.872  -2.568  -4.380  0.00  0.00    +0.002 A 
ATOM      7  C   UNL     1       3.555  -1.518  -4.972  0.00  0.00    +0.001 A 
ATOM      8  C   UNL     1       4.248  -0.609  -4.200  0.00  0.00    +0.015 A 
ATOM      9  C   UNL     1       4.258  -0.752  -2.815  0.00  0.00    +0.058 A 
ATOM     10  C   UNL     1       4.989   0.186  -1.943  0.00  0.00    +0.250 C 
ATOM     11  O   UNL     1       5.798   0.961  -2.415  0.00  0.00    -0.270 OA
ATOM     12  H   UNL     1       3.525  -2.788  -0.399  0.00  0.00    +0.148 HD
ENDROOT
BRANCH   2  13
ATOM     13  C   UNL     1       2.405   0.035  -0.021  0.00  0.00    +0.036 A 
ATOM     14  C   UNL     1       2.379   1.417  -0.013  0.00  0.00    +0.011 A 
ATOM     15  C   UNL     1       1.171   2.089   0.002  0.00  0.00    +0.004 A 
ATOM     16  C   UNL     1      -0.017   1.381   0.010  0.00  0.00    +0.049 A 
ATOM     17  C   UNL     1       0.002  -0.004   0.002  0.00  0.00    +0.159 A 
ATOM     18  C   UNL     1       1.218  -0.680  -0.013  0.00  0.00    +0.165 A 
BRANCH  18  19
ATOM     19  O   UNL     1       1.242  -2.040  -0.021  0.00  0.00    -0.503 OA
ATOM     20  H   UNL     1       1.241  -2.428  -0.907  0.00  0.00    +0.292 HD
ENDBRANCH  18  19
BRANCH  17  21
ATOM     21  O   UNL     1      -1.165  -0.702   0.009  0.00  0.00    -0.503 OA
ATOM     22  H   UNL     1      -1.511  -0.898  -0.872  0.00  0.00    +0.292 HD
ENDBRANCH  17  21
ENDBRANCH   2  13
BRANCH   1  23
ATOM     23  C   UNL     1       5.532   1.047   0.257  0.00  0.00    +0.115 C 
BRANCH  23  24
ATOM     24  C   UNL     1       6.784   0.306   0.730  0.00  0.00    +0.054 C 
BRANCH  24  28
ATOM     25  C   UNL     1       9.069   2.858   3.286  0.00  0.00    +0.120 A 
ATOM     26  C   UNL     1       8.093   2.030   3.823  0.00  0.00    +0.046 A 
ATOM     27  C   UNL     1       7.356   1.206   2.994  0.00  0.00    +0.007 A 
ATOM     28  C   UNL     1       7.590   1.206   1.632  0.00  0.00    -0.046 A 
ATOM     29  C   UNL     1       8.566   2.026   1.095  0.00  0.00    +0.007 A 
ATOM     30  C   UNL     1       9.302   2.856   1.918  0.00  0.00    +0.046 A 
BRANCH  25  32
ATOM     31  C   UNL     1      10.783   4.494   3.477  0.00  0.00    +0.277 C 
ATOM     32  O   UNL     1       9.796   3.669   4.099  0.00  0.00    -0.495 OA
ENDBRANCH  25  32
ENDBRANCH  24  28
ENDBRANCH  23  24
ENDBRANCH   1  23
TORSDOF 7
