REMARK  Name = ZINC39880213
REMARK  6 active torsions:
REMARK  status: ('A' for Active; 'I' for Inactive)
REMARK    1  A    between atoms: C_1  and  C_2
REMARK    2  A    between atoms: N_15  and  C_29
REMARK    3  A    between atoms: C_16  and  C_18
REMARK    4  A    between atoms: C_21  and  O_24
REMARK    5  A    between atoms: O_24  and  C_25
REMARK    6  A    between atoms: C_25  and  C_26
REMARK                            x       y       z     vdW  Elec       q    Type
REMARK                         _______ _______ _______ _____ _____    ______ ____
ROOT
ATOM      1  C   UNL     1      -0.018   1.503   0.010  0.00  0.00    +0.044 C 
ATOM      2  C   UNL     1       0.002  -0.004   0.002  0.00  0.00    -0.050 A 
ATOM      3  C   UNL     1       0.006  -0.689  -1.205  0.00  0.00    +0.007 A 
ATOM      4  C   UNL     1       0.022  -2.065  -1.235  0.00  0.00    +0.047 A 
ATOM      5  C   UNL     1       0.035  -2.790  -0.043  0.00  0.00    +0.139 A 
ATOM      6  C   UNL     1       0.037  -2.086   1.172  0.00  0.00    +0.065 A 
ATOM      7  C   UNL     1       0.023  -0.692   1.183  0.00  0.00    +0.018 A 
ATOM      8  C   UNL     1       0.068  -2.849   2.446  0.00  0.00    +0.199 A 
ATOM      9  O   UNL     1      -0.097  -2.332   3.537  0.00  0.00    -0.287 OA
ATOM     10  C   UNL     1       0.315  -4.283   2.265  0.00  0.00    +0.072 A 
ATOM     11  C   UNL     1       0.295  -4.850   1.023  0.00  0.00    +0.199 A 
ATOM     12  O   UNL     1       0.044  -4.142  -0.096  0.00  0.00    -0.450 OA
ATOM     13  C   UNL     1       0.584  -6.287   1.166  0.00  0.00    +0.287 C 
ATOM     14  O   UNL     1       0.645  -7.080   0.247  0.00  0.00    -0.266 OA
ATOM     15  N   UNL     1       0.772  -6.595   2.465  0.00  0.00    -0.253 N 
ATOM     16  C   UNL     1       0.615  -5.362   3.253  0.00  0.00    +0.150 C 
ENDROOT
BRANCH  15  17
ATOM     17  C   UNL     1       1.064  -7.864   2.975  0.00  0.00    +0.038 A 
ATOM     18  C   UNL     1       1.228  -8.044   4.343  0.00  0.00    +0.026 A 
ATOM     19  C   UNL     1       1.516  -9.298   4.844  0.00  0.00    +0.040 A 
ATOM     20  C   UNL     1       1.642 -10.376   3.984  0.00  0.00    +0.124 A 
ATOM     21  C   UNL     1       1.479 -10.200   2.620  0.00  0.00    +0.040 A 
ATOM     22  C   UNL     1       1.186  -8.948   2.115  0.00  0.00    +0.026 A 
ATOM     23  F   UNL     1       1.924 -11.602   4.476  0.00  0.00    -0.205 F 
ENDBRANCH  15  17
BRANCH  16  24
ATOM     24  C   UNL     1      -0.526  -5.508   4.227  0.00  0.00    -0.022 A 
ATOM     25  C   UNL     1      -1.667  -6.194   3.854  0.00  0.00    +0.009 A 
ATOM     26  C   UNL     1      -2.715  -6.330   4.744  0.00  0.00    +0.046 A 
ATOM     27  C   UNL     1      -2.622  -5.776   6.013  0.00  0.00    +0.121 A 
ATOM     28  C   UNL     1      -1.476  -5.088   6.384  0.00  0.00    +0.046 A 
ATOM     29  C   UNL     1      -0.429  -4.960   5.492  0.00  0.00    +0.009 A 
BRANCH  27  30
ATOM     30  O   UNL     1      -3.651  -5.907   6.890  0.00  0.00    -0.483 OA
BRANCH  30  31
ATOM     31  C   UNL     1      -3.486  -5.312   8.179  0.00  0.00    +0.324 C 
BRANCH  31  32
ATOM     32  C   UNL     1      -4.720  -5.558   9.008  0.00  0.00    +0.248 C 
ATOM     33  O   UNL     1      -5.649  -6.182   8.542  0.00  0.00    -0.272 OA
ATOM     34  N   UNL     1      -4.790  -5.085  10.268  0.00  0.00    -0.327 N 
ATOM     35  H   UNL     1      -4.046  -4.586  10.641  0.00  0.00    +0.145 HD
ATOM     36  H   UNL     1      -5.584  -5.243  10.802  0.00  0.00    +0.145 HD
ENDBRANCH  31  32
ENDBRANCH  30  31
ENDBRANCH  27  30
ENDBRANCH  16  24
TORSDOF 5
