REMARK  Name = ZINC04237608
REMARK  5 active torsions:
REMARK  status: ('A' for Active; 'I' for Inactive)
REMARK    1  A    between atoms: C_1  and  C_2
REMARK    2  A    between atoms: C_9  and  N_26
REMARK    3  A    between atoms: C_10  and  C_24
REMARK    4  A    between atoms: C_11  and  C_13
REMARK    5  A    between atoms: C_22  and  O_23
REMARK                            x       y       z     vdW  Elec       q    Type
REMARK                         _______ _______ _______ _____ _____    ______ ____
ROOT
ATOM      1  C   UNL     1      -0.180   1.215   0.195  0.00  0.00    +0.068 C 
ATOM      2  C   UNL     1      -0.113  -0.281   0.029  0.00  0.00    +0.068 A 
ATOM      3  C   UNL     1      -0.037  -0.965  -1.176  0.00  0.00    +0.049 A 
ATOM      4  C   UNL     1       0.007  -2.304  -0.902  0.00  0.00    +0.222 A 
ATOM      5  N   UNL     1      -0.040  -2.446   0.432  0.00  0.00    -0.246 N 
ATOM      6  H   UNL     1      -0.026  -3.286   0.918  0.00  0.00    +0.192 HD
ATOM      7  N   UNL     1      -0.109  -1.164   1.000  0.00  0.00    -0.176 NA
ATOM      8  O   UNL     1       0.087  -3.248  -1.872  0.00  0.00    -0.423 OA
ATOM      9  C   UNL     1       0.399  -2.837  -3.119  0.00  0.00    +0.200 C 
ATOM     10  C   UNL     1       0.379  -1.545  -3.512  0.00  0.00    +0.098 C 
ATOM     11  C   UNL     1      -0.005  -0.421  -2.581  0.00  0.00    +0.105 C 
ENDROOT
BRANCH  11  12
ATOM     12  C   UNL     1      -1.367   0.105  -2.954  0.00  0.00    +0.015 A 
ATOM     13  C   UNL     1      -1.524   1.445  -3.344  0.00  0.00    -0.010 A 
ATOM     14  C   UNL     1      -0.426   2.322  -3.397  0.00  0.00    +0.009 A 
ATOM     15  C   UNL     1      -0.615   3.614  -3.780  0.00  0.00    +0.001 A 
ATOM     16  C   UNL     1      -1.882   4.084  -4.121  0.00  0.00    +0.001 A 
ATOM     17  C   UNL     1      -2.967   3.264  -4.082  0.00  0.00    +0.008 A 
ATOM     18  C   UNL     1      -2.812   1.923  -3.692  0.00  0.00    -0.017 A 
ATOM     19  C   UNL     1      -3.911   1.047  -3.640  0.00  0.00    +0.012 A 
ATOM     20  C   UNL     1      -3.726  -0.245  -3.258  0.00  0.00    +0.046 A 
ATOM     21  C   UNL     1      -2.455  -0.720  -2.920  0.00  0.00    +0.122 A 
BRANCH  21  22
ATOM     22  O   UNL     1      -2.301  -2.018  -2.548  0.00  0.00    -0.506 OA
ATOM     23  H   UNL     1      -2.400  -2.169  -1.598  0.00  0.00    +0.292 HD
ENDBRANCH  21  22
ENDBRANCH  11  12
BRANCH   9  24
ATOM     24  N   UNL     1       0.758  -3.788  -4.041  0.00  0.00    -0.328 N 
ATOM     25  H   UNL     1       0.782  -4.724  -3.788  0.00  0.00    +0.145 HD
ATOM     26  H   UNL     1       0.988  -3.524  -4.946  0.00  0.00    +0.145 HD
ENDBRANCH   9  24
BRANCH  10  27
ATOM     27  C   UNL     1       0.735  -1.229  -4.863  0.00  0.00    +0.101 C 
ATOM     28  N   UNL     1       1.018  -0.979  -5.934  0.00  0.00    -0.191 NA
ENDBRANCH  10  27
TORSDOF 4
