REMARK  Name = ZINC37612188
REMARK  4 active torsions:
REMARK  status: ('A' for Active; 'I' for Inactive)
REMARK    1  A    between atoms: C_6  and  C_7
REMARK    2  A    between atoms: N_13  and  C_16
REMARK    3  A    between atoms: C_16  and  C_17
REMARK    4  A    between atoms: C_24  and  C_26
REMARK                            x       y       z     vdW  Elec       q    Type
REMARK                         _______ _______ _______ _____ _____    ______ ____
ROOT
ATOM      1  C   UNL     1      -1.245  -1.015  -0.110  0.00  0.00    +0.247 C 
ATOM      2  O   UNL     1      -2.339  -0.485  -0.099  0.00  0.00    -0.270 OA
ATOM      3  N   UNL     1      -1.148  -2.359  -0.113  0.00  0.00    -0.299 N 
ATOM      4  C   UNL     1       0.189  -2.977   0.003  0.00  0.00    +0.106 C 
ATOM      5  C   UNL     1       0.157  -4.194   0.944  0.00  0.00    +0.000 C 
ATOM      6  C   UNL     1      -0.736  -3.893   2.127  0.00  0.00    -0.077 C 
ATOM      7  N   UNL     1      -2.087  -4.375   1.848  0.00  0.00    +0.382 N 
ATOM      8  C   UNL     1      -2.921  -3.454   1.178  0.00  0.00    -0.059 C 
ATOM      9  C   UNL     1      -2.358  -3.147  -0.224  0.00  0.00    +0.089 C 
ATOM     10  H   UNL     1      -2.017  -5.209   1.285  0.00  0.00    -0.082 HD
ENDROOT
BRANCH   1  16
ATOM     11  C   UNL     1       1.120  -0.630  -0.788  0.00  0.00    +0.016 A 
ATOM     12  C   UNL     1       2.258   0.148  -0.794  0.00  0.00    +0.039 A 
ATOM     13  C   UNL     1       2.269   1.369  -0.138  0.00  0.00    +0.123 A 
ATOM     14  C   UNL     1       1.138   1.815   0.528  0.00  0.00    +0.039 A 
ATOM     15  C   UNL     1      -0.005   1.045   0.541  0.00  0.00    +0.016 A 
ATOM     16  C   UNL     1      -0.022  -0.186  -0.119  0.00  0.00    +0.037 A 
ATOM     17  F   UNL     1       3.388   2.127  -0.147  0.00  0.00    -0.205 F 
ENDBRANCH   1  16
BRANCH   7  18
ATOM     18  C   UNL     1      -2.723  -4.735   3.122  0.00  0.00    -0.045 C 
BRANCH  18  19
ATOM     19  C   UNL     1      -4.087  -5.372   2.849  0.00  0.00    +0.119 C 
ATOM     20  C   UNL     1      -4.748  -5.757   4.178  0.00  0.00    +0.137 C 
ATOM     21  N   UNL     1      -5.964  -6.531   3.884  0.00  0.00    -0.293 N 
ATOM     22  C   UNL     1      -5.853  -7.669   2.958  0.00  0.00    +0.136 C 
ATOM     23  C   UNL     1      -5.138  -7.191   1.688  0.00  0.00    +0.179 C 
ATOM     24  O   UNL     1      -3.915  -6.545   2.050  0.00  0.00    -0.375 OA
ATOM     25  C   UNL     1      -7.146  -6.208   4.447  0.00  0.00    +0.250 C 
ATOM     26  O   UNL     1      -7.239  -5.209   5.133  0.00  0.00    -0.270 OA
BRANCH  25  27
ATOM     27  C   UNL     1      -8.324  -7.066   4.231  0.00  0.00    +0.074 A 
ATOM     28  C   UNL     1      -8.339  -8.525   4.044  0.00  0.00    +0.054 A 
ATOM     29  C   UNL     1      -9.628  -8.863   3.885  0.00  0.00    +0.195 A 
ATOM     30  O   UNL     1     -10.385  -7.756   3.957  0.00  0.00    -0.470 OA
ATOM     31  C   UNL     1      -9.629  -6.675   4.168  0.00  0.00    +0.207 A 
ENDBRANCH  25  27
ENDBRANCH  18  19
ENDBRANCH   7  18
TORSDOF 4
