REMARK  Name = ZINC14012652
REMARK  4 active torsions:
REMARK  status: ('A' for Active; 'I' for Inactive)
REMARK    1  A    between atoms: C_3  and  N_9
REMARK    2  A    between atoms: C_10  and  C_12
REMARK    3  A    between atoms: C_12  and  C_13
REMARK    4  A    between atoms: N_24  and  C_27
REMARK                            x       y       z     vdW  Elec       q    Type
REMARK                         _______ _______ _______ _____ _____    ______ ____
ROOT
ATOM      1  C   UNL     1      -4.867   2.315  -0.042  0.00  0.00    +0.112 C 
ATOM      2  C   UNL     1      -5.527   3.701  -0.063  0.00  0.00    +0.103 C 
ATOM      3  S   UNL     1      -4.059   4.789  -0.173  0.00  0.00    -0.085 S 
ATOM      4  C   UNL     1      -2.781   3.549  -0.187  0.00  0.00    +0.174 A 
ATOM      5  N   UNL     1      -3.407   2.338  -0.112  0.00  0.00    -0.283 N 
ATOM      6  C   UNL     1      -2.614   1.218  -0.108  0.00  0.00    +0.266 A 
ATOM      7  O   UNL     1      -3.120   0.111  -0.043  0.00  0.00    -0.267 OA
ATOM      8  C   UNL     1      -1.210   1.350  -0.179  0.00  0.00    +0.103 A 
ATOM      9  C   UNL     1      -0.135   0.436  -0.196  0.00  0.00    +0.150 A 
ATOM     10  N   UNL     1       0.978   1.108  -0.279  0.00  0.00    -0.172 NA
ATOM     11  N   UNL     1       0.697   2.480  -0.315  0.00  0.00    -0.214 N 
ATOM     12  C   UNL     1      -0.654   2.638  -0.250  0.00  0.00    +0.171 A 
ATOM     13  N   UNL     1      -1.476   3.692  -0.245  0.00  0.00    -0.203 NA
ENDROOT
BRANCH  11  14
ATOM     14  C   UNL     1       1.642   3.510  -0.403  0.00  0.00    +0.068 A 
ATOM     15  C   UNL     1       1.352   4.660  -1.126  0.00  0.00    +0.030 A 
ATOM     16  C   UNL     1       2.282   5.677  -1.206  0.00  0.00    +0.040 A 
ATOM     17  C   UNL     1       3.508   5.547  -0.576  0.00  0.00    +0.124 A 
ATOM     18  C   UNL     1       3.802   4.399   0.141  0.00  0.00    +0.040 A 
ATOM     19  C   UNL     1       2.872   3.382   0.229  0.00  0.00    +0.030 A 
ATOM     20  F   UNL     1       4.419   6.541  -0.660  0.00  0.00    -0.205 F 
ENDBRANCH  11  14
BRANCH   1  21
ATOM     21  C   UNL     1      -5.280   1.600   1.246  0.00  0.00    +0.122 C 
BRANCH  21  23
ATOM     22  N   UNL     1      -7.380   0.911   2.357  0.00  0.00    -0.284 N 
ATOM     23  C   UNL     1      -6.777   1.428   1.268  0.00  0.00    +0.219 C 
ATOM     24  O   UNL     1      -7.439   1.754   0.306  0.00  0.00    -0.275 OA
ATOM     25  H   UNL     1      -6.862   0.720   3.154  0.00  0.00    +0.155 HD
BRANCH  22  28
ATOM     26  C   UNL     1     -10.775   0.243   1.109  0.00  0.00    +0.003 A 
ATOM     27  C   UNL     1      -9.419   0.506   1.126  0.00  0.00    +0.025 A 
ATOM     28  C   UNL     1      -8.755   0.649   2.337  0.00  0.00    +0.053 A 
ATOM     29  C   UNL     1      -9.460   0.539   3.530  0.00  0.00    +0.080 A 
ATOM     30  C   UNL     1     -10.819   0.281   3.506  0.00  0.00    +0.061 A 
ATOM     31  C   UNL     1     -11.475   0.133   2.297  0.00  0.00    +0.021 A 
ATOM     32 CL   UNL     1     -11.701   0.142   4.995  0.00  0.00    -0.082 Cl
ATOM     33 CL   UNL     1      -8.636   0.725   5.047  0.00  0.00    -0.080 Cl
ENDBRANCH  22  28
ENDBRANCH  21  23
ENDBRANCH   1  21
TORSDOF 4
