REMARK  Name = ZINC16669636
REMARK  6 active torsions:
REMARK  status: ('A' for Active; 'I' for Inactive)
REMARK    1  A    between atoms: C_1  and  C_2
REMARK    2  A    between atoms: C_12  and  C_14
REMARK    3  A    between atoms: C_14  and  S_15
REMARK    4  A    between atoms: S_15  and  C_16
REMARK    5  A    between atoms: N_20  and  C_21
REMARK    6  A    between atoms: C_24  and  C_28
REMARK                            x       y       z     vdW  Elec       q    Type
REMARK                         _______ _______ _______ _____ _____    ______ ____
ROOT
ATOM      1  C   UNL     1      -5.320   3.458  -2.685  0.00  0.00    +0.173 C 
ENDROOT
BRANCH   1  13
ATOM      2  C   UNL     1      -8.590  -2.053 -10.397  0.00  0.00    +0.044 C 
ATOM      3  C   UNL     1      -7.979  -1.297  -9.246  0.00  0.00    -0.049 A 
ATOM      4  C   UNL     1      -6.694  -1.597  -8.815  0.00  0.00    +0.005 A 
ATOM      5  C   UNL     1      -6.115  -0.926  -7.769  0.00  0.00    +0.029 A 
ATOM      6  C   UNL     1      -6.814   0.101  -7.094  0.00  0.00    +0.080 A 
ATOM      7  C   UNL     1      -8.120   0.378  -7.560  0.00  0.00    +0.041 A 
ATOM      8  C   UNL     1      -8.692  -0.299  -8.607  0.00  0.00    +0.020 A 
ATOM      9  S   UNL     1      -8.640   1.684  -6.473  0.00  0.00    -0.052 S 
ATOM     10  C   UNL     1      -7.139   1.784  -5.508  0.00  0.00    +0.165 A 
ATOM     11  N   UNL     1      -6.392   0.853  -6.055  0.00  0.00    -0.225 NA
ATOM     12  N   UNL     1      -6.842   2.625  -4.447  0.00  0.00    -0.264 N 
ATOM     13  C   UNL     1      -5.643   2.543  -3.838  0.00  0.00    +0.229 C 
ATOM     14  O   UNL     1      -4.824   1.733  -4.217  0.00  0.00    -0.275 OA
ATOM     15  H   UNL     1      -7.497   3.273  -4.144  0.00  0.00    +0.157 HD
ENDBRANCH   1  13
BRANCH   1  16
ATOM     16  S   UNL     1      -3.649   3.107  -2.085  0.00  0.00    -0.076 S 
BRANCH  16  17
ATOM     17  C   UNL     1      -3.538   4.284  -0.779  0.00  0.00    +0.196 A 
ATOM     18  N   UNL     1      -4.468   5.136  -0.415  0.00  0.00    -0.122 NA
ATOM     19  N   UNL     1      -4.049   5.848   0.569  0.00  0.00    -0.137 NA
ATOM     20  C   UNL     1      -2.838   5.494   0.895  0.00  0.00    +0.230 A 
ATOM     21  N   UNL     1      -2.468   4.481   0.050  0.00  0.00    -0.277 N 
BRANCH  21  22
ATOM     22  C   UNL     1      -1.246   3.794   0.034  0.00  0.00    +0.051 A 
ATOM     23  C   UNL     1      -0.051   4.501   0.027  0.00  0.00    +0.026 A 
ATOM     24  C   UNL     1       1.152   3.822   0.012  0.00  0.00    +0.007 A 
ATOM     25  C   UNL     1       1.168   2.439   0.004  0.00  0.00    -0.032 A 
ATOM     26  C   UNL     1      -0.021   1.732   0.012  0.00  0.00    +0.046 A 
ATOM     27  C   UNL     1      -1.228   2.406   0.021  0.00  0.00    +0.046 A 
ATOM     28 CL   UNL     1       0.002  -0.004   0.002  0.00  0.00    -0.083 Cl
ATOM     29  C   UNL     1       2.482   1.702  -0.013  0.00  0.00    +0.045 C 
ENDBRANCH  21  22
ENDBRANCH  16  17
ENDBRANCH   1  16
TORSDOF 4
