REMARK  Name = ZINC09243681
REMARK  9 active torsions:
REMARK  status: ('A' for Active; 'I' for Inactive)
REMARK    1  A    between atoms: C_1  and  C_2
REMARK    2  A    between atoms: C_4  and  C_32
REMARK    3  A    between atoms: C_5  and  O_31
REMARK    4  A    between atoms: C_6  and  C_8
REMARK    5  A    between atoms: N_16  and  C_27
REMARK    6  A    between atoms: C_17  and  C_19
REMARK    7  A    between atoms: C_27  and  C_28
REMARK    8  A    between atoms: C_28  and  C_29
REMARK    9  A    between atoms: C_29  and  O_30
REMARK                            x       y       z     vdW  Elec       q    Type
REMARK                         _______ _______ _______ _____ _____    ______ ____
ROOT
ATOM      1  C   UNL     1      -0.031  -2.990   2.559  0.00  0.00    +0.075 A 
ATOM      2  C   UNL     1       1.067  -3.637   3.028  0.00  0.00    +0.035 A 
ATOM      3  C   UNL     1       0.693  -4.185   4.276  0.00  0.00    +0.153 A 
ATOM      4  N   UNL     1      -0.565  -3.849   4.481  0.00  0.00    -0.168 NA
ATOM      5  N   UNL     1      -1.009  -3.147   3.499  0.00  0.00    -0.276 N 
ATOM      6  H   UNL     1      -1.907  -2.786   3.434  0.00  0.00    +0.189 HD
ATOM      7  C   UNL     1       1.860  -4.900   4.824  0.00  0.00    +0.268 C 
ATOM      8  O   UNL     1       1.875  -5.487   5.888  0.00  0.00    -0.268 OA
ATOM      9  N   UNL     1       2.903  -4.811   3.982  0.00  0.00    -0.285 N 
ATOM     10  C   UNL     1       2.503  -4.028   2.807  0.00  0.00    +0.141 C 
ENDROOT
BRANCH   1  16
ATOM     11  C   UNL     1      -2.015  -2.524  -1.995  0.00  0.00    +0.044 C 
ATOM     12  C   UNL     1      -1.095  -2.023  -0.911  0.00  0.00    -0.049 A 
ATOM     13  C   UNL     1      -0.355  -0.871  -1.113  0.00  0.00    +0.010 A 
ATOM     14  C   UNL     1       0.491  -0.403  -0.126  0.00  0.00    -0.008 A 
ATOM     15  C   UNL     1       0.603  -1.087   1.074  0.00  0.00    +0.129 A 
ATOM     16  C   UNL     1      -0.144  -2.252   1.282  0.00  0.00    +0.042 A 
ATOM     17  C   UNL     1      -0.999  -2.712   0.280  0.00  0.00    +0.017 A 
ATOM     18  C   UNL     1       1.294   0.852  -0.354  0.00  0.00    +0.047 C 
BRANCH  15  19
ATOM     19  O   UNL     1       1.435  -0.628   2.045  0.00  0.00    -0.506 OA
ATOM     20  H   UNL     1       1.039   0.044   2.617  0.00  0.00    +0.292 HD
ENDBRANCH  15  19
ENDBRANCH   1  16
BRANCH  10  21
ATOM     21  C   UNL     1       2.625  -4.866   1.560  0.00  0.00    -0.021 A 
ATOM     22  C   UNL     1       2.127  -6.155   1.542  0.00  0.00    +0.007 A 
ATOM     23  C   UNL     1       2.239  -6.924   0.399  0.00  0.00    +0.022 A 
ATOM     24  C   UNL     1       2.849  -6.404  -0.728  0.00  0.00    +0.059 A 
ATOM     25  C   UNL     1       3.348  -5.112  -0.710  0.00  0.00    +0.060 A 
ATOM     26  C   UNL     1       3.231  -4.342   0.433  0.00  0.00    +0.027 A 
ATOM     27 CL   UNL     1       4.115  -4.458  -2.123  0.00  0.00    -0.082 Cl
ATOM     28 CL   UNL     1       2.991  -7.370  -2.163  0.00  0.00    -0.082 Cl
ENDBRANCH  10  21
BRANCH   9  29
ATOM     29  C   UNL     1       4.226  -5.401   4.201  0.00  0.00    +0.111 C 
BRANCH  29  30
ATOM     30  C   UNL     1       4.257  -6.815   3.618  0.00  0.00    +0.047 C 
BRANCH  30  31
ATOM     31  C   UNL     1       5.639  -7.431   3.847  0.00  0.00    +0.157 C 
BRANCH  31  32
ATOM     32  O   UNL     1       5.668  -8.752   3.302  0.00  0.00    -0.395 OA
ATOM     33  H   UNL     1       6.516  -9.204   3.412  0.00  0.00    +0.209 HD
ENDBRANCH  31  32
ENDBRANCH  30  31
ENDBRANCH  29  30
ENDBRANCH   9  29
TORSDOF 7
