REMARK  Name = ZINC39687415
REMARK  7 active torsions:
REMARK  status: ('A' for Active; 'I' for Inactive)
REMARK    1  A    between atoms: C_1  and  C_2
REMARK    2  A    between atoms: C_2  and  C_3
REMARK    3  A    between atoms: C_3  and  C_4
REMARK    4  A    between atoms: C_3  and  C_6
REMARK    5  A    between atoms: C_4  and  C_5
REMARK    6  A    between atoms: C_10  and  C_19
REMARK    7  A    between atoms: N_21  and  C_22
REMARK                            x       y       z     vdW  Elec       q    Type
REMARK                         _______ _______ _______ _____ _____    ______ ____
ROOT
ATOM      1  C   UNL     1       1.121  -1.937   0.882  0.00  0.00    +0.219 C 
ATOM      2  O   UNL     1       0.751  -2.665   1.778  0.00  0.00    -0.275 OA
ATOM      3  N   UNL     1       1.796  -2.449  -0.167  0.00  0.00    -0.300 N 
ATOM      4  C   UNL     1       2.331  -1.725  -1.344  0.00  0.00    +0.121 C 
ATOM      5  C   UNL     1       3.698  -2.388  -1.622  0.00  0.00    +0.100 C 
ATOM      6  C   UNL     1       3.587  -3.792  -1.004  0.00  0.00    -0.004 C 
ATOM      7  C   UNL     1       2.177  -3.863  -0.399  0.00  0.00    +0.115 C 
ATOM      8  C   UNL     1       3.756  -4.859  -2.081  0.00  0.00    -0.010 C 
ATOM      9  C   UNL     1       3.700  -6.245  -1.433  0.00  0.00    -0.082 C 
ATOM     10  N   UNL     1       4.764  -6.362  -0.429  0.00  0.00    +0.379 N 
ATOM     11  C   UNL     1       4.542  -5.393   0.651  0.00  0.00    -0.082 C 
ATOM     12  C   UNL     1       4.634  -3.971   0.091  0.00  0.00    -0.010 C 
ATOM     13  H   UNL     1       4.764  -7.296  -0.047  0.00  0.00    -0.086 HD
ATOM     14  H   UNL     1       5.656  -6.180  -0.864  0.00  0.00    -0.086 HD
ENDROOT
BRANCH   5  15
ATOM     15  C   UNL     1       4.804  -1.607  -0.961  0.00  0.00    +0.218 C 
ATOM     16  O   UNL     1       4.607  -1.058   0.102  0.00  0.00    -0.275 OA
ATOM     17  N   UNL     1       6.013  -1.519  -1.551  0.00  0.00    -0.312 N 
ATOM     18  H   UNL     1       6.171  -1.958  -2.401  0.00  0.00    +0.149 HD
BRANCH  17  19
ATOM     19  C   UNL     1       7.088  -0.759  -0.908  0.00  0.00    +0.076 C 
ATOM     20  C   UNL     1       6.960   0.720  -1.279  0.00  0.00    +0.041 C 
ATOM     21  C   UNL     1       8.065   1.516  -0.578  0.00  0.00    +0.108 C 
ATOM     22  N   UNL     1       9.365   0.919  -0.915  0.00  0.00    -0.317 N 
ATOM     23  C   UNL     1       9.564  -0.518  -0.682  0.00  0.00    +0.108 C 
ATOM     24  C   UNL     1       8.443  -1.291  -1.383  0.00  0.00    +0.041 C 
ATOM     25  C   UNL     1      10.386   1.699  -1.444  0.00  0.00    +0.099 A 
ATOM     26  C   UNL     1      11.559   1.094  -1.885  0.00  0.00    +0.042 A 
ATOM     27  C   UNL     1      12.567   1.882  -2.409  0.00  0.00    +0.005 A 
ATOM     28  C   UNL     1      12.368   3.255  -2.477  0.00  0.00    +0.018 A 
ATOM     29  C   UNL     1      11.179   3.789  -2.022  0.00  0.00    +0.084 A 
ATOM     30  N   UNL     1      10.232   3.012  -1.530  0.00  0.00    -0.350 N 
ATOM     31  H   UNL     1       9.405   3.412  -1.221  0.00  0.00    +0.166 HD
ENDBRANCH  17  19
ENDBRANCH   5  15
BRANCH   1  32
ATOM     32  C   UNL     1       0.827  -0.461   0.939  0.00  0.00    +0.075 C 
BRANCH  32  34
ATOM     33  C   UNL     1      -0.197   1.458  -0.290  0.00  0.00    +0.004 C 
ATOM     34  C   UNL     1      -0.016  -0.061  -0.273  0.00  0.00    +0.009 C 
ENDBRANCH  32  34
BRANCH  32  35
ATOM     35  C   UNL     1       0.056  -0.144   2.223  0.00  0.00    +0.009 C 
ATOM     36  C   UNL     1       0.958  -0.390   3.433  0.00  0.00    +0.004 C 
ENDBRANCH  32  35
ENDBRANCH   1  32
TORSDOF 5
