REMARK  Name = ZINC04783925
REMARK  10 active torsions:
REMARK  status: ('A' for Active; 'I' for Inactive)
REMARK    1  A    between atoms: C_1  and  C_2
REMARK    2  A    between atoms: C_2  and  C_3
REMARK    3  A    between atoms: C_2  and  C_4
REMARK    4  A    between atoms: C_2  and  C_5
REMARK    5  A    between atoms: C_14  and  O_29
REMARK    6  A    between atoms: C_16  and  C_19
REMARK    7  A    between atoms: C_23  and  O_27
REMARK    8  A    between atoms: C_24  and  O_25
REMARK    9  A    between atoms: O_25  and  C_26
REMARK   10  A    between atoms: O_27  and  C_28
REMARK                            x       y       z     vdW  Elec       q    Type
REMARK                         _______ _______ _______ _____ _____    ______ ____
ROOT
ATOM      1  C   UNL     1       0.718  -0.497  -1.257  0.00  0.00    -0.000 C 
ATOM      2  C   UNL     1      -0.017   0.014  -2.499  0.00  0.00    +0.009 C 
ATOM      3  C   UNL     1       0.538  -0.670  -3.751  0.00  0.00    +0.037 C 
ATOM      4  C   UNL     1       2.052  -0.513  -3.763  0.00  0.00    -0.023 A 
ATOM      5  C   UNL     1       2.731  -0.196  -2.637  0.00  0.00    -0.004 A 
ATOM      6  S   UNL     1       4.429  -0.127  -3.137  0.00  0.00    -0.078 S 
ATOM      7  C   UNL     1       4.257  -0.500  -4.743  0.00  0.00    +0.080 A 
ATOM      8  C   UNL     1       2.883  -0.682  -4.940  0.00  0.00    +0.068 A 
ATOM      9  C   UNL     1       2.426  -1.017  -6.314  0.00  0.00    +0.220 C 
ATOM     10  N   UNL     1       3.333  -1.364  -7.186  0.00  0.00    -0.223 NA
ATOM     11  C   UNL     1       4.753  -1.508  -6.889  0.00  0.00    +0.227 C 
ATOM     12  N   UNL     1       5.164  -0.642  -5.769  0.00  0.00    -0.313 N 
ATOM     13  C   UNL     1       2.158   0.038  -1.273  0.00  0.00    +0.046 C 
ATOM     14  H   UNL     1       6.026  -0.197  -5.756  0.00  0.00    +0.149 HD
ENDROOT
BRANCH  11  15
ATOM     15  C   UNL     1       5.037  -2.943  -6.530  0.00  0.00    +0.040 A 
ATOM     16  C   UNL     1       5.987  -3.241  -5.570  0.00  0.00    +0.011 A 
ATOM     17  C   UNL     1       6.251  -4.556  -5.238  0.00  0.00    +0.004 A 
ATOM     18  C   UNL     1       5.566  -5.581  -5.865  0.00  0.00    +0.049 A 
ATOM     19  C   UNL     1       4.614  -5.290  -6.828  0.00  0.00    +0.162 A 
ATOM     20  C   UNL     1       4.344  -3.965  -7.157  0.00  0.00    +0.168 A 
BRANCH  20  21
ATOM     21  O   UNL     1       3.406  -3.675  -8.098  0.00  0.00    -0.491 OA
ATOM     22  C   UNL     1       3.851  -3.586  -9.453  0.00  0.00    +0.277 C 
ENDBRANCH  20  21
BRANCH  19  23
ATOM     23  O   UNL     1       3.939  -6.297  -7.445  0.00  0.00    -0.491 OA
ATOM     24  C   UNL     1       4.264  -7.632  -7.052  0.00  0.00    +0.277 C 
ENDBRANCH  19  23
ENDBRANCH  11  15
BRANCH   1  26
ATOM     25  C   UNL     1      -0.019   1.526   0.010  0.00  0.00    +0.011 C 
ATOM     26  C   UNL     1       0.002  -0.004   0.002  0.00  0.00    -0.035 C 
ATOM     27  C   UNL     1       0.742  -0.511   1.242  0.00  0.00    +0.011 C 
ATOM     28  C   UNL     1      -1.433  -0.534   0.013  0.00  0.00    +0.011 C 
ENDBRANCH   1  26
BRANCH   9  29
ATOM     29  O   UNL     1       1.116  -0.964  -6.648  0.00  0.00    -0.492 OA
ATOM     30  H   UNL     1       0.935  -1.202  -7.568  0.00  0.00    +0.294 HD
ENDBRANCH   9  29
TORSDOF 5
