REMARK  Name = ZINC08904705
REMARK  16 active torsions:
REMARK  status: ('A' for Active; 'I' for Inactive)
REMARK    1  A    between atoms: C_1  and  C_2
REMARK    2  A    between atoms: C_2  and  N_65
REMARK    3  A    between atoms: C_3  and  C_4
REMARK    4  A    between atoms: C_3  and  N_65
REMARK    5  A    between atoms: C_5  and  C_6
REMARK    6  A    between atoms: C_5  and  N_65
REMARK    7  A    between atoms: C_6  and  C_7
REMARK    8  A    between atoms: C_7  and  N_8
REMARK    9  A    between atoms: C_9  and  C_24
REMARK   10  A    between atoms: C_12  and  C_13
REMARK   11  A    between atoms: C_12  and  O_19
REMARK   12  A    between atoms: C_16  and  C_18
REMARK   13  A    between atoms: C_28  and  O_32
REMARK   14  A    between atoms: C_29  and  O_30
REMARK   15  A    between atoms: O_30  and  C_31
REMARK   16  A    between atoms: O_32  and  C_33
REMARK                            x       y       z     vdW  Elec       q    Type
REMARK                         _______ _______ _______ _____ _____    ______ ____
ROOT
ATOM      1  N   UNL     1      -6.697   2.989   1.232  0.00  0.00    -0.283 N 
ATOM      2  C   UNL     1      -6.145   3.098   2.586  0.00  0.00    +0.148 C 
ATOM      3  C   UNL     1      -4.716   2.613   2.509  0.00  0.00    +0.074 C 
ATOM      4  C   UNL     1      -3.804   2.538   3.552  0.00  0.00    +0.168 C 
ATOM      5  C   UNL     1      -4.495   2.260   1.174  0.00  0.00    +0.249 C 
ATOM      6  O   UNL     1      -3.453   1.826   0.713  0.00  0.00    -0.282 OA
ATOM      7  C   UNL     1      -5.749   2.502   0.414  0.00  0.00    +0.288 C 
ATOM      8  O   UNL     1      -5.895   2.294  -0.773  0.00  0.00    -0.266 OA
ENDROOT
BRANCH   4   9
ATOM      9  C   UNL     1      -2.458   2.184   3.292  0.00  0.00    +0.170 A 
ATOM     10  C   UNL     1      -1.718   1.238   3.976  0.00  0.00    +0.053 A 
ATOM     11  C   UNL     1      -0.449   1.220   3.383  0.00  0.00    +0.045 A 
ATOM     12  C   UNL     1      -0.460   2.132   2.384  0.00  0.00    +0.103 A 
ATOM     13  O   UNL     1      -1.667   2.713   2.335  0.00  0.00    -0.457 OA
ATOM     14  C   UNL     1       0.699   2.449   1.475  0.00  0.00    +0.086 C 
ENDBRANCH   4   9
BRANCH   2  15
ATOM     15  C   UNL     1      -6.179   4.534   3.042  0.00  0.00    +0.023 A 
ATOM     16  C   UNL     1      -5.043   5.317   2.945  0.00  0.00    +0.009 A 
ATOM     17  C   UNL     1      -5.072   6.636   3.357  0.00  0.00    +0.004 A 
ATOM     18  C   UNL     1      -6.234   7.175   3.880  0.00  0.00    +0.049 A 
ATOM     19  C   UNL     1      -7.373   6.394   3.986  0.00  0.00    +0.162 A 
ATOM     20  C   UNL     1      -7.345   5.068   3.565  0.00  0.00    +0.167 A 
BRANCH  20  21
ATOM     21  O   UNL     1      -8.461   4.297   3.666  0.00  0.00    -0.491 OA
ATOM     22  C   UNL     1      -8.697   3.659   4.923  0.00  0.00    +0.277 C 
ENDBRANCH  20  21
BRANCH  19  23
ATOM     23  O   UNL     1      -8.516   6.923   4.499  0.00  0.00    -0.491 OA
ATOM     24  C   UNL     1      -8.471   8.290   4.910  0.00  0.00    +0.277 C 
ENDBRANCH  19  23
ENDBRANCH   2  15
BRANCH   4  25
ATOM     25  O   UNL     1      -4.201   2.804   4.817  0.00  0.00    -0.503 OA
ATOM     26  H   UNL     1      -3.424   2.704   5.438  0.00  0.00    +0.292 HD
ENDBRANCH   4  25
BRANCH   1  27
ATOM     27  C   UNL     1      -8.060   3.352   0.836  0.00  0.00    +0.107 C 
BRANCH  27  28
ATOM     28  C   UNL     1      -8.066   4.773   0.271  0.00  0.00    +0.000 C 
BRANCH  28  29
ATOM     29  C   UNL     1      -9.505   5.198  -0.027  0.00  0.00    -0.077 C 
BRANCH  29  30
ATOM     30  N   UNL     1      -9.483   6.537  -0.654  0.00  0.00    +0.379 N 
ATOM     31  H   UNL     1      -8.787   7.119  -0.173  0.00  0.00    -0.082 HD
BRANCH  30  33
ATOM     32  C   UNL     1      -8.876   7.824  -2.644  0.00  0.00    -0.017 C 
ATOM     33  C   UNL     1      -9.109   6.421  -2.079  0.00  0.00    -0.082 C 
ENDBRANCH  30  33
BRANCH  30  34
ATOM     34  C   UNL     1     -10.811   7.174  -0.530  0.00  0.00    -0.082 C 
ATOM     35  C   UNL     1     -10.965   7.713   0.894  0.00  0.00    -0.017 C 
ENDBRANCH  30  34
ENDBRANCH  29  30
ENDBRANCH  28  29
ENDBRANCH  27  28
ENDBRANCH   1  27
TORSDOF 11
