REMARK  Name = ZINC16041266
REMARK  6 active torsions:
REMARK  status: ('A' for Active; 'I' for Inactive)
REMARK    1  A    between atoms: C_6  and  C_7
REMARK    2  A    between atoms: N_9  and  C_10
REMARK    3  A    between atoms: C_10  and  C_12
REMARK    4  A    between atoms: C_10  and  O_16
REMARK    5  A    between atoms: O_16  and  C_17
REMARK    6  A    between atoms: C_17  and  C_18
REMARK                            x       y       z     vdW  Elec       q    Type
REMARK                         _______ _______ _______ _____ _____    ______ ____
ROOT
ATOM      1  C   UNL     1       0.002  -0.004   0.002  0.00  0.00    +0.257 C 
ENDROOT
BRANCH   1   4
ATOM      2  C   UNL     1       1.665  -0.799   1.596  0.00  0.00    +0.246 C 
ATOM      3  O   UNL     1       2.511  -0.667   0.734  0.00  0.00    -0.270 OA
ATOM      4  N   UNL     1       0.379  -0.495   1.330  0.00  0.00    -0.283 N 
ATOM      5  H   UNL     1      -0.297  -0.600   2.018  0.00  0.00    +0.152 HD
BRANCH   2  11
ATOM      6  C   UNL     1       1.075  -1.442   3.929  0.00  0.00    +0.014 A 
ATOM      7  C   UNL     1       1.435  -1.908   5.176  0.00  0.00    +0.021 A 
ATOM      8  C   UNL     1       2.757  -2.221   5.447  0.00  0.00    +0.041 A 
ATOM      9  C   UNL     1       3.724  -2.071   4.466  0.00  0.00    +0.021 A 
ATOM     10  C   UNL     1       3.376  -1.611   3.214  0.00  0.00    +0.014 A 
ATOM     11  C   UNL     1       2.045  -1.294   2.936  0.00  0.00    +0.037 A 
ATOM     12 CL   UNL     1       3.204  -2.802   7.020  0.00  0.00    -0.084 Cl
ENDBRANCH   2  11
ENDBRANCH   1   4
BRANCH   1  13
ATOM     13  C   UNL     1      -1.388  -0.531  -0.361  0.00  0.00    +0.233 C 
ATOM     14 CL   UNL     1      -1.851   0.073  -1.995  0.00  0.00    -0.079 Cl
ATOM     15 CL   UNL     1      -1.363  -2.334  -0.371  0.00  0.00    -0.079 Cl
ATOM     16 CL   UNL     1      -2.586   0.047   0.856  0.00  0.00    -0.079 Cl
ENDBRANCH   1  13
BRANCH   1  17
ATOM     17  O   UNL     1      -0.017   1.425   0.010  0.00  0.00    -0.354 OA
BRANCH  17  18
ATOM     18  C   UNL     1       1.280   2.024   0.001  0.00  0.00    +0.164 C 
BRANCH  18  19
ATOM     19  C   UNL     1       1.139   3.547   0.010  0.00  0.00    +0.001 C 
ATOM     20  C   UNL     1       0.494   3.989   1.325  0.00  0.00    +0.002 C 
ATOM     21  C   UNL     1       1.413   3.587   2.482  0.00  0.00    -0.018 C 
ATOM     22  C   UNL     1       2.775   4.250   2.284  0.00  0.00    -0.078 C 
ATOM     23  C   UNL     1       2.523   4.188  -0.129  0.00  0.00    -0.063 C 
ATOM     24  C   UNL     1       3.150   3.683  -1.435  0.00  0.00    -0.015 C 
ATOM     25  C   UNL     1       4.555   4.265  -1.595  0.00  0.00    -0.003 C 
ATOM     26  C   UNL     1       5.396   3.857  -0.381  0.00  0.00    -0.019 C 
ATOM     27  C   UNL     1       4.721   4.382   0.885  0.00  0.00    -0.078 C 
ATOM     28  N   UNL     1       3.375   3.793   1.020  0.00  0.00    +0.382 N 
ATOM     29  H   UNL     1       3.457   2.769   1.036  0.00  0.00    -0.081 HD
ENDBRANCH  18  19
ENDBRANCH  17  18
ENDBRANCH   1  17
TORSDOF 6
