REMARK  Name = ZINC39953370
REMARK  7 active torsions:
REMARK  status: ('A' for Active; 'I' for Inactive)
REMARK    1  A    between atoms: C_1  and  C_2
REMARK    2  A    between atoms: C_2  and  C_3
REMARK    3  A    between atoms: C_2  and  C_4
REMARK    4  A    between atoms: C_4  and  C_5
REMARK    5  A    between atoms: C_7  and  C_11
REMARK    6  A    between atoms: C_19  and  C_21
REMARK    7  A    between atoms: C_24  and  C_27
REMARK                            x       y       z     vdW  Elec       q    Type
REMARK                         _______ _______ _______ _____ _____    ______ ____
ROOT
ATOM      1  C   UNL     1       5.053   0.283   0.435  0.00  0.00    +0.206 C 
ATOM      2  N   UNL     1       5.516  -0.992   1.032  0.00  0.00    -0.231 NA
ATOM      3  N   UNL     1       6.958  -0.834   1.290  0.00  0.00    -0.224 NA
ATOM      4  C   UNL     1       7.116   0.630   1.406  0.00  0.00    +0.240 C 
ATOM      5  N   UNL     1       6.269   1.110   0.264  0.00  0.00    -0.206 N 
ATOM      6  N   UNL     1       6.901   2.028  -0.546  0.00  0.00    -0.173 NA
ATOM      7  C   UNL     1       8.189   2.218  -0.529  0.00  0.00    +0.125 C 
ATOM      8  S   UNL     1       8.771   1.174   0.843  0.00  0.00    -0.063 S 
ATOM      9  H   UNL     1       5.343  -1.767   0.409  0.00  0.00    +0.143 HD
ATOM     10  H   UNL     1       7.504  -1.197   0.523  0.00  0.00    +0.144 HD
ENDROOT
BRANCH   7  11
ATOM     11  C   UNL     1       8.993   3.087  -1.413  0.00  0.00    +0.008 A 
ATOM     12  C   UNL     1      10.379   3.160  -1.248  0.00  0.00    +0.011 A 
ATOM     13  C   UNL     1      11.127   3.971  -2.072  0.00  0.00    +0.009 A 
ATOM     14  C   UNL     1      10.502   4.718  -3.071  0.00  0.00    -0.018 A 
ATOM     15  C   UNL     1       9.119   4.646  -3.235  0.00  0.00    +0.009 A 
ATOM     16  C   UNL     1       8.369   3.832  -2.417  0.00  0.00    +0.011 A 
BRANCH  14  17
ATOM     17  C   UNL     1      11.309   5.591  -3.958  0.00  0.00    -0.018 A 
ATOM     18  C   UNL     1      12.693   5.661  -3.799  0.00  0.00    +0.008 A 
ATOM     19  C   UNL     1      13.439   6.474  -4.628  0.00  0.00    +0.001 A 
ATOM     20  C   UNL     1      12.816   7.219  -5.613  0.00  0.00    +0.000 A 
ATOM     21  C   UNL     1      11.444   7.154  -5.775  0.00  0.00    +0.001 A 
ATOM     22  C   UNL     1      10.688   6.339  -4.956  0.00  0.00    +0.008 A 
ENDBRANCH  14  17
ENDBRANCH   7  11
BRANCH   1  25
ATOM     23  C   UNL     1       2.165  -0.079  -1.208  0.00  0.00    +0.062 C 
ATOM     24  C   UNL     1       3.162  -0.848  -0.763  0.00  0.00    +0.029 C 
ATOM     25  C   UNL     1       4.395   0.024  -0.922  0.00  0.00    +0.190 C 
ATOM     26  N   UNL     1       3.849   1.269  -1.487  0.00  0.00    -0.177 NA
ATOM     27  N   UNL     1       2.631   1.122  -1.615  0.00  0.00    -0.159 NA
BRANCH  23  28
ATOM     28  C   UNL     1       0.718  -0.497  -1.257  0.00  0.00    +0.060 C 
BRANCH  28  30
ATOM     29  C   UNL     1      -0.019   1.526   0.010  0.00  0.00    +0.007 C 
ATOM     30  C   UNL     1       0.002  -0.004   0.002  0.00  0.00    -0.011 C 
ATOM     31  C   UNL     1      -1.433  -0.534   0.013  0.00  0.00    +0.007 C 
ENDBRANCH  28  30
ENDBRANCH  23  28
ENDBRANCH   1  25
TORSDOF 5
