REMARK  Name = ZINC01077311
REMARK  7 active torsions:
REMARK  status: ('A' for Active; 'I' for Inactive)
REMARK    1  A    between atoms: C_1  and  C_2
REMARK    2  A    between atoms: C_2  and  O_3
REMARK    3  A    between atoms: O_3  and  C_4
REMARK    4  A    between atoms: C_7  and  C_12
REMARK    5  A    between atoms: C_9  and  O_10
REMARK    6  A    between atoms: O_10  and  C_11
REMARK    7  A    between atoms: C_17  and  C_27
REMARK                            x       y       z     vdW  Elec       q    Type
REMARK                         _______ _______ _______ _____ _____    ______ ____
ROOT
ATOM      1  C   UNL     1      -0.108   1.040   0.063  0.00  0.00    +0.032 C 
ATOM      2  C   UNL     1      -0.754   1.550   1.351  0.00  0.00    +0.059 C 
ATOM      3  C   UNL     1       0.042   1.074   2.554  0.00  0.00    +0.017 C 
ATOM      4  C   UNL     1       1.373   0.904   2.470  0.00  0.00    +0.036 C 
ATOM      5  C   UNL     1       2.281   0.451   3.587  0.00  0.00    +0.136 C 
ATOM      6  N   UNL     1       1.665   0.441   4.897  0.00  0.00    -0.331 N 
ATOM      7  C   UNL     1       0.607  -0.419   5.186  0.00  0.00    +0.049 A 
ATOM      8  C   UNL     1       0.731  -1.431   6.124  0.00  0.00    +0.025 A 
ATOM      9  C   UNL     1      -0.333  -2.289   6.343  0.00  0.00    +0.002 A 
ATOM     10  C   UNL     1      -1.509  -2.142   5.630  0.00  0.00    +0.002 A 
ATOM     11  C   UNL     1      -1.642  -1.121   4.705  0.00  0.00    +0.025 A 
ATOM     12  C   UNL     1      -0.587  -0.248   4.502  0.00  0.00    +0.052 A 
ATOM     13  N   UNL     1      -0.692   0.865   3.676  0.00  0.00    -0.316 N 
ATOM     14  C   UNL     1       2.046   1.152   1.250  0.00  0.00    +0.163 C 
ATOM     15  O   UNL     1       3.251   1.008   1.205  0.00  0.00    -0.292 OA
ATOM     16  C   UNL     1       1.323   1.588   0.010  0.00  0.00    +0.088 C 
ATOM     17  H   UNL     1       1.994   1.042   5.584  0.00  0.00    +0.147 HD
ATOM     18  H   UNL     1      -1.341   1.544   3.920  0.00  0.00    +0.152 HD
ENDROOT
BRANCH   5  19
ATOM     19  C   UNL     1       2.761  -0.944   3.276  0.00  0.00    -0.019 A 
ATOM     20  C   UNL     1       1.855  -1.985   3.203  0.00  0.00    +0.009 A 
ATOM     21  C   UNL     1       2.290  -3.265   2.914  0.00  0.00    +0.050 A 
ATOM     22  C   UNL     1       3.638  -3.508   2.705  0.00  0.00    +0.166 A 
ATOM     23  C   UNL     1       4.551  -2.460   2.783  0.00  0.00    +0.167 A 
ATOM     24  C   UNL     1       4.107  -1.179   3.069  0.00  0.00    +0.055 A 
ATOM     25  O   UNL     1       5.802  -2.952   2.542  0.00  0.00    -0.453 OA
ATOM     26  C   UNL     1       5.597  -4.231   1.914  0.00  0.00    +0.466 C 
ATOM     27  O   UNL     1       4.316  -4.657   2.415  0.00  0.00    -0.453 OA
ENDBRANCH   5  19
BRANCH   1  31
ATOM     28  C   UNL     1      -2.318   2.442  -3.319  0.00  0.00    +0.162 A 
ATOM     29  C   UNL     1      -1.760   3.346  -2.430  0.00  0.00    +0.050 A 
ATOM     30  C   UNL     1      -1.046   2.890  -1.337  0.00  0.00    +0.008 A 
ATOM     31  C   UNL     1      -0.888   1.532  -1.129  0.00  0.00    -0.040 A 
ATOM     32  C   UNL     1      -1.438   0.625  -2.015  0.00  0.00    +0.053 A 
ATOM     33  C   UNL     1      -2.159   1.076  -3.110  0.00  0.00    +0.162 A 
BRANCH  33  34
ATOM     34  O   UNL     1      -2.705   0.185  -3.980  0.00  0.00    -0.491 OA
ATOM     35  C   UNL     1      -2.501  -1.202  -3.702  0.00  0.00    +0.277 C 
ENDBRANCH  33  34
BRANCH  28  36
ATOM     36  O   UNL     1      -3.021   2.889  -4.394  0.00  0.00    -0.489 OA
BRANCH  36  38
ATOM     37  C   UNL     1      -3.960   4.615  -5.802  0.00  0.00    +0.048 C 
ATOM     38  C   UNL     1      -3.143   4.305  -4.546  0.00  0.00    +0.226 C 
ENDBRANCH  36  38
ENDBRANCH  28  36
ENDBRANCH   1  31
TORSDOF 5
