REMARK  Name = ZINC43120083
REMARK  8 active torsions:
REMARK  status: ('A' for Active; 'I' for Inactive)
REMARK    1  A    between atoms: C_1  and  C_2
REMARK    2  A    between atoms: C_2  and  C_3
REMARK    3  A    between atoms: C_2  and  C_4
REMARK    4  A    between atoms: C_2  and  C_5
REMARK    5  A    between atoms: N_9  and  C_10
REMARK    6  A    between atoms: C_10  and  C_11
REMARK    7  A    between atoms: N_16  and  S_18
REMARK    8  A    between atoms: S_18  and  C_21
REMARK                            x       y       z     vdW  Elec       q    Type
REMARK                         _______ _______ _______ _____ _____    ______ ____
ROOT
ATOM      1  C   UNL     1       1.022  -0.516  -1.049  0.00  0.00    +0.093 A 
ATOM      2  N   UNL     1       1.845   0.417  -1.451  0.00  0.00    -0.345 N 
ATOM      3  C   UNL     1       2.658  -0.087  -2.381  0.00  0.00    +0.053 A 
ATOM      4  C   UNL     1       2.332  -1.385  -2.565  0.00  0.00    +0.042 A 
ATOM      5  N   UNL     1       1.298  -1.658  -1.720  0.00  0.00    -0.332 N 
ATOM      6  C   UNL     1       3.019  -2.317  -3.528  0.00  0.00    +0.072 C 
ATOM      7  C   UNL     1       3.803  -1.483  -4.549  0.00  0.00    +0.116 C 
ATOM      8  N   UNL     1       4.536  -0.422  -3.843  0.00  0.00    -0.170 NA
ATOM      9  C   UNL     1       3.762   0.615  -3.136  0.00  0.00    +0.164 C 
ATOM     10  H   UNL     1       1.861   1.331  -1.125  0.00  0.00    +0.167 HD
ENDROOT
BRANCH   1  12
ATOM     11  C   UNL     1       0.089   1.022   0.658  0.00  0.00    +0.018 C 
ATOM     12  C   UNL     1      -0.052  -0.350  -0.005  0.00  0.00    +0.018 C 
ATOM     13  C   UNL     1       0.092  -1.445   1.054  0.00  0.00    +0.018 C 
ATOM     14  C   UNL     1      -1.427  -0.458  -0.667  0.00  0.00    +0.018 C 
ENDBRANCH   1  12
BRANCH   8  15
ATOM     15  S   UNL     1       6.192  -0.392  -3.841  0.00  0.00    +0.063 S 
ATOM     16  O   UNL     1       6.583   0.341  -2.688  0.00  0.00    -0.153 OA
ATOM     17  O   UNL     1       6.622  -1.725  -4.079  0.00  0.00    -0.153 OA
BRANCH  15  18
ATOM     18  C   UNL     1       6.697   0.558  -5.236  0.00  0.00    +0.123 A 
ATOM     19  C   UNL     1       6.912  -0.055  -6.462  0.00  0.00    +0.031 A 
ATOM     20  C   UNL     1       7.309   0.732  -7.532  0.00  0.00    +0.022 A 
ATOM     21  C   UNL     1       7.477   2.091  -7.343  0.00  0.00    +0.111 A 
ATOM     22  N   UNL     1       7.264   2.639  -6.163  0.00  0.00    -0.261 NA
ATOM     23  C   UNL     1       6.880   1.923  -5.125  0.00  0.00    +0.139 A 
ENDBRANCH  15  18
ENDBRANCH   8  15
BRANCH   5  24
ATOM     24  C   UNL     1       0.614  -2.945  -1.569  0.00  0.00    +0.126 C 
BRANCH  24  25
ATOM     25  C   UNL     1       1.393  -3.825  -0.590  0.00  0.00    +0.009 C 
ATOM     26  C   UNL     1       1.988  -5.127  -1.129  0.00  0.00    +0.005 C 
ATOM     27  C   UNL     1       0.773  -5.168  -0.201  0.00  0.00    +0.005 C 
ENDBRANCH  24  25
ENDBRANCH   5  24
TORSDOF 5
