REMARK  Name = ZINC39767048
REMARK  9 active torsions:
REMARK  status: ('A' for Active; 'I' for Inactive)
REMARK    1  A    between atoms: C_1  and  C_2
REMARK    2  A    between atoms: C_12  and  C_14
REMARK    3  A    between atoms: C_14  and  S_15
REMARK    4  A    between atoms: S_15  and  C_16
REMARK    5  A    between atoms: C_19  and  C_22
REMARK    6  A    between atoms: N_20  and  C_21
REMARK    7  A    between atoms: C_22  and  O_23
REMARK    8  A    between atoms: O_23  and  C_24
REMARK    9  A    between atoms: C_33  and  C_34
REMARK                            x       y       z     vdW  Elec       q    Type
REMARK                         _______ _______ _______ _____ _____    ______ ____
ROOT
ATOM      1  C   UNL     1       0.118  -1.986   9.982  0.00  0.00    +0.192 A 
ATOM      2  N   UNL     1       0.099  -0.721  10.332  0.00  0.00    -0.122 NA
ATOM      3  N   UNL     1       0.112  -0.622  11.613  0.00  0.00    -0.130 NA
ATOM      4  C   UNL     1       0.139  -1.807  12.153  0.00  0.00    +0.172 A 
ATOM      5  N   UNL     1       0.139  -2.719  11.134  0.00  0.00    -0.306 N 
ATOM      6  C   UNL     1       0.159  -4.179  11.254  0.00  0.00    +0.153 C 
ENDROOT
BRANCH   1   7
ATOM      7  S   UNL     1       0.112  -2.619   8.338  0.00  0.00    -0.077 S 
BRANCH   7   8
ATOM      8  C   UNL     1       0.083  -1.135   7.296  0.00  0.00    +0.173 C 
BRANCH   8  20
ATOM      9  C   UNL     1      -0.018   1.503   0.010  0.00  0.00    +0.046 C 
ATOM     10  C   UNL     1       0.002  -0.004   0.002  0.00  0.00    -0.024 A 
ATOM     11  C   UNL     1       0.005  -0.675  -1.193  0.00  0.00    +0.005 A 
ATOM     12  C   UNL     1       0.024  -2.061  -1.246  0.00  0.00    +0.001 A 
ATOM     13  C   UNL     1       0.040  -2.784  -0.067  0.00  0.00    +0.017 A 
ATOM     14  C   UNL     1       0.036  -2.121   1.134  0.00  0.00    +0.041 A 
ATOM     15  C   UNL     1       0.023  -0.710   1.227  0.00  0.00    +0.083 A 
ATOM     16  N   UNL     1       0.027  -0.206   2.480  0.00  0.00    -0.224 NA
ATOM     17  C   UNL     1       0.047  -0.969   3.547  0.00  0.00    +0.165 A 
ATOM     18  S   UNL     1       0.051  -2.611   2.842  0.00  0.00    -0.052 S 
ATOM     19  N   UNL     1       0.054  -0.597   4.882  0.00  0.00    -0.264 N 
ATOM     20  C   UNL     1       0.075  -1.540   5.845  0.00  0.00    +0.229 C 
ATOM     21  O   UNL     1       0.088  -2.714   5.543  0.00  0.00    -0.275 OA
ATOM     22  H   UNL     1       0.044   0.343   5.123  0.00  0.00    +0.157 HD
ENDBRANCH   8  20
ENDBRANCH   7   8
ENDBRANCH   1   7
BRANCH   4  23
ATOM     23  C   UNL     1       0.161  -2.116  13.628  0.00  0.00    +0.305 C 
BRANCH  23  24
ATOM     24  O   UNL     1      -1.179  -2.238  14.109  0.00  0.00    -0.484 OA
BRANCH  24  25
ATOM     25  C   UNL     1      -1.337  -2.518  15.429  0.00  0.00    +0.125 A 
ATOM     26  C   UNL     1      -0.210  -2.664  16.244  0.00  0.00    +0.046 A 
ATOM     27  C   UNL     1      -0.337  -2.943  17.569  0.00  0.00    +0.012 A 
ATOM     28  C   UNL     1      -1.617  -3.088  18.132  0.00  0.00    -0.017 A 
ATOM     29  C   UNL     1      -1.784  -3.376  19.497  0.00  0.00    +0.008 A 
ATOM     30  C   UNL     1      -3.038  -3.509  20.009  0.00  0.00    +0.001 A 
ATOM     31  C   UNL     1      -4.163  -3.363  19.200  0.00  0.00    +0.001 A 
ATOM     32  C   UNL     1      -4.040  -3.083  17.873  0.00  0.00    +0.009 A 
ATOM     33  C   UNL     1      -2.761  -2.939  17.308  0.00  0.00    -0.012 A 
ATOM     34  C   UNL     1      -2.596  -2.646  15.945  0.00  0.00    -0.001 A 
ATOM     35  C   UNL     1      -3.800  -2.479  15.054  0.00  0.00    +0.048 C 
ENDBRANCH  24  25
ENDBRANCH  23  24
ENDBRANCH   4  23
TORSDOF 6
