REMARK  Name = ZINC54155058
REMARK  7 active torsions:
REMARK  status: ('A' for Active; 'I' for Inactive)
REMARK    1  A    between atoms: C_1  and  C_2
REMARK    2  A    between atoms: C_2  and  C_4
REMARK    3  A    between atoms: C_2  and  C_16
REMARK    4  A    between atoms: C_4  and  N_5
REMARK    5  A    between atoms: C_6  and  C_8
REMARK    6  A    between atoms: C_8  and  C_9
REMARK    7  A    between atoms: N_17  and  O_18
REMARK                            x       y       z     vdW  Elec       q    Type
REMARK                         _______ _______ _______ _____ _____    ______ ____
ROOT
ATOM      1  N   UNL     1      -2.105  -0.148  -1.230  0.00  0.00    -0.314 N 
ATOM      2  C   UNL     1      -3.387  -0.508  -1.443  0.00  0.00    +0.217 C 
ATOM      3  O   UNL     1      -3.983  -1.151  -0.606  0.00  0.00    -0.275 OA
ATOM      4  H   UNL     1      -1.628   0.366  -1.901  0.00  0.00    +0.149 HD
ENDROOT
BRANCH   1   5
ATOM      5  C   UNL     1      -1.433  -0.534   0.013  0.00  0.00    +0.115 C 
BRANCH   5   7
ATOM      6  C   UNL     1      -0.019   1.526   0.010  0.00  0.00    +0.017 C 
ATOM      7  C   UNL     1       0.002  -0.004   0.002  0.00  0.00    +0.069 C 
BRANCH   7   8
ATOM      8  C   UNL     1       0.731  -0.503   1.223  0.00  0.00    +0.136 C 
ATOM      9  N   UNL     1       0.795   0.233   2.283  0.00  0.00    -0.076 NA
ATOM     10  N   UNL     1       1.329  -1.744   1.209  0.00  0.00    -0.344 N 
ATOM     11  H   UNL     1       1.281  -2.296   0.413  0.00  0.00    +0.144 HD
ATOM     12  H   UNL     1       1.798  -2.065   1.995  0.00  0.00    +0.144 HD
BRANCH   9  13
ATOM     13  O   UNL     1       1.480  -0.237   3.430  0.00  0.00    -0.408 OA
ATOM     14  H   UNL     1       1.474   0.383   4.172  0.00  0.00    +0.328 HD
ENDBRANCH   9  13
ENDBRANCH   7   8
ENDBRANCH   5   7
ENDBRANCH   1   5
BRANCH   2  15
ATOM     15  C   UNL     1      -4.078  -0.112  -2.723  0.00  0.00    +0.130 C 
BRANCH  15  16
ATOM     16  C   UNL     1      -5.492  -0.633  -2.712  0.00  0.00    -0.039 A 
ATOM     17  C   UNL     1      -5.769  -1.890  -3.217  0.00  0.00    +0.005 A 
ATOM     18  C   UNL     1      -7.065  -2.369  -3.207  0.00  0.00    +0.015 A 
ATOM     19  C   UNL     1      -8.086  -1.591  -2.691  0.00  0.00    +0.018 A 
ATOM     20  C   UNL     1      -7.808  -0.333  -2.186  0.00  0.00    +0.015 A 
ATOM     21  C   UNL     1      -6.511   0.143  -2.192  0.00  0.00    +0.005 A 
ATOM     22 BR   UNL     1      -9.860  -2.245  -2.678  0.00  0.00    -0.050 Br
ENDBRANCH  15  16
ENDBRANCH   2  15
TORSDOF 6
