REMARK  Name = ZINC20232361
REMARK  7 active torsions:
REMARK  status: ('A' for Active; 'I' for Inactive)
REMARK    1  A    between atoms: C_6  and  C_7
REMARK    2  A    between atoms: C_7  and  N_8
REMARK    3  A    between atoms: C_14  and  C_16
REMARK    4  A    between atoms: C_16  and  C_17
REMARK    5  A    between atoms: N_19  and  C_20
REMARK    6  A    between atoms: C_20  and  C_21
REMARK    7  A    between atoms: C_21  and  C_22
REMARK                            x       y       z     vdW  Elec       q    Type
REMARK                         _______ _______ _______ _____ _____    ______ ____
ROOT
ATOM      1  N   UNL     1      -7.191   1.596   4.591  0.00  0.00    +0.391 N 
ATOM      2  C   UNL     1      -8.129   1.993   5.654  0.00  0.00    -0.058 C 
ATOM      3  C   UNL     1      -9.366   1.096   5.577  0.00  0.00    +0.085 C 
ATOM      4  N   UNL     1      -9.878   1.066   4.209  0.00  0.00    -0.318 N 
ATOM      5  C   UNL     1      -9.146   1.431   3.153  0.00  0.00    +0.200 C 
ATOM      6  O   UNL     1      -9.640   1.344   2.049  0.00  0.00    -0.278 OA
ATOM      7  C   UNL     1      -7.740   1.946   3.274  0.00  0.00    +0.028 C 
ATOM      8  H   UNL     1     -10.908   0.733   4.015  0.00  0.00    +0.149 HD
ATOM      9  H   UNL     1      -7.055   0.505   4.632  0.00  0.00    -0.080 HD
ENDROOT
BRANCH   1  10
ATOM     10  C   UNL     1      -5.874   2.214   4.794  0.00  0.00    -0.042 C 
BRANCH  10  16
ATOM     11  C   UNL     1      -5.688   2.776   7.226  0.00  0.00    +0.003 A 
ATOM     12  C   UNL     1      -5.247   2.499   8.506  0.00  0.00    +0.023 A 
ATOM     13  C   UNL     1      -4.494   1.365   8.748  0.00  0.00    +0.076 A 
ATOM     14  C   UNL     1      -4.186   0.503   7.707  0.00  0.00    +0.142 A 
ATOM     15  C   UNL     1      -4.634   0.779   6.427  0.00  0.00    +0.041 A 
ATOM     16  C   UNL     1      -5.387   1.914   6.188  0.00  0.00    -0.061 A 
ATOM     17  F   UNL     1      -3.450  -0.606   7.941  0.00  0.00    -0.204 F 
ATOM     18 CL   UNL     1      -3.934   1.020  10.355  0.00  0.00    -0.081 Cl
ENDBRANCH  10  16
ENDBRANCH   1  10
BRANCH   7  19
ATOM     19  C   UNL     1      -6.873   1.320   2.180  0.00  0.00    +0.089 C 
BRANCH  19  20
ATOM     20  C   UNL     1      -6.832  -0.175   2.366  0.00  0.00    +0.212 C 
ATOM     21  O   UNL     1      -7.350  -0.679   3.340  0.00  0.00    -0.276 OA
ATOM     22  N   UNL     1      -6.219  -0.951   1.450  0.00  0.00    -0.315 N 
ATOM     23  H   UNL     1      -5.749  -0.494   0.567  0.00  0.00    +0.149 HD
BRANCH  22  24
ATOM     24  C   UNL     1      -6.179  -2.405   1.631  0.00  0.00    +0.110 C 
BRANCH  24  25
ATOM     25  C   UNL     1      -5.431  -3.044   0.460  0.00  0.00    +0.074 C 
BRANCH  25  26
ATOM     26  C   UNL     1      -5.389  -4.539   0.646  0.00  0.00    +0.050 A 
ATOM     27  C   UNL     1      -5.851  -5.373  -0.320  0.00  0.00    +0.070 A 
ATOM     28  S   UNL     1      -5.543  -6.960   0.441  0.00  0.00    -0.084 S 
ATOM     29  C   UNL     1      -4.859  -6.368   1.924  0.00  0.00    +0.156 A 
ATOM     30  N   UNL     1      -4.908  -5.068   1.751  0.00  0.00    -0.252 NA
ENDBRANCH  25  26
ENDBRANCH  24  25
ENDBRANCH  22  24
ENDBRANCH  19  20
ENDBRANCH   7  19
TORSDOF 7
