REMARK  Name = ZINC60992353
REMARK  8 active torsions:
REMARK  status: ('A' for Active; 'I' for Inactive)
REMARK    1  A    between atoms: C_1  and  C_2
REMARK    2  A    between atoms: C_5  and  C_8
REMARK    3  A    between atoms: C_11  and  C_13
REMARK    4  A    between atoms: C_13  and  C_14
REMARK    5  A    between atoms: C_13  and  N_15
REMARK    6  A    between atoms: N_15  and  C_16
REMARK    7  A    between atoms: C_16  and  C_17
REMARK    8  A    between atoms: C_16  and  C_18
REMARK                            x       y       z     vdW  Elec       q    Type
REMARK                         _______ _______ _______ _____ _____    ______ ____
ROOT
ATOM      1  C   UNL     1       0.008  -7.508   1.464  0.00  0.00    +0.015 C 
ATOM      2  C   UNL     1       0.297  -6.413   0.436  0.00  0.00    -0.004 C 
ENDROOT
BRANCH   1   6
ATOM      3  C   UNL     1      -1.119  -6.124   4.617  0.00  0.00    +0.248 A 
ATOM      4  N   UNL     1      -2.200  -6.062   3.876  0.00  0.00    -0.107 NA
ATOM      5  N   UNL     1      -1.940  -6.530   2.706  0.00  0.00    -0.114 NA
ATOM      6  C   UNL     1      -0.692  -6.907   2.655  0.00  0.00    +0.204 A 
ATOM      7  O   UNL     1      -0.142  -6.656   3.856  0.00  0.00    -0.422 OA
BRANCH   3  12
ATOM      8  C   UNL     1      -0.635  -4.422  10.093  0.00  0.00    +0.044 C 
ATOM      9  C   UNL     1      -0.762  -4.868   8.659  0.00  0.00    -0.050 A 
ATOM     10  C   UNL     1      -1.974  -4.745   8.005  0.00  0.00    +0.004 A 
ATOM     11  C   UNL     1      -2.097  -5.151   6.692  0.00  0.00    +0.013 A 
ATOM     12  C   UNL     1      -0.995  -5.686   6.024  0.00  0.00    +0.038 A 
ATOM     13  C   UNL     1       0.225  -5.808   6.690  0.00  0.00    +0.013 A 
ATOM     14  C   UNL     1       0.336  -5.393   8.002  0.00  0.00    +0.004 A 
ENDBRANCH   3  12
ENDBRANCH   1   6
BRANCH   1  15
ATOM     15  N   UNL     1      -0.851  -8.535   0.859  0.00  0.00    +0.388 N 
ATOM     16  H   UNL     1      -1.752  -8.136   0.644  0.00  0.00    -0.084 HD
ATOM     17  H   UNL     1      -0.423  -8.874   0.011  0.00  0.00    -0.084 HD
BRANCH  15  18
ATOM     18  C   UNL     1      -1.021  -9.649   1.801  0.00  0.00    -0.071 C 
ATOM     19  C   UNL     1       0.323 -10.350   2.010  0.00  0.00    -0.013 C 
BRANCH  18  20
ATOM     20  C   UNL     1      -2.033 -10.646   1.234  0.00  0.00    -0.022 C 
ATOM     21  C   UNL     1      -3.430  -9.994   1.126  0.00  0.00    +0.005 C 
ATOM     22  C   UNL     1      -4.340 -10.854   2.055  0.00  0.00    -0.010 C 
ATOM     23  C   UNL     1      -4.483 -12.216   1.309  0.00  0.00    +0.004 C 
ATOM     24  C   UNL     1      -3.086 -12.869   1.417  0.00  0.00    +0.004 C 
ATOM     25  C   UNL     1      -2.231 -11.840   2.218  0.00  0.00    -0.009 C 
ATOM     26  C   UNL     1      -3.319 -11.245   3.180  0.00  0.00    +0.007 C 
ENDBRANCH  18  20
ENDBRANCH  15  18
ENDBRANCH   1  15
TORSDOF 5
