REMARK  Name = ZINC52904519
REMARK  6 active torsions:
REMARK  status: ('A' for Active; 'I' for Inactive)
REMARK    1  A    between atoms: C_4  and  O_18
REMARK    2  A    between atoms: C_5  and  N_7
REMARK    3  A    between atoms: N_7  and  C_8
REMARK    4  A    between atoms: C_13  and  C_14
REMARK    5  A    between atoms: C_14  and  N_16
REMARK    6  A    between atoms: O_18  and  C_19
REMARK                            x       y       z     vdW  Elec       q    Type
REMARK                         _______ _______ _______ _____ _____    ______ ____
ROOT
ATOM      1  N   UNL     1       1.303  -2.215  -0.072  0.00  0.00    -0.311 N 
ATOM      2  H   UNL     1       2.102  -2.725  -0.277  0.00  0.00    +0.152 HD
ENDROOT
BRANCH   1   3
ATOM      3  C   UNL     1       0.081  -2.862   0.065  0.00  0.00    +0.042 A 
ATOM      4  C   UNL     1      -0.245  -3.492   1.260  0.00  0.00    +0.024 A 
ATOM      5  C   UNL     1      -1.459  -4.135   1.394  0.00  0.00    +0.003 A 
ATOM      6  C   UNL     1      -2.362  -4.158   0.343  0.00  0.00    +0.021 A 
ATOM      7  C   UNL     1      -2.057  -3.539  -0.851  0.00  0.00    +0.052 A 
ATOM      8  C   UNL     1      -0.833  -2.878  -1.001  0.00  0.00    +0.042 A 
ATOM      9 CL   UNL     1      -3.193  -3.574  -2.164  0.00  0.00    -0.083 Cl
BRANCH   8  10
ATOM     10  C   UNL     1      -0.502  -2.209  -2.270  0.00  0.00    +0.080 C 
ATOM     11  S   UNL     1       0.271  -3.084  -3.522  0.00  0.00    -0.035 S 
BRANCH  10  12
ATOM     12  N   UNL     1      -0.808  -0.909  -2.446  0.00  0.00    -0.352 N 
ATOM     13  H   UNL     1      -1.310  -0.432  -1.766  0.00  0.00    +0.143 HD
ATOM     14  H   UNL     1      -0.527  -0.449  -3.253  0.00  0.00    +0.143 HD
ENDBRANCH  10  12
ENDBRANCH   8  10
ENDBRANCH   1   3
BRANCH   1  19
ATOM     15  C   UNL     1       0.316   1.279   0.516  0.00  0.00    +0.002 A 
ATOM     16  C   UNL     1       1.534   1.922   0.399  0.00  0.00    +0.004 A 
ATOM     17  C   UNL     1       2.679   1.197   0.125  0.00  0.00    +0.048 A 
ATOM     18  C   UNL     1       2.608  -0.177  -0.032  0.00  0.00    +0.148 A 
ATOM     19  C   UNL     1       1.381  -0.826   0.086  0.00  0.00    +0.074 A 
ATOM     20  C   UNL     1       0.236  -0.092   0.361  0.00  0.00    +0.027 A 
BRANCH  18  21
ATOM     21  O   UNL     1       3.734  -0.892  -0.301  0.00  0.00    -0.432 OA
BRANCH  21  22
ATOM     22  C   UNL     1       4.957  -0.160  -0.408  0.00  0.00    +0.541 C 
ATOM     23  F   UNL     1       4.850   0.777  -1.442  0.00  0.00    -0.166 F 
ATOM     24  F   UNL     1       5.211   0.502   0.797  0.00  0.00    -0.166 F 
ENDBRANCH  21  22
ENDBRANCH  18  21
ENDBRANCH   1  19
TORSDOF 6
