REMARK  Name = ZINC15229767
REMARK  6 active torsions:
REMARK  status: ('A' for Active; 'I' for Inactive)
REMARK    1  A    between atoms: C_4  and  O_22
REMARK    2  A    between atoms: C_5  and  C_7
REMARK    3  A    between atoms: N_8  and  N_9
REMARK    4  A    between atoms: C_10  and  S_12
REMARK    5  A    between atoms: S_12  and  C_13
REMARK    6  A    between atoms: C_13  and  C_14
REMARK                            x       y       z     vdW  Elec       q    Type
REMARK                         _______ _______ _______ _____ _____    ______ ____
ROOT
ATOM      1  N   UNL     1      -4.837   0.936   0.030  0.00  0.00    -0.217 N 
ATOM      2  C   UNL     1      -6.036   1.613   0.039  0.00  0.00    +0.145 C 
ATOM      3  N   UNL     1      -6.048   2.918   0.046  0.00  0.00    -0.380 N 
ATOM      4  H   UNL     1      -4.827  -0.164   0.024  0.00  0.00    +0.176 HD
ATOM      5  H   UNL     1      -7.006   3.459   0.054  0.00  0.00    +0.158 HD
ATOM      6  H   UNL     1      -5.101   3.477   0.045  0.00  0.00    +0.158 HD
ENDROOT
BRANCH   1   8
ATOM      7  C   UNL     1      -2.500   1.010   0.019  0.00  0.00    +0.141 C 
ATOM      8  N   UNL     1      -3.630   1.648   0.028  0.00  0.00    -0.188 NA
BRANCH   7  13
ATOM      9  C   UNL     1       1.172   1.783   0.000  0.00  0.00    +0.001 A 
ATOM     10  C   UNL     1       1.158   3.167   0.007  0.00  0.00    +0.004 A 
ATOM     11  C   UNL     1      -0.041   3.854   0.022  0.00  0.00    +0.046 A 
ATOM     12  C   UNL     1      -1.239   3.160   0.030  0.00  0.00    +0.125 A 
ATOM     13  C   UNL     1      -1.231   1.759   0.017  0.00  0.00    +0.036 A 
ATOM     14  C   UNL     1      -0.013   1.076   0.008  0.00  0.00    +0.013 A 
BRANCH  12  15
ATOM     15  O   UNL     1      -2.418   3.835   0.045  0.00  0.00    -0.506 OA
ATOM     16  H   UNL     1      -3.369   3.281   0.052  0.00  0.00    +0.292 HD
ENDBRANCH  12  15
ENDBRANCH   7  13
ENDBRANCH   1   8
BRANCH   2  17
ATOM     17  S   UNL     1      -7.553   0.718   0.042  0.00  0.00    -0.087 S 
BRANCH  17  18
ATOM     18  C   UNL     1      -8.730   2.093   0.055  0.00  0.00    +0.113 C 
BRANCH  18  19
ATOM     19  C   UNL     1     -10.136   1.552   0.058  0.00  0.00    -0.019 A 
ATOM     20  C   UNL     1     -10.775   1.296   1.257  0.00  0.00    +0.007 A 
ATOM     21  C   UNL     1     -12.065   0.800   1.261  0.00  0.00    +0.020 A 
ATOM     22  C   UNL     1     -12.717   0.558   0.065  0.00  0.00    +0.042 A 
ATOM     23  C   UNL     1     -12.078   0.813  -1.135  0.00  0.00    +0.040 A 
ATOM     24  C   UNL     1     -10.789   1.315  -1.138  0.00  0.00    +0.046 A 
ATOM     25 CL   UNL     1      -9.988   1.641  -2.643  0.00  0.00    -0.083 Cl
ATOM     26 CL   UNL     1     -14.337  -0.066   0.071  0.00  0.00    -0.083 Cl
ENDBRANCH  18  19
ENDBRANCH  17  18
ENDBRANCH   2  17
TORSDOF 6
