REMARK  Name = ZINC25174938
REMARK  3 active torsions:
REMARK  status: ('A' for Active; 'I' for Inactive)
REMARK    1  A    between atoms: C_4  and  N_7
REMARK    2  A    between atoms: N_11  and  N_12
REMARK    3  A    between atoms: N_12  and  C_13
REMARK                            x       y       z     vdW  Elec       q    Type
REMARK                         _______ _______ _______ _____ _____    ______ ____
ROOT
ATOM      1  N   UNL     1       3.595  -0.817  -0.072  0.00  0.00    -0.172 N 
ATOM      2  C   UNL     1       3.849  -2.008   0.571  0.00  0.00    +0.169 C 
ATOM      3  N   UNL     1       2.971  -2.838   1.078  0.00  0.00    -0.282 NA
ATOM      4  C   UNL     1       5.321  -2.155   0.568  0.00  0.00    +0.164 C 
ATOM      5  N   UNL     1       6.029  -3.144   1.073  0.00  0.00    -0.176 NA
ATOM      6  C   UNL     1       5.822  -0.953  -0.124  0.00  0.00    +0.165 C 
ATOM      7  N   UNL     1       4.796  -0.231  -0.470  0.00  0.00    -0.156 NA
ATOM      8  N   UNL     1       7.159  -0.646  -0.369  0.00  0.00    -0.340 N 
ATOM      9  H   UNL     1       3.268  -3.654   1.511  0.00  0.00    +0.188 HD
ATOM     10  H   UNL     1       7.786  -1.353  -0.593  0.00  0.00    +0.144 HD
ATOM     11  H   UNL     1       7.464   0.273  -0.316  0.00  0.00    +0.144 HD
ENDROOT
BRANCH   1  15
ATOM     12  C   UNL     1      -0.191   0.785  -0.742  0.00  0.00    +0.000 A 
ATOM     13  C   UNL     1       0.931   1.460  -1.184  0.00  0.00    +0.002 A 
ATOM     14  C   UNL     1       2.188   0.932  -0.964  0.00  0.00    +0.025 A 
ATOM     15  C   UNL     1       2.324  -0.279  -0.296  0.00  0.00    +0.059 A 
ATOM     16  C   UNL     1       1.194  -0.955   0.147  0.00  0.00    +0.025 A 
ATOM     17  C   UNL     1      -0.060  -0.421  -0.077  0.00  0.00    +0.002 A 
ENDBRANCH   1  15
BRANCH   5  18
ATOM     18  N   UNL     1       7.317  -3.108   1.018  0.00  0.00    -0.234 N 
ATOM     19  H   UNL     1       7.765  -2.342   0.625  0.00  0.00    +0.174 HD
BRANCH  18  20
ATOM     20  C   UNL     1       8.067  -4.172   1.523  0.00  0.00    +0.085 A 
ATOM     21  C   UNL     1       7.468  -5.116   2.349  0.00  0.00    +0.066 A 
ATOM     22  C   UNL     1       8.213  -6.168   2.848  0.00  0.00    +0.042 A 
ATOM     23  C   UNL     1       9.555  -6.281   2.525  0.00  0.00    +0.044 A 
ATOM     24  C   UNL     1      10.154  -5.343   1.703  0.00  0.00    +0.042 A 
ATOM     25  C   UNL     1       9.413  -4.292   1.196  0.00  0.00    +0.066 A 
ATOM     26 CL   UNL     1      10.164  -3.120   0.159  0.00  0.00    -0.081 Cl
ATOM     27 CL   UNL     1      10.487  -7.604   3.154  0.00  0.00    -0.083 Cl
ATOM     28 CL   UNL     1       5.786  -4.974   2.755  0.00  0.00    -0.081 Cl
ENDBRANCH  18  20
ENDBRANCH   5  18
TORSDOF 3
