REMARK  Name = ZINC04047351
REMARK  12 active torsions:
REMARK  status: ('A' for Active; 'I' for Inactive)
REMARK    1  A    between atoms: C_1  and  C_2
REMARK    2  A    between atoms: C_2  and  C_3
REMARK    3  A    between atoms: C_3  and  C_4
REMARK    4  A    between atoms: C_4  and  N_5
REMARK    5  A    between atoms: C_6  and  C_8
REMARK    6  A    between atoms: C_8  and  N_65
REMARK    7  A    between atoms: C_11  and  O_30
REMARK    8  A    between atoms: C_18  and  C_20
REMARK    9  A    between atoms: C_23  and  O_28
REMARK   10  A    between atoms: C_24  and  O_26
REMARK   11  A    between atoms: O_26  and  C_27
REMARK   12  A    between atoms: O_28  and  C_29
REMARK                            x       y       z     vdW  Elec       q    Type
REMARK                         _______ _______ _______ _____ _____    ______ ____
ROOT
ATOM      1  C   UNL     1       4.933   3.882  -1.325  0.00  0.00    -0.075 C 
ATOM      2  C   UNL     1       5.800   3.902  -0.064  0.00  0.00    +0.016 C 
ATOM      3  C   UNL     1       5.074   4.691   1.032  0.00  0.00    +0.066 C 
ATOM      4  C   UNL     1       4.866   6.136   0.571  0.00  0.00    +0.035 C 
ATOM      5  C   UNL     1       4.121   6.917   1.655  0.00  0.00    +0.003 C 
ATOM      6  C   UNL     1       2.760   6.266   1.907  0.00  0.00    +0.000 C 
ATOM      7  C   UNL     1       2.959   4.831   2.362  0.00  0.00    +0.005 C 
ATOM      8  C   UNL     1       3.715   4.038   1.296  0.00  0.00    +0.011 C 
ATOM      9  C   UNL     1       2.905   4.016  -0.002  0.00  0.00    -0.031 C 
ATOM     10  N   UNL     1       3.643   3.228  -1.013  0.00  0.00    +0.390 N 
ATOM     11  H   UNL     1       3.828   2.292  -0.635  0.00  0.00    -0.080 HD
ENDROOT
BRANCH   9  12
ATOM     12  C   UNL     1       1.571   3.361   0.249  0.00  0.00    -0.057 A 
ATOM     13  C   UNL     1       1.477   1.982   0.292  0.00  0.00    +0.006 A 
ATOM     14  C   UNL     1       0.256   1.376   0.523  0.00  0.00    +0.049 A 
ATOM     15  C   UNL     1      -0.878   2.151   0.706  0.00  0.00    +0.161 A 
ATOM     16  C   UNL     1      -0.782   3.538   0.668  0.00  0.00    +0.162 A 
ATOM     17  C   UNL     1       0.445   4.139   0.437  0.00  0.00    +0.051 A 
BRANCH  16  18
ATOM     18  O   UNL     1      -1.891   4.303   0.853  0.00  0.00    -0.491 OA
ATOM     19  C   UNL     1      -1.719   5.721   0.795  0.00  0.00    +0.277 C 
ENDBRANCH  16  18
BRANCH  15  20
ATOM     20  O   UNL     1      -2.080   1.556   0.928  0.00  0.00    -0.491 OA
ATOM     21  C   UNL     1      -2.102   0.128   0.960  0.00  0.00    +0.277 C 
ENDBRANCH  15  20
ENDBRANCH   9  12
BRANCH   3  22
ATOM     22  O   UNL     1       5.854   4.677   2.229  0.00  0.00    -0.388 OA
ATOM     23  H   UNL     1       6.729   5.076   2.134  0.00  0.00    +0.210 HD
ENDBRANCH   3  22
BRANCH  10  24
ATOM     24  C   UNL     1       2.834   3.099  -2.242  0.00  0.00    +0.019 C 
BRANCH  24  26
ATOM     25  N   UNL     1       1.974   4.542  -4.057  0.00  0.00    -0.317 N 
ATOM     26  C   UNL     1       2.594   4.450  -2.864  0.00  0.00    +0.196 C 
ATOM     27  O   UNL     1       2.959   5.455  -2.291  0.00  0.00    -0.278 OA
ATOM     28  H   UNL     1       1.683   3.739  -4.516  0.00  0.00    +0.149 HD
BRANCH  25  29
ATOM     29  C   UNL     1       1.741   5.856  -4.662  0.00  0.00    +0.104 C 
BRANCH  29  30
ATOM     30  C   UNL     1       1.027   5.680  -6.004  0.00  0.00    +0.018 C 
BRANCH  30  32
ATOM     31  C   UNL     1       0.069   6.877  -7.977  0.00  0.00    +0.004 C 
ATOM     32  C   UNL     1       0.784   7.052  -6.636  0.00  0.00    -0.002 C 
ENDBRANCH  30  32
ENDBRANCH  29  30
ENDBRANCH  25  29
ENDBRANCH  24  26
ENDBRANCH  10  24
TORSDOF 9
