REMARK  Name = ZINC12123977
REMARK  7 active torsions:
REMARK  status: ('A' for Active; 'I' for Inactive)
REMARK    1  A    between atoms: C_1  and  N_67
REMARK    2  A    between atoms: C_2  and  C_3
REMARK    3  A    between atoms: C_2  and  N_67
REMARK    4  A    between atoms: C_3  and  C_4
REMARK    5  A    between atoms: C_14  and  N_67
REMARK    6  A    between atoms: N_20  and  C_23
REMARK    7  A    between atoms: C_23  and  C_24
REMARK                            x       y       z     vdW  Elec       q    Type
REMARK                         _______ _______ _______ _____ _____    ______ ____
ROOT
ATOM      1  C   UNL     1      -0.878   2.914   6.183  0.00  0.00    -0.067 C 
ATOM      2  C   UNL     1       0.527   3.432   6.432  0.00  0.00    -0.006 C 
ATOM      3  C   UNL     1       1.205   2.642   7.554  0.00  0.00    +0.094 C 
ATOM      4  C   UNL     1       0.801   3.249   8.881  0.00  0.00    +0.216 C 
ATOM      5  O   UNL     1       1.612   3.875   9.531  0.00  0.00    -0.276 OA
ATOM      6  N   UNL     1      -0.443   3.098   9.338  0.00  0.00    -0.297 N 
ATOM      7  C   UNL     1      -1.435   2.336   8.561  0.00  0.00    +0.106 C 
ATOM      8  C   UNL     1      -1.835   3.159   7.336  0.00  0.00    +0.004 C 
ENDROOT
BRANCH   1  10
ATOM      9  C   UNL     1      -1.328   5.031   5.098  0.00  0.00    -0.096 C 
ATOM     10  N   UNL     1      -1.441   3.562   4.980  0.00  0.00    +0.380 N 
ATOM     11  H   UNL     1      -2.433   3.310   4.898  0.00  0.00    -0.082 HD
BRANCH  10  12
ATOM     12  C   UNL     1      -0.726   3.096   3.774  0.00  0.00    -0.078 C 
BRANCH  12  13
ATOM     13  C   UNL     1      -1.466   3.603   2.534  0.00  0.00    -0.012 C 
BRANCH  13  14
ATOM     14  C   UNL     1      -0.750   3.109   1.275  0.00  0.00    -0.030 C 
ATOM     15  C   UNL     1      -0.729   1.579   1.267  0.00  0.00    +0.010 C 
ATOM     16  C   UNL     1      -0.013   1.086   0.008  0.00  0.00    -0.010 C 
ATOM     17  C   UNL     1      -0.753   1.593  -1.232  0.00  0.00    +0.007 C 
ATOM     18  C   UNL     1      -0.773   3.123  -1.223  0.00  0.00    -0.010 C 
ATOM     19  C   UNL     1      -1.490   3.616   0.036  0.00  0.00    +0.010 C 
ATOM     20  C   UNL     1       0.662   3.652  -1.234  0.00  0.00    +0.007 C 
ATOM     21  C   UNL     1       1.402   3.145   0.006  0.00  0.00    -0.010 C 
ATOM     22  C   UNL     1       1.423   1.615  -0.003  0.00  0.00    +0.007 C 
ATOM     23  C   UNL     1       0.686   3.639   1.264  0.00  0.00    +0.010 C 
ENDBRANCH  13  14
ENDBRANCH  12  13
ENDBRANCH  10  12
ENDBRANCH   1  10
BRANCH   6  24
ATOM     24  C   UNL     1      -0.825   3.695  10.620  0.00  0.00    +0.145 C 
BRANCH  24  25
ATOM     25  C   UNL     1      -1.346   5.090  10.389  0.00  0.00    +0.005 A 
ATOM     26  C   UNL     1      -2.703   5.342  10.464  0.00  0.00    +0.011 A 
ATOM     27  C   UNL     1      -3.183   6.621  10.253  0.00  0.00    +0.039 A 
ATOM     28  C   UNL     1      -2.304   7.652   9.966  0.00  0.00    +0.126 A 
ATOM     29  C   UNL     1      -0.945   7.401   9.890  0.00  0.00    +0.077 A 
ATOM     30  C   UNL     1      -0.465   6.120  10.107  0.00  0.00    +0.131 A 
ATOM     31  F   UNL     1       0.862   5.875  10.039  0.00  0.00    -0.205 F 
ATOM     32  F   UNL     1      -2.772   8.902   9.760  0.00  0.00    -0.205 F 
ENDBRANCH  24  25
ENDBRANCH   6  24
TORSDOF 6
