REMARK  Name = ZINC10650917
REMARK  5 active torsions:
REMARK  status: ('A' for Active; 'I' for Inactive)
REMARK    1  A    between atoms: C_1  and  C_2
REMARK    2  A    between atoms: C_2  and  N_3
REMARK    3  A    between atoms: C_13  and  C_15
REMARK    4  A    between atoms: C_15  and  C_16
REMARK    5  A    between atoms: C_16  and  C_17
REMARK                            x       y       z     vdW  Elec       q    Type
REMARK                         _______ _______ _______ _____ _____    ______ ____
ROOT
ATOM      1  N   UNL     1      -0.749   3.044   1.275  0.00  0.00    -0.312 N 
ATOM      2  C   UNL     1       0.208   3.875   1.832  0.00  0.00    +0.070 A 
ATOM      3  C   UNL     1       1.398   3.654   2.509  0.00  0.00    +0.028 A 
ATOM      4  C   UNL     1       2.146   4.725   2.951  0.00  0.00    +0.002 A 
ATOM      5  C   UNL     1       1.716   6.024   2.723  0.00  0.00    +0.002 A 
ATOM      6  C   UNL     1       0.540   6.263   2.047  0.00  0.00    +0.030 A 
ATOM      7  C   UNL     1      -0.231   5.189   1.597  0.00  0.00    +0.091 A 
ATOM      8  N   UNL     1      -1.411   5.101   0.929  0.00  0.00    -0.214 NA
ATOM      9  C   UNL     1      -1.717   3.844   0.739  0.00  0.00    +0.203 A 
ATOM     10  N   UNL     1      -2.853   3.390   0.091  0.00  0.00    -0.256 N 
ATOM     11  C   UNL     1      -3.745   4.273  -0.401  0.00  0.00    +0.220 C 
ATOM     12  O   UNL     1      -3.553   5.464  -0.275  0.00  0.00    -0.275 OA
ATOM     13  H   UNL     1      -3.007   2.438  -0.010  0.00  0.00    +0.158 HD
ENDROOT
BRANCH   1  15
ATOM     14  C   UNL     1      -0.013   1.086   0.008  0.00  0.00    +0.027 C 
ATOM     15  C   UNL     1      -0.729   1.579   1.267  0.00  0.00    +0.122 C 
ENDBRANCH   1  15
BRANCH  11  16
ATOM     16  C   UNL     1      -4.982   3.780  -1.107  0.00  0.00    +0.104 C 
BRANCH  16  17
ATOM     17  C   UNL     1      -5.820   4.976  -1.563  0.00  0.00    +0.083 C 
BRANCH  17  18
ATOM     18  C   UNL     1      -7.057   4.483  -2.269  0.00  0.00    +0.111 A 
ATOM     19  N   UNL     1      -7.933   5.402  -2.751  0.00  0.00    -0.310 N 
ATOM     20  H   UNL     1      -7.751   6.348  -2.634  0.00  0.00    +0.170 HD
ATOM     21  C   UNL     1      -9.059   5.011  -3.393  0.00  0.00    +0.259 A 
ATOM     22  O   UNL     1      -9.852   5.824  -3.831  0.00  0.00    -0.267 OA
ATOM     23  C   UNL     1      -9.285   3.566  -3.542  0.00  0.00    +0.065 A 
ATOM     24  C   UNL     1     -10.411   3.059  -4.187  0.00  0.00    +0.015 A 
ATOM     25  C   UNL     1     -10.573   1.695  -4.299  0.00  0.00    +0.001 A 
ATOM     26  C   UNL     1      -9.624   0.826  -3.776  0.00  0.00    +0.002 A 
ATOM     27  C   UNL     1      -8.505   1.307  -3.135  0.00  0.00    +0.028 A 
ATOM     28  C   UNL     1      -8.319   2.685  -3.009  0.00  0.00    +0.078 A 
ATOM     29  N   UNL     1      -7.228   3.202  -2.390  0.00  0.00    -0.234 NA
ENDBRANCH  17  18
ENDBRANCH  16  17
ENDBRANCH  11  16
TORSDOF 4
