REMARK  Name = ZINC09404444
REMARK  4 active torsions:
REMARK  status: ('A' for Active; 'I' for Inactive)
REMARK    1  A    between atoms: C_5  and  C_7
REMARK    2  A    between atoms: N_9  and  C_10
REMARK    3  A    between atoms: N_14  and  C_15
REMARK    4  A    between atoms: C_18  and  N_21
REMARK                            x       y       z     vdW  Elec       q    Type
REMARK                         _______ _______ _______ _____ _____    ______ ____
ROOT
ATOM      1  C   UNL     1      -0.670   1.794  -2.281  0.00  0.00    +0.133 A 
ATOM      2  C   UNL     1      -1.130   1.732  -0.985  0.00  0.00    +0.026 A 
ATOM      3  C   UNL     1      -2.402   2.279  -0.960  0.00  0.00    +0.079 A 
ATOM      4  N   UNL     1      -2.714   2.662  -2.190  0.00  0.00    -0.168 NA
ATOM      5  N   UNL     1      -1.642   2.367  -3.034  0.00  0.00    -0.218 N 
ATOM      6  C   UNL     1      -3.108   2.313   0.394  0.00  0.00    +0.127 C 
ATOM      7  S   UNL     1      -1.713   2.010   1.555  0.00  0.00    -0.150 S 
ATOM      8  C   UNL     1      -0.574   1.224   0.343  0.00  0.00    +0.110 C 
ENDROOT
BRANCH   5   9
ATOM      9  C   UNL     1      -1.581   2.618  -4.411  0.00  0.00    +0.068 A 
ATOM     10  C   UNL     1      -0.408   3.098  -4.979  0.00  0.00    +0.030 A 
ATOM     11  C   UNL     1      -0.350   3.340  -6.338  0.00  0.00    +0.035 A 
ATOM     12  C   UNL     1      -1.460   3.114  -7.130  0.00  0.00    +0.126 A 
ATOM     13  C   UNL     1      -2.631   2.642  -6.567  0.00  0.00    +0.035 A 
ATOM     14  C   UNL     1      -2.695   2.393  -5.210  0.00  0.00    +0.030 A 
BRANCH  12  15
ATOM     15  N   UNL     1      -1.395   3.380  -8.585  0.00  0.00    +0.056 N 
ATOM     16  O   UNL     1      -2.373   3.182  -9.284  0.00  0.00    -0.126 OA
ATOM     17  O   UNL     1      -0.365   3.796  -9.083  0.00  0.00    -0.126 OA
ENDBRANCH  12  15
ENDBRANCH   5   9
BRANCH   1  20
ATOM     18  C   UNL     1       1.207   0.353  -2.090  0.00  0.00    +0.250 C 
ATOM     19  O   UNL     1       0.659  -0.224  -1.171  0.00  0.00    -0.270 OA
ATOM     20  N   UNL     1       0.569   1.348  -2.737  0.00  0.00    -0.266 N 
ATOM     21  H   UNL     1       0.972   1.754  -3.521  0.00  0.00    +0.157 HD
BRANCH  18  26
ATOM     22  C   UNL     1       4.438   0.178  -3.996  0.00  0.00    +0.001 A 
ATOM     23  C   UNL     1       5.133  -0.767  -3.262  0.00  0.00    +0.001 A 
ATOM     24  C   UNL     1       4.555  -1.349  -2.148  0.00  0.00    +0.015 A 
ATOM     25  C   UNL     1       3.279  -0.990  -1.762  0.00  0.00    +0.025 A 
ATOM     26  C   UNL     1       2.573  -0.036  -2.498  0.00  0.00    +0.050 A 
ATOM     27  C   UNL     1       3.161   0.543  -3.624  0.00  0.00    +0.014 A 
ATOM     28  I   UNL     1       2.405  -1.874  -0.075  0.00  0.00    -0.043 I 
ENDBRANCH  18  26
ENDBRANCH   1  20
TORSDOF 4
