REMARK  Name = ZINC04136563
REMARK  9 active torsions:
REMARK  status: ('A' for Active; 'I' for Inactive)
REMARK    1  A    between atoms: C_1  and  C_2
REMARK    2  A    between atoms: C_2  and  C_3
REMARK    3  A    between atoms: C_2  and  C_4
REMARK    4  A    between atoms: C_2  and  C_5
REMARK    5  A    between atoms: N_13  and  N_14
REMARK    6  A    between atoms: C_15  and  C_16
REMARK    7  A    between atoms: C_19  and  O_22
REMARK    8  A    between atoms: O_22  and  C_23
REMARK    9  A    between atoms: C_23  and  C_24
REMARK                            x       y       z     vdW  Elec       q    Type
REMARK                         _______ _______ _______ _____ _____    ______ ____
ROOT
ATOM      1  N   UNL     1       3.106  -0.682  -5.467  0.00  0.00    -0.188 NA
ATOM      2  C   UNL     1       3.725  -1.027  -6.554  0.00  0.00    +0.138 C 
ENDROOT
BRANCH   1  11
ATOM      3  C   UNL     1       0.707  -0.490  -1.238  0.00  0.00    +0.133 A 
ATOM      4  C   UNL     1       0.852  -1.874  -1.479  0.00  0.00    +0.275 A 
ATOM      5  O   UNL     1       0.410  -2.696  -0.694  0.00  0.00    -0.266 OA
ATOM      6  N   UNL     1       1.492  -2.262  -2.606  0.00  0.00    -0.291 N 
ATOM      7  H   UNL     1       1.612  -3.203  -2.809  0.00  0.00    +0.172 HD
ATOM      8  C   UNL     1       1.966  -1.301  -3.450  0.00  0.00    +0.235 A 
ATOM      9  N   UNL     1       1.799  -0.021  -3.167  0.00  0.00    -0.113 NA
ATOM     10  N   UNL     1       1.189   0.369  -2.106  0.00  0.00    -0.145 NA
ATOM     11  N   UNL     1       2.618  -1.665  -4.596  0.00  0.00    -0.205 N 
ATOM     12  H   UNL     1       2.743  -2.604  -4.807  0.00  0.00    +0.177 HD
BRANCH   3  14
ATOM     13  C   UNL     1      -0.019   1.526   0.010  0.00  0.00    +0.017 C 
ATOM     14  C   UNL     1       0.002  -0.004   0.002  0.00  0.00    +0.011 C 
ATOM     15  C   UNL     1       0.742  -0.511   1.242  0.00  0.00    +0.017 C 
ATOM     16  C   UNL     1      -1.433  -0.534   0.013  0.00  0.00    +0.017 C 
ENDBRANCH   3  14
ENDBRANCH   1  11
BRANCH   2  17
ATOM     17  C   UNL     1       4.239   0.008  -7.470  0.00  0.00    -0.005 A 
ATOM     18  C   UNL     1       4.066   1.361  -7.167  0.00  0.00    +0.013 A 
ATOM     19  C   UNL     1       4.548   2.325  -8.025  0.00  0.00    +0.046 A 
ATOM     20  C   UNL     1       5.205   1.953  -9.191  0.00  0.00    +0.121 A 
ATOM     21  C   UNL     1       5.379   0.609  -9.497  0.00  0.00    +0.046 A 
ATOM     22  C   UNL     1       4.905  -0.361  -8.642  0.00  0.00    +0.013 A 
BRANCH  20  23
ATOM     23  O   UNL     1       5.678   2.906 -10.035  0.00  0.00    -0.487 OA
BRANCH  23  24
ATOM     24  C   UNL     1       6.344   2.455 -11.216  0.00  0.00    +0.264 C 
BRANCH  24  25
ATOM     25  C   UNL     1       6.796   3.644 -12.024  0.00  0.00    -0.010 A 
ATOM     26  C   UNL     1       5.959   4.192 -12.977  0.00  0.00    +0.007 A 
ATOM     27  C   UNL     1       6.374   5.283 -13.718  0.00  0.00    +0.000 A 
ATOM     28  C   UNL     1       7.626   5.827 -13.505  0.00  0.00    +0.000 A 
ATOM     29  C   UNL     1       8.464   5.280 -12.550  0.00  0.00    +0.000 A 
ATOM     30  C   UNL     1       8.047   4.191 -11.807  0.00  0.00    +0.007 A 
ENDBRANCH  24  25
ENDBRANCH  23  24
ENDBRANCH  20  23
ENDBRANCH   2  17
TORSDOF 6
