REMARK  Name = ZINC21945648
REMARK  5 active torsions:
REMARK  status: ('A' for Active; 'I' for Inactive)
REMARK    1  A    between atoms: C_3  and  C_6
REMARK    2  A    between atoms: C_6  and  N_7
REMARK    3  A    between atoms: C_11  and  N_14
REMARK    4  A    between atoms: N_14  and  C_15
REMARK    5  A    between atoms: C_18  and  N_22
REMARK                            x       y       z     vdW  Elec       q    Type
REMARK                         _______ _______ _______ _____ _____    ______ ____
ROOT
ATOM      1  N   UNL     1      -2.038   5.587   0.342  0.00  0.00    -0.226 N 
ATOM      2  C   UNL     1      -0.696   5.636   0.279  0.00  0.00    +0.248 C 
ATOM      3  O   UNL     1      -0.023   6.646   0.326  0.00  0.00    -0.270 OA
ATOM      4  C   UNL     1      -0.178   4.272   0.144  0.00  0.00    +0.096 C 
ATOM      5  C   UNL     1      -1.252   3.442   0.131  0.00  0.00    +0.100 C 
ATOM      6  C   UNL     1      -2.454   4.311   0.254  0.00  0.00    +0.268 C 
ATOM      7  O   UNL     1      -3.607   3.933   0.275  0.00  0.00    -0.268 OA
ENDROOT
BRANCH   5   8
ATOM      8  N   UNL     1      -1.234   2.069   0.019  0.00  0.00    -0.309 N 
ATOM      9  H   UNL     1      -2.177   1.514  -0.090  0.00  0.00    +0.152 HD
BRANCH   8  10
ATOM     10  C   UNL     1      -0.019   1.383   0.044  0.00  0.00    +0.046 A 
ATOM     11  C   UNL     1       1.039   1.867   0.805  0.00  0.00    +0.026 A 
ATOM     12  C   UNL     1       2.242   1.190   0.822  0.00  0.00    +0.034 A 
ATOM     13  C   UNL     1       2.395   0.029   0.085  0.00  0.00    +0.127 A 
ATOM     14  C   UNL     1       1.345  -0.456  -0.673  0.00  0.00    +0.049 A 
ATOM     15  C   UNL     1       0.139   0.217  -0.696  0.00  0.00    +0.041 A 
ATOM     16 BR   UNL     1      -1.296  -0.447  -1.733  0.00  0.00    -0.048 Br
BRANCH  13  17
ATOM     17  N   UNL     1       3.686  -0.694   0.107  0.00  0.00    +0.056 N 
ATOM     18  O   UNL     1       3.823  -1.716  -0.542  0.00  0.00    -0.126 OA
ATOM     19  O   UNL     1       4.612  -0.268   0.774  0.00  0.00    -0.126 OA
ENDBRANCH  13  17
ENDBRANCH   8  10
ENDBRANCH   5   8
BRANCH   1  20
ATOM     20  C   UNL     1      -2.917   6.751   0.480  0.00  0.00    +0.191 C 
BRANCH  20  23
ATOM     21  C   UNL     1      -4.318   7.607  -2.820  0.00  0.00    +0.041 A 
ATOM     22  C   UNL     1      -4.352   6.872  -1.613  0.00  0.00    +0.046 A 
ATOM     23  C   UNL     1      -3.289   7.264  -0.887  0.00  0.00    +0.123 A 
ATOM     24  O   UNL     1      -2.613   8.187  -1.591  0.00  0.00    -0.466 OA
ATOM     25  C   UNL     1      -3.232   8.399  -2.764  0.00  0.00    +0.195 A 
ENDBRANCH  20  23
ENDBRANCH   1  20
TORSDOF 5
