REMARK  Name = ZINC20285005
REMARK  9 active torsions:
REMARK  status: ('A' for Active; 'I' for Inactive)
REMARK    1  A    between atoms: C_1  and  C_2
REMARK    2  A    between atoms: C_12  and  C_14
REMARK    3  A    between atoms: C_14  and  C_16
REMARK    4  A    between atoms: C_14  and  N_19
REMARK    5  A    between atoms: C_16  and  C_17
REMARK    6  A    between atoms: C_16  and  C_18
REMARK    7  A    between atoms: N_19  and  S_20
REMARK    8  A    between atoms: S_20  and  C_23
REMARK    9  A    between atoms: N_32  and  C_33
REMARK                            x       y       z     vdW  Elec       q    Type
REMARK                         _______ _______ _______ _____ _____    ______ ____
ROOT
ATOM      1  C   UNL     1       1.076   3.723   0.047  0.00  0.00    +0.165 C 
ENDROOT
BRANCH   1  13
ATOM      2  C   UNL     1       0.608  -6.238   1.100  0.00  0.00    +0.044 C 
ATOM      3  C   UNL     1       0.819  -4.754   0.939  0.00  0.00    -0.049 A 
ATOM      4  C   UNL     1       2.102  -4.234   0.850  0.00  0.00    +0.005 A 
ATOM      5  C   UNL     1       2.321  -2.889   0.704  0.00  0.00    +0.029 A 
ATOM      6  C   UNL     1       1.236  -1.984   0.638  0.00  0.00    +0.080 A 
ATOM      7  C   UNL     1      -0.056  -2.549   0.732  0.00  0.00    +0.041 A 
ATOM      8  C   UNL     1      -0.265  -3.898   0.879  0.00  0.00    +0.020 A 
ATOM      9  S   UNL     1      -1.104  -1.119   0.618  0.00  0.00    -0.052 S 
ATOM     10  C   UNL     1       0.195   0.098   0.449  0.00  0.00    +0.165 A 
ATOM     11  N   UNL     1       1.278  -0.641   0.496  0.00  0.00    -0.225 NA
ATOM     12  N   UNL     1       0.085   1.472   0.309  0.00  0.00    -0.263 N 
ATOM     13  C   UNL     1       1.195   2.228   0.200  0.00  0.00    +0.238 C 
ATOM     14  O   UNL     1       2.289   1.707   0.224  0.00  0.00    -0.274 OA
ATOM     15  H   UNL     1      -0.908   1.945   0.286  0.00  0.00    +0.157 HD
ENDBRANCH   1  13
BRANCH   1  16
ATOM     16  C   UNL     1       0.350   4.303   1.263  0.00  0.00    +0.010 C 
ATOM     17  C   UNL     1       1.143   3.982   2.531  0.00  0.00    +0.009 C 
ATOM     18  C   UNL     1       0.229   5.821   1.109  0.00  0.00    +0.009 C 
ENDBRANCH   1  16
BRANCH   1  19
ATOM     19  N   UNL     1       2.413   4.312  -0.050  0.00  0.00    -0.178 NA
ATOM     20  H   UNL     1       2.917   4.687   0.853  0.00  0.00    +0.149 HD
BRANCH  19  21
ATOM     21  S   UNL     1       3.066   4.642  -1.536  0.00  0.00    +0.059 S 
ATOM     22  O   UNL     1       4.334   5.239  -1.299  0.00  0.00    -0.153 OA
ATOM     23  O   UNL     1       2.913   3.466  -2.318  0.00  0.00    -0.153 OA
BRANCH  21  24
ATOM     24  C   UNL     1       2.059   5.879  -2.284  0.00  0.00    +0.109 A 
ATOM     25  C   UNL     1       1.055   5.511  -3.163  0.00  0.00    +0.031 A 
ATOM     26  C   UNL     1       0.258   6.475  -3.750  0.00  0.00    +0.031 A 
ATOM     27  C   UNL     1       0.473   7.814  -3.465  0.00  0.00    +0.090 A 
ATOM     28  C   UNL     1       1.488   8.187  -2.584  0.00  0.00    +0.159 A 
ATOM     29  C   UNL     1       2.279   7.212  -1.996  0.00  0.00    +0.077 A 
ATOM     30  O   UNL     1       1.468   9.539  -2.495  0.00  0.00    -0.407 OA
ATOM     31  C   UNL     1       0.489  10.018  -3.279  0.00  0.00    +0.421 A 
ATOM     32  O   UNL     1       0.213  11.194  -3.418  0.00  0.00    -0.223 OA
ATOM     33  N   UNL     1      -0.140   8.993  -3.888  0.00  0.00    -0.277 N 
ATOM     34  C   UNL     1      -1.264   9.099  -4.822  0.00  0.00    +0.156 C 
ENDBRANCH  21  24
ENDBRANCH  19  21
ENDBRANCH   1  19
TORSDOF 5
