REMARK  Name = ZINC51992819
REMARK  5 active torsions:
REMARK  status: ('A' for Active; 'I' for Inactive)
REMARK    1  A    between atoms: C_4  and  S_8
REMARK    2  A    between atoms: C_5  and  N_7
REMARK    3  A    between atoms: S_8  and  N_11
REMARK    4  A    between atoms: N_11  and  C_12
REMARK    5  A    between atoms: C_18  and  O_20
REMARK                            x       y       z     vdW  Elec       q    Type
REMARK                         _______ _______ _______ _____ _____    ______ ____
ROOT
ATOM      1  S   UNL     1       3.893  -0.881  -0.002  0.00  0.00    +0.060 S 
ATOM      2  O   UNL     1       3.799  -1.939  -0.946  0.00  0.00    -0.153 OA
ATOM      3  O   UNL     1       4.803   0.200  -0.157  0.00  0.00    -0.153 OA
ENDROOT
BRANCH   1   7
ATOM      4  C   UNL     1      -0.243   0.943   0.314  0.00  0.00    +0.002 A 
ATOM      5  C   UNL     1      -0.007  -0.095  -0.569  0.00  0.00    +0.002 A 
ATOM      6  C   UNL     1       1.256  -0.651  -0.666  0.00  0.00    +0.030 A 
ATOM      7  C   UNL     1       2.285  -0.171   0.121  0.00  0.00    +0.126 A 
ATOM      8  C   UNL     1       2.051   0.871   1.009  0.00  0.00    +0.051 A 
ATOM      9  C   UNL     1       0.781   1.427   1.103  0.00  0.00    +0.025 A 
BRANCH   8  10
ATOM     10  N   UNL     1       3.090   1.358   1.806  0.00  0.00    -0.356 N 
ATOM     11  H   UNL     1       3.990   1.016   1.691  0.00  0.00    +0.142 HD
ATOM     12  H   UNL     1       2.910   2.038   2.473  0.00  0.00    +0.142 HD
ENDBRANCH   8  10
ENDBRANCH   1   7
BRANCH   1  13
ATOM     13  N   UNL     1       4.233  -1.580   1.460  0.00  0.00    -0.184 NA
ATOM     14  H   UNL     1       4.958  -1.237   2.005  0.00  0.00    +0.148 HD
BRANCH  13  15
ATOM     15  C   UNL     1       3.438  -2.716   1.931  0.00  0.00    +0.105 C 
ATOM     16  C   UNL     1       2.346  -2.217   2.881  0.00  0.00    +0.023 C 
ATOM     17  C   UNL     1       2.993  -1.516   4.077  0.00  0.00    +0.002 C 
ATOM     18  C   UNL     1       3.900  -2.502   4.816  0.00  0.00    +0.003 C 
ATOM     19  C   UNL     1       4.991  -3.002   3.867  0.00  0.00    +0.033 C 
ATOM     20  C   UNL     1       4.345  -3.702   2.670  0.00  0.00    +0.133 C 
BRANCH  20  21
ATOM     21  O   UNL     1       5.364  -4.169   1.784  0.00  0.00    -0.390 OA
ATOM     22  H   UNL     1       5.977  -4.799   2.186  0.00  0.00    +0.210 HD
ENDBRANCH  20  21
ENDBRANCH  13  15
ENDBRANCH   1  13
TORSDOF 5
