REMARK  Name = ZINC34755476
REMARK  10 active torsions:
REMARK  status: ('A' for Active; 'I' for Inactive)
REMARK    1  A    between atoms: C_1  and  C_2
REMARK    2  A    between atoms: C_2  and  C_3
REMARK    3  A    between atoms: C_2  and  N_4
REMARK    4  A    between atoms: N_4  and  C_5
REMARK    5  A    between atoms: N_15  and  C_18
REMARK    6  A    between atoms: N_26  and  C_28
REMARK    7  A    between atoms: C_28  and  C_29
REMARK    8  A    between atoms: C_33  and  O_36
REMARK    9  A    between atoms: C_34  and  O_35
REMARK   10  A    between atoms: O_36  and  C_37
REMARK                            x       y       z     vdW  Elec       q    Type
REMARK                         _______ _______ _______ _____ _____    ______ ____
ROOT
ATOM      1  N   UNL     1      -1.309  -0.946   0.151  0.00  0.00    -0.315 N 
ATOM      2  C   UNL     1      -1.349   0.511   0.002  0.00  0.00    +0.131 C 
ATOM      3  C   UNL     1      -1.776  -1.760  -0.868  0.00  0.00    +0.128 A 
ATOM      4  C   UNL     1      -3.136  -2.072  -0.959  0.00  0.00    -0.003 A 
ATOM      5  C   UNL     1      -3.557  -2.882  -1.988  0.00  0.00    +0.048 A 
ATOM      6  N   UNL     1      -2.666  -3.344  -2.857  0.00  0.00    -0.219 NA
ATOM      7  C   UNL     1      -1.383  -3.034  -2.747  0.00  0.00    +0.220 A 
ATOM      8  N   UNL     1      -0.939  -2.250  -1.776  0.00  0.00    -0.199 NA
ATOM      9  N   UNL     1      -0.486  -3.535  -3.673  0.00  0.00    -0.297 N 
ATOM     10  C   UNL     1       0.946  -3.215  -3.577  0.00  0.00    +0.127 C 
ATOM     11  C   UNL     1       1.739  -4.527  -3.536  0.00  0.00    +0.124 C 
ATOM     12  N   UNL     1       1.278  -5.390  -4.633  0.00  0.00    -0.327 N 
ATOM     13  C   UNL     1      -0.153  -5.710  -4.729  0.00  0.00    +0.124 C 
ATOM     14  C   UNL     1      -0.946  -4.402  -4.767  0.00  0.00    +0.127 C 
ATOM     15  C   UNL     1      -5.008  -3.253  -2.152  0.00  0.00    +0.037 C 
ATOM     16  C   UNL     1      -5.763  -2.964  -0.854  0.00  0.00    -0.072 C 
ATOM     17  N   UNL     1      -5.469  -1.585  -0.434  0.00  0.00    +0.386 N 
ATOM     18  C   UNL     1      -4.091  -1.519   0.062  0.00  0.00    -0.037 C 
ATOM     19  H   UNL     1      -5.575  -0.963  -1.222  0.00  0.00    -0.081 HD
ENDROOT
BRANCH  12  20
ATOM     20  C   UNL     1       2.184  -5.896  -5.568  0.00  0.00    +0.030 A 
ATOM     21  C   UNL     1       3.548  -5.698  -5.394  0.00  0.00    +0.023 A 
ATOM     22  C   UNL     1       4.441  -6.200  -6.320  0.00  0.00    +0.002 A 
ATOM     23  C   UNL     1       3.979  -6.900  -7.420  0.00  0.00    +0.000 A 
ATOM     24  C   UNL     1       2.622  -7.099  -7.596  0.00  0.00    +0.002 A 
ATOM     25  C   UNL     1       1.724  -6.604  -6.671  0.00  0.00    +0.023 A 
ENDBRANCH  12  20
BRANCH   1  27
ATOM     26  C   UNL     1       0.681  -1.112   1.563  0.00  0.00    +0.028 C 
ATOM     27  C   UNL     1      -0.775  -1.542   1.379  0.00  0.00    +0.068 C 
ATOM     28  C   UNL     1      -1.602  -1.070   2.576  0.00  0.00    +0.028 C 
ENDBRANCH   1  27
BRANCH  17  29
ATOM     29  C   UNL     1      -6.396  -1.189   0.635  0.00  0.00    -0.039 C 
BRANCH  29  30
ATOM     30  C   UNL     1      -7.800  -1.144   0.091  0.00  0.00    -0.019 A 
ATOM     31  C   UNL     1      -8.697  -2.147   0.408  0.00  0.00    +0.005 A 
ATOM     32  C   UNL     1      -9.986  -2.109  -0.089  0.00  0.00    +0.004 A 
ATOM     33  C   UNL     1     -10.385  -1.067  -0.906  0.00  0.00    +0.049 A 
ATOM     34  C   UNL     1      -9.491  -0.059  -1.228  0.00  0.00    +0.161 A 
ATOM     35  C   UNL     1      -8.195  -0.094  -0.722  0.00  0.00    +0.160 A 
BRANCH  35  36
ATOM     36  O   UNL     1      -7.316   0.897  -1.031  0.00  0.00    -0.503 OA
ATOM     37  H   UNL     1      -6.800   0.730  -1.832  0.00  0.00    +0.292 HD
ENDBRANCH  35  36
BRANCH  34  38
ATOM     38  O   UNL     1      -9.882   0.967  -2.032  0.00  0.00    -0.491 OA
ATOM     39  C   UNL     1     -11.228   0.940  -2.509  0.00  0.00    +0.277 C 
ENDBRANCH  34  38
ENDBRANCH  29  30
ENDBRANCH  17  29
TORSDOF 6
