REMARK  Name = ZINC20503250
REMARK  5 active torsions:
REMARK  status: ('A' for Active; 'I' for Inactive)
REMARK    1  A    between atoms: C_14  and  C_29
REMARK    2  A    between atoms: N_16  and  C_17
REMARK    3  A    between atoms: C_17  and  C_18
REMARK    4  A    between atoms: N_20  and  C_21
REMARK    5  A    between atoms: C_21  and  C_22
REMARK                            x       y       z     vdW  Elec       q    Type
REMARK                         _______ _______ _______ _____ _____    ______ ____
ROOT
ATOM      1  C   UNL     1       0.771   1.886  -5.736  0.00  0.00    +0.002 A 
ATOM      2  C   UNL     1      -0.212   2.738  -6.211  0.00  0.00    +0.002 A 
ATOM      3  C   UNL     1      -1.171   3.234  -5.347  0.00  0.00    +0.025 A 
ATOM      4  C   UNL     1      -1.155   2.885  -4.009  0.00  0.00    +0.052 A 
ATOM      5  C   UNL     1      -0.149   2.031  -3.508  0.00  0.00    +0.052 A 
ATOM      6  C   UNL     1       0.807   1.534  -4.406  0.00  0.00    +0.025 A 
ATOM      7  N   UNL     1      -0.062   1.705  -2.211  0.00  0.00    -0.316 N 
ATOM      8  C   UNL     1      -0.910   1.418  -1.286  0.00  0.00    +0.017 C 
ATOM      9  C   UNL     1      -0.330   0.801  -0.024  0.00  0.00    +0.051 C 
ATOM     10  C   UNL     1      -1.249   1.080   1.163  0.00  0.00    +0.014 C 
ATOM     11  C   UNL     1      -2.635   0.517   0.836  0.00  0.00    +0.080 C 
ATOM     12  C   UNL     1      -3.139   1.197  -0.405  0.00  0.00    +0.163 C 
ATOM     13  C   UNL     1      -2.305   1.624  -1.377  0.00  0.00    +0.040 C 
ATOM     14  C   UNL     1      -2.917   2.318  -2.543  0.00  0.00    +0.175 C 
ATOM     15  N   UNL     1      -2.114   3.354  -3.135  0.00  0.00    -0.306 N 
ATOM     16  O   UNL     1      -4.468   1.386  -0.553  0.00  0.00    -0.292 OA
ATOM     17  H   UNL     1       1.015   1.714  -1.986  0.00  0.00    +0.152 HD
ENDROOT
BRANCH  14  18
ATOM     18  C   UNL     1      -3.217   1.289  -3.603  0.00  0.00    +0.130 A 
ATOM     19  C   UNL     1      -4.420   0.737  -3.845  0.00  0.00    +0.047 A 
ATOM     20  C   UNL     1      -4.246  -0.170  -4.915  0.00  0.00    +0.041 A 
ATOM     21  C   UNL     1      -2.948  -0.118  -5.264  0.00  0.00    +0.195 A 
ATOM     22  O   UNL     1      -2.331   0.772  -4.469  0.00  0.00    -0.466 OA
ENDBRANCH  14  18
BRANCH  15  23
ATOM     23  C   UNL     1      -2.956   4.373  -3.776  0.00  0.00    +0.201 C 
BRANCH  23  24
ATOM     24  C   UNL     1      -3.751   5.102  -2.723  0.00  0.00    +0.231 C 
ATOM     25  O   UNL     1      -3.544   4.884  -1.548  0.00  0.00    -0.274 OA
ATOM     26  N   UNL     1      -4.690   5.997  -3.087  0.00  0.00    -0.310 N 
ATOM     27  H   UNL     1      -4.877   6.196  -4.153  0.00  0.00    +0.149 HD
BRANCH  26  28
ATOM     28  C   UNL     1      -5.462   6.707  -2.064  0.00  0.00    +0.139 C 
BRANCH  28  29
ATOM     29  C   UNL     1      -6.438   7.642  -2.729  0.00  0.00    -0.030 A 
ATOM     30  C   UNL     1      -6.064   8.943  -3.012  0.00  0.00    +0.008 A 
ATOM     31  C   UNL     1      -6.957   9.800  -3.627  0.00  0.00    +0.038 A 
ATOM     32  C   UNL     1      -8.229   9.359  -3.951  0.00  0.00    +0.123 A 
ATOM     33  C   UNL     1      -8.603   8.058  -3.663  0.00  0.00    +0.038 A 
ATOM     34  C   UNL     1      -7.707   7.201  -3.052  0.00  0.00    +0.008 A 
ATOM     35  F   UNL     1      -9.103  10.198  -4.548  0.00  0.00    -0.205 F 
ENDBRANCH  28  29
ENDBRANCH  26  28
ENDBRANCH  23  24
ENDBRANCH  15  23
TORSDOF 5
