REMARK  Name = ZINC64566988
REMARK  9 active torsions:
REMARK  status: ('A' for Active; 'I' for Inactive)
REMARK    1  A    between atoms: C_1  and  C_2
REMARK    2  A    between atoms: C_2  and  C_3
REMARK    3  A    between atoms: C_10  and  N_14
REMARK    4  A    between atoms: C_11  and  C_13
REMARK    5  A    between atoms: C_15  and  C_17
REMARK    6  A    between atoms: C_17  and  C_18
REMARK    7  A    between atoms: C_18  and  O_20
REMARK    8  A    between atoms: O_20  and  C_21
REMARK    9  A    between atoms: C_21  and  C_22
REMARK                            x       y       z     vdW  Elec       q    Type
REMARK                         _______ _______ _______ _____ _____    ______ ____
ROOT
ATOM      1  C   UNL     1      -1.397  -0.518   0.014  0.00  0.00    +0.035 A 
ATOM      2  C   UNL     1      -1.984  -0.835  -1.140  0.00  0.00    +0.070 A 
ATOM      3  S   UNL     1      -3.596  -1.376  -0.596  0.00  0.00    -0.059 S 
ATOM      4  C   UNL     1      -3.346  -1.130   1.150  0.00  0.00    +0.158 A 
ATOM      5  N   UNL     1      -2.060  -0.661   1.209  0.00  0.00    -0.259 N 
ATOM      6  C   UNL     1      -1.571  -0.377   2.454  0.00  0.00    +0.280 A 
ATOM      7  O   UNL     1      -0.434   0.050   2.581  0.00  0.00    -0.265 OA
ATOM      8  C   UNL     1      -2.376  -0.576   3.582  0.00  0.00    +0.118 A 
ATOM      9  C   UNL     1      -3.662  -1.060   3.427  0.00  0.00    +0.041 A 
ATOM     10  N   UNL     1      -4.107  -1.316   2.198  0.00  0.00    -0.337 N 
ATOM     11  C   UNL     1      -4.548  -1.283   4.626  0.00  0.00    +0.065 C 
ATOM     12  H   UNL     1      -5.008  -1.656   2.079  0.00  0.00    +0.168 HD
ENDROOT
BRANCH   8  13
ATOM     13  N   UNL     1      -1.880  -0.287   4.865  0.00  0.00    -0.279 N 
ATOM     14  C   UNL     1      -0.784  -0.924   5.323  0.00  0.00    +0.228 C 
ATOM     15  O   UNL     1      -0.176  -1.683   4.597  0.00  0.00    -0.275 OA
ATOM     16  H   UNL     1      -2.326   0.371   5.420  0.00  0.00    +0.155 HD
BRANCH  14  17
ATOM     17  C   UNL     1      -0.314  -0.694   6.736  0.00  0.00    +0.216 C 
BRANCH  17  18
ATOM     18  C   UNL     1       0.921  -1.518   6.995  0.00  0.00    +0.316 C 
ATOM     19  O   UNL     1       1.373  -2.221   6.122  0.00  0.00    -0.250 OA
BRANCH  18  20
ATOM     20  O   UNL     1       1.519  -1.472   8.196  0.00  0.00    -0.465 OA
BRANCH  20  21
ATOM     21  C   UNL     1       2.685  -2.279   8.372  0.00  0.00    +0.229 C 
ATOM     22  C   UNL     1       3.222  -2.096   9.792  0.00  0.00    +0.048 C 
ENDBRANCH  20  21
ENDBRANCH  18  20
ENDBRANCH  17  18
ENDBRANCH  14  17
ENDBRANCH   8  13
BRANCH   1  24
ATOM     23  C   UNL     1       0.002   1.529   0.020  0.00  0.00    +0.010 C 
ATOM     24  C   UNL     1       0.018  -0.001   0.009  0.00  0.00    +0.051 C 
ENDBRANCH   1  24
TORSDOF 6
