REMARK  Name = ZINC64044394
REMARK  4 active torsions:
REMARK  status: ('A' for Active; 'I' for Inactive)
REMARK    1  A    between atoms: C_8  and  C_16
REMARK    2  A    between atoms: C_18  and  O_33
REMARK    3  A    between atoms: C_20  and  O_32
REMARK    4  A    between atoms: N_22  and  C_25
REMARK                            x       y       z     vdW  Elec       q    Type
REMARK                         _______ _______ _______ _____ _____    ______ ____
ROOT
ATOM      1  C   UNL     1       5.224  -3.143  -0.963  0.00  0.00    +0.179 C 
ATOM      2  C   UNL     1       5.640  -4.010  -2.116  0.00  0.00    +0.200 C 
ATOM      3  N   UNL     1       5.800  -5.272  -2.013  0.00  0.00    -0.204 NA
ATOM      4  C   UNL     1       5.599  -6.023  -0.785  0.00  0.00    +0.338 C 
ATOM      5  N   UNL     1       5.661  -5.172   0.395  0.00  0.00    -0.225 N 
ATOM      6  C   UNL     1       5.483  -3.850   0.337  0.00  0.00    +0.237 C 
ATOM      7  O   UNL     1       5.531  -3.205   1.363  0.00  0.00    -0.274 OA
ENDROOT
BRANCH   1  14
ATOM      8  C   UNL     1       0.346   1.725  -0.288  0.00  0.00    +0.001 A 
ATOM      9  C   UNL     1       1.565   2.404  -0.419  0.00  0.00    +0.002 A 
ATOM     10  C   UNL     1       2.756   1.768  -0.416  0.00  0.00    +0.026 A 
ATOM     11  C   UNL     1       2.818   0.355  -0.276  0.00  0.00    +0.043 A 
ATOM     12  N   UNL     1       3.836  -0.477  -0.269  0.00  0.00    -0.376 N 
ATOM     13  C   UNL     1       3.332  -1.820   0.001  0.00  0.00    +0.124 C 
ATOM     14  C   UNL     1       3.732  -2.828  -1.080  0.00  0.00    +0.101 C 
ATOM     15  N   UNL     1       2.947  -4.057  -0.880  0.00  0.00    -0.310 NA
ATOM     16  C   UNL     1       1.514  -3.874  -1.126  0.00  0.00    +0.085 C 
ATOM     17  C   UNL     1       0.917  -2.910  -0.083  0.00  0.00    +0.048 C 
ATOM     18  C   UNL     1       1.817  -1.695  -0.040  0.00  0.00    -0.036 C 
ATOM     19  C   UNL     1       1.541  -0.390  -0.144  0.00  0.00    -0.001 A 
ATOM     20  C   UNL     1       0.291   0.381  -0.153  0.00  0.00    +0.010 A 
ATOM     21  H   UNL     1       3.316  -4.815  -1.434  0.00  0.00    +0.122 HD
ATOM     22  H   UNL     1       4.764  -0.239  -0.418  0.00  0.00    +0.160 HD
ENDBRANCH   1  14
BRANCH   5  23
ATOM     23  C   UNL     1       5.918  -5.764   1.637  0.00  0.00    +0.043 A 
ATOM     24  C   UNL     1       7.165  -6.316   1.900  0.00  0.00    +0.024 A 
ATOM     25  C   UNL     1       7.417  -6.899   3.127  0.00  0.00    +0.005 A 
ATOM     26  C   UNL     1       6.428  -6.934   4.093  0.00  0.00    +0.038 A 
ATOM     27  C   UNL     1       5.183  -6.386   3.834  0.00  0.00    +0.125 A 
ATOM     28  C   UNL     1       4.928  -5.795   2.609  0.00  0.00    +0.062 A 
ATOM     29  F   UNL     1       4.219  -6.423   4.780  0.00  0.00    -0.205 F 
ENDBRANCH   5  23
BRANCH   4  30
ATOM     30  O   UNL     1       4.318  -6.655  -0.832  0.00  0.00    -0.356 OA
ATOM     31  H   UNL     1       4.210  -7.271  -1.569  0.00  0.00    +0.214 HD
ENDBRANCH   4  30
BRANCH   2  32
ATOM     32  O   UNL     1       5.854  -3.429  -3.315  0.00  0.00    -0.495 OA
ATOM     33  H   UNL     1       6.119  -4.046  -4.010  0.00  0.00    +0.293 HD
ENDBRANCH   2  32
TORSDOF 4
