REMARK  Name = ZINC30738389
REMARK  7 active torsions:
REMARK  status: ('A' for Active; 'I' for Inactive)
REMARK    1  A    between atoms: C_4  and  C_7
REMARK    2  A    between atoms: C_13  and  C_15
REMARK    3  A    between atoms: N_17  and  N_18
REMARK    4  A    between atoms: C_19  and  C_20
REMARK    5  A    between atoms: C_22  and  C_27
REMARK    6  A    between atoms: C_25  and  O_26
REMARK    7  A    between atoms: C_27  and  C_28
REMARK                            x       y       z     vdW  Elec       q    Type
REMARK                         _______ _______ _______ _____ _____    ______ ____
ROOT
ATOM      1  N   UNL     1       1.306   1.287   2.040  0.00  0.00    -0.188 NA
ATOM      2  C   UNL     1       2.441   0.665   1.937  0.00  0.00    +0.142 C 
ENDROOT
BRANCH   2   3
ATOM      3  C   UNL     1       2.516  -0.616   1.211  0.00  0.00    +0.036 A 
ATOM      4  C   UNL     1       1.346  -1.301   0.873  0.00  0.00    +0.017 A 
ATOM      5  C   UNL     1       1.423  -2.498   0.193  0.00  0.00    -0.042 A 
ATOM      6  C   UNL     1       2.656  -3.025  -0.155  0.00  0.00    +0.007 A 
ATOM      7  C   UNL     1       3.820  -2.357   0.174  0.00  0.00    +0.046 A 
ATOM      8  C   UNL     1       3.760  -1.150   0.852  0.00  0.00    +0.125 A 
BRANCH   8   9
ATOM      9  O   UNL     1       4.904  -0.490   1.171  0.00  0.00    -0.506 OA
ATOM     10  H   UNL     1       5.879  -0.912   0.887  0.00  0.00    +0.292 HD
ENDBRANCH   8   9
BRANCH   5  11
ATOM     11  C   UNL     1       0.162  -3.236  -0.172  0.00  0.00    +0.071 C 
BRANCH  11  12
ATOM     12  C   UNL     1       0.080  -3.380  -1.670  0.00  0.00    -0.025 A 
ATOM     13  C   UNL     1       0.368  -4.595  -2.264  0.00  0.00    +0.005 A 
ATOM     14  C   UNL     1       0.292  -4.727  -3.638  0.00  0.00    +0.000 A 
ATOM     15  C   UNL     1      -0.072  -3.645  -4.418  0.00  0.00    +0.001 A 
ATOM     16  C   UNL     1      -0.360  -2.431  -3.825  0.00  0.00    +0.020 A 
ATOM     17  C   UNL     1      -0.290  -2.299  -2.450  0.00  0.00    +0.044 A 
ATOM     18 CL   UNL     1      -0.659  -0.776  -1.703  0.00  0.00    -0.083 Cl
ENDBRANCH  11  12
ENDBRANCH   5  11
ENDBRANCH   2   3
BRANCH   1  21
ATOM     19  C   UNL     1      -0.915   1.639   1.258  0.00  0.00    +0.245 C 
ATOM     20  O   UNL     1      -1.064   2.494   2.106  0.00  0.00    -0.273 OA
ATOM     21  N   UNL     1       0.272   1.013   1.135  0.00  0.00    -0.206 N 
ATOM     22  H   UNL     1       0.429   0.286   0.324  0.00  0.00    +0.177 HD
BRANCH  19  28
ATOM     23  C   UNL     1      -3.226   2.273   0.517  0.00  0.00    +0.057 C 
ATOM     24  C   UNL     1      -4.453   1.349   0.357  0.00  0.00    +0.113 C 
ATOM     25  N   UNL     1      -3.988   0.011   0.740  0.00  0.00    -0.314 N 
ATOM     26  C   UNL     1      -2.643  -0.061   0.733  0.00  0.00    +0.226 C 
ATOM     27  O   UNL     1      -1.997  -1.052   1.001  0.00  0.00    -0.275 OA
ATOM     28  C   UNL     1      -2.056   1.277   0.343  0.00  0.00    +0.171 C 
ATOM     29  H   UNL     1      -4.717  -0.775   0.986  0.00  0.00    +0.149 HD
BRANCH  23  33
ATOM     30  C   UNL     1      -3.153   5.263  -2.533  0.00  0.00    +0.000 A 
ATOM     31  C   UNL     1      -3.056   5.630  -1.203  0.00  0.00    +0.000 A 
ATOM     32  C   UNL     1      -3.079   4.662  -0.216  0.00  0.00    +0.004 A 
ATOM     33  C   UNL     1      -3.200   3.328  -0.559  0.00  0.00    -0.042 A 
ATOM     34  C   UNL     1      -3.292   2.962  -1.889  0.00  0.00    +0.004 A 
ATOM     35  C   UNL     1      -3.273   3.930  -2.875  0.00  0.00    +0.000 A 
ENDBRANCH  23  33
ENDBRANCH  19  28
ENDBRANCH   1  21
TORSDOF 7
