REMARK  Name = ZINC02423456
REMARK  7 active torsions:
REMARK  status: ('A' for Active; 'I' for Inactive)
REMARK    1  A    between atoms: C_1  and  C_2
REMARK    2  A    between atoms: C_2  and  C_32
REMARK    3  A    between atoms: C_7  and  C_31
REMARK    4  A    between atoms: C_10  and  N_11
REMARK    5  A    between atoms: C_10  and  N_62
REMARK    6  A    between atoms: N_19  and  N_20
REMARK    7  A    between atoms: C_21  and  C_23
REMARK                            x       y       z     vdW  Elec       q    Type
REMARK                         _______ _______ _______ _____ _____    ______ ____
ROOT
ATOM      1  N   UNL     1      -4.586  -3.544   0.069  0.00  0.00    -0.282 N 
ATOM      2  C   UNL     1      -4.144  -4.840  -0.174  0.00  0.00    +0.044 A 
ATOM      3  C   UNL     1      -4.836  -6.015  -0.445  0.00  0.00    +0.024 A 
ATOM      4  C   UNL     1      -4.146  -7.193  -0.653  0.00  0.00    +0.002 A 
ATOM      5  C   UNL     1      -2.763  -7.220  -0.594  0.00  0.00    +0.001 A 
ATOM      6  C   UNL     1      -2.059  -6.062  -0.326  0.00  0.00    +0.012 A 
ATOM      7  C   UNL     1      -2.745  -4.870  -0.122  0.00  0.00    +0.028 A 
ATOM      8  C   UNL     1      -2.308  -3.489   0.186  0.00  0.00    +0.153 C 
ATOM      9  N   UNL     1      -1.079  -3.053   0.332  0.00  0.00    -0.174 NA
ATOM     10  C   UNL     1      -3.557  -2.707   0.287  0.00  0.00    +0.270 C 
ATOM     11  O   UNL     1      -3.639  -1.516   0.525  0.00  0.00    -0.268 OA
ENDROOT
BRANCH   9  12
ATOM     12  N   UNL     1      -0.844  -1.702   0.618  0.00  0.00    -0.202 N 
ATOM     13  C   UNL     1       0.418  -1.255   0.768  0.00  0.00    +0.263 C 
ATOM     14  O   UNL     1       1.353  -2.024   0.655  0.00  0.00    -0.268 OA
ATOM     15  H   UNL     1      -1.590  -1.089   0.709  0.00  0.00    +0.178 HD
BRANCH  13  16
ATOM     16  C   UNL     1       0.666   0.170   1.070  0.00  0.00    +0.038 A 
ATOM     17  C   UNL     1      -0.405   1.057   1.195  0.00  0.00    +0.013 A 
ATOM     18  C   UNL     1      -0.166   2.385   1.482  0.00  0.00    +0.001 A 
ATOM     19  C   UNL     1       1.131   2.841   1.635  0.00  0.00    +0.000 A 
ATOM     20  C   UNL     1       2.197   1.968   1.507  0.00  0.00    +0.001 A 
ATOM     21  C   UNL     1       1.973   0.636   1.226  0.00  0.00    +0.013 A 
ENDBRANCH  13  16
ENDBRANCH   9  12
BRANCH   1  22
ATOM     22  C   UNL     1      -5.994  -3.141   0.085  0.00  0.00    +0.039 C 
BRANCH  22  33
ATOM     23  C   UNL     1      -9.413   0.491  -0.647  0.00  0.00    +0.011 C 
ATOM     24  C   UNL     1      -8.115  -0.352  -0.751  0.00  0.00    -0.036 C 
ATOM     25  C   UNL     1      -8.497  -1.792  -0.491  0.00  0.00    -0.009 C 
ATOM     26  C   UNL     1      -7.922  -2.834  -1.436  0.00  0.00    -0.065 C 
ATOM     27  C   UNL     1      -8.065  -2.276  -2.881  0.00  0.00    -0.011 C 
ATOM     28  C   UNL     1      -6.934  -1.212  -2.856  0.00  0.00    -0.048 C 
ATOM     29  C   UNL     1      -7.469  -0.012  -2.078  0.00  0.00    +0.011 C 
ATOM     30  C   UNL     1      -5.822  -1.879  -2.010  0.00  0.00    -0.070 C 
ATOM     31  C   UNL     1      -6.449  -0.840  -4.265  0.00  0.00    +0.009 C 
ATOM     32  C   UNL     1      -7.200   0.140   0.388  0.00  0.00    +0.011 C 
ATOM     33  N   UNL     1      -6.457  -3.013  -1.338  0.00  0.00    +0.393 N 
ATOM     34  H   UNL     1      -6.199  -3.876  -1.832  0.00  0.00    -0.079 HD
ENDBRANCH  22  33
ENDBRANCH   1  22
TORSDOF 4
