REMARK  Name = ZINC02788894
REMARK  5 active torsions:
REMARK  status: ('A' for Active; 'I' for Inactive)
REMARK    1  A    between atoms: C_4  and  N_7
REMARK    2  A    between atoms: C_10  and  C_12
REMARK    3  A    between atoms: C_17  and  C_25
REMARK    4  A    between atoms: C_19  and  C_23
REMARK    5  A    between atoms: C_20  and  N_22
REMARK                            x       y       z     vdW  Elec       q    Type
REMARK                         _______ _______ _______ _____ _____    ______ ____
ROOT
ATOM      1  N   UNL     1      -3.189  -1.733   0.393  0.00  0.00    -0.199 N 
ATOM      2  C   UNL     1      -2.540  -2.620  -0.395  0.00  0.00    +0.230 A 
ATOM      3  C   UNL     1      -1.296  -2.120  -0.646  0.00  0.00    +0.058 A 
ATOM      4  C   UNL     1      -1.183  -0.888   0.009  0.00  0.00    +0.136 A 
ATOM      5  N   UNL     1      -2.322  -0.657   0.639  0.00  0.00    -0.160 NA
ATOM      6  C   UNL     1      -0.283  -2.845  -1.495  0.00  0.00    +0.108 C 
ATOM      7  C   UNL     1      -0.986  -3.974  -2.206  0.00  0.00    +0.099 C 
ATOM      8  C   UNL     1      -2.234  -4.373  -1.873  0.00  0.00    +0.200 C 
ATOM      9  O   UNL     1      -2.966  -3.808  -0.892  0.00  0.00    -0.423 OA
ENDROOT
BRANCH   1  13
ATOM     10  C   UNL     1      -7.074  -2.130   1.847  0.00  0.00    +0.000 A 
ATOM     11  C   UNL     1      -6.106  -1.520   2.623  0.00  0.00    +0.002 A 
ATOM     12  C   UNL     1      -4.818  -1.386   2.144  0.00  0.00    +0.028 A 
ATOM     13  C   UNL     1      -4.495  -1.866   0.882  0.00  0.00    +0.069 A 
ATOM     14  C   UNL     1      -5.470  -2.474   0.102  0.00  0.00    +0.028 A 
ATOM     15  C   UNL     1      -6.755  -2.610   0.589  0.00  0.00    +0.002 A 
ENDBRANCH   1  13
BRANCH   6  16
ATOM     16  C   UNL     1       0.812  -3.398  -0.619  0.00  0.00    +0.004 A 
ATOM     17  C   UNL     1       2.141  -3.137  -0.647  0.00  0.00    +0.013 A 
ATOM     18  C   UNL     1       2.968  -3.768   0.263  0.00  0.00    +0.023 A 
ATOM     19  C   UNL     1       2.424  -4.631   1.157  0.00  0.00    +0.055 A 
ATOM     20  S   UNL     1       0.692  -4.563   0.729  0.00  0.00    -0.085 S 
ATOM     21 BR   UNL     1       3.277  -5.638   2.511  0.00  0.00    -0.043 Br
ENDBRANCH   6  16
BRANCH   4  22
ATOM     22  C   UNL     1       0.002  -0.004   0.002  0.00  0.00    +0.155 A 
ATOM     23  C   UNL     1      -0.016   1.355   0.009  0.00  0.00    +0.051 A 
ATOM     24  C   UNL     1       1.328   1.780  -0.001  0.00  0.00    +0.042 A 
ATOM     25  C   UNL     1       2.092   0.670  -0.014  0.00  0.00    +0.196 A 
ATOM     26  O   UNL     1       1.288  -0.406  -0.012  0.00  0.00    -0.461 OA
ENDBRANCH   4  22
BRANCH   8  27
ATOM     27  N   UNL     1      -2.789  -5.414  -2.576  0.00  0.00    -0.328 N 
ATOM     28  H   UNL     1      -3.683  -5.722  -2.361  0.00  0.00    +0.145 HD
ATOM     29  H   UNL     1      -2.287  -5.840  -3.288  0.00  0.00    +0.145 HD
ENDBRANCH   8  27
BRANCH   7  30
ATOM     30  C   UNL     1      -0.307  -4.648  -3.271  0.00  0.00    +0.101 C 
ATOM     31  N   UNL     1       0.232  -5.183  -4.117  0.00  0.00    -0.191 NA
ENDBRANCH   7  30
TORSDOF 5
