REMARK  Name = ZINC39694858
REMARK  6 active torsions:
REMARK  status: ('A' for Active; 'I' for Inactive)
REMARK    1  A    between atoms: C_1  and  C_2
REMARK    2  A    between atoms: C_4  and  C_36
REMARK    3  A    between atoms: C_6  and  C_8
REMARK    4  A    between atoms: C_8  and  N_9
REMARK    5  A    between atoms: C_10  and  C_12
REMARK    6  A    between atoms: C_23  and  C_25
REMARK                            x       y       z     vdW  Elec       q    Type
REMARK                         _______ _______ _______ _____ _____    ______ ____
ROOT
ATOM      1  C   UNL     1       3.046  -4.073   4.433  0.00  0.00    +0.100 C 
ATOM      2  C   UNL     1       3.802  -5.010   3.466  0.00  0.00    +0.121 C 
ATOM      3  N   UNL     1       4.672  -5.830   4.342  0.00  0.00    -0.297 N 
ATOM      4  C   UNL     1       3.834  -6.114   5.532  0.00  0.00    +0.115 C 
ATOM      5  C   UNL     1       3.068  -4.801   5.788  0.00  0.00    -0.004 C 
ATOM      6  C   UNL     1       3.800  -3.958   6.829  0.00  0.00    -0.010 C 
ATOM      7  C   UNL     1       3.760  -4.678   8.180  0.00  0.00    -0.082 C 
ATOM      8  N   UNL     1       2.364  -4.887   8.583  0.00  0.00    +0.379 N 
ATOM      9  C   UNL     1       1.693  -5.774   7.625  0.00  0.00    -0.082 C 
ATOM     10  C   UNL     1       1.646  -5.102   6.250  0.00  0.00    -0.010 C 
ATOM     11  C   UNL     1       5.939  -6.227   4.110  0.00  0.00    +0.260 C 
ATOM     12  O   UNL     1       6.526  -5.835   3.124  0.00  0.00    -0.271 OA
ATOM     13  H   UNL     1       2.340  -5.306   9.501  0.00  0.00    -0.086 HD
ATOM     14  H   UNL     1       1.885  -3.999   8.609  0.00  0.00    -0.086 HD
ENDROOT
BRANCH  11  15
ATOM     15  C   UNL     1       6.626  -7.157   5.076  0.00  0.00    +0.296 C 
ATOM     16  C   UNL     1       5.956  -8.537   5.031  0.00  0.00    +0.283 C 
ATOM     17  O   UNL     1       6.641  -9.398   5.948  0.00  0.00    -0.484 OA
ATOM     18  C   UNL     1       8.001  -9.382   5.903  0.00  0.00    +0.162 A 
ATOM     19  C   UNL     1       8.714 -10.421   6.481  0.00  0.00    +0.049 A 
ATOM     20  C   UNL     1      10.095 -10.417   6.447  0.00  0.00    +0.004 A 
ATOM     21  C   UNL     1      10.771  -9.377   5.835  0.00  0.00    +0.004 A 
ATOM     22  C   UNL     1      10.066  -8.339   5.255  0.00  0.00    +0.049 A 
ATOM     23  C   UNL     1       8.680  -8.338   5.286  0.00  0.00    +0.163 A 
ATOM     24  O   UNL     1       8.000  -7.312   4.704  0.00  0.00    -0.473 OA
ENDBRANCH  11  15
BRANCH   1  26
ATOM     25  N   UNL     1       0.932  -2.789   4.368  0.00  0.00    -0.311 N 
ATOM     26  C   UNL     1       1.626  -3.873   3.968  0.00  0.00    +0.218 C 
ATOM     27  O   UNL     1       1.108  -4.689   3.235  0.00  0.00    -0.275 OA
ATOM     28  H   UNL     1       1.347  -2.137   4.954  0.00  0.00    +0.149 HD
BRANCH  25  29
ATOM     29  C   UNL     1      -0.448  -2.596   3.916  0.00  0.00    +0.139 C 
BRANCH  29  35
ATOM     30  C   UNL     1      -2.849  -0.187   7.587  0.00  0.00    +0.044 C 
ATOM     31  C   UNL     1      -2.143  -0.166   6.256  0.00  0.00    -0.050 A 
ATOM     32  C   UNL     1      -1.995   1.026   5.571  0.00  0.00    +0.006 A 
ATOM     33  C   UNL     1      -1.347   1.045   4.350  0.00  0.00    -0.050 A 
ATOM     34  C   UNL     1      -0.846  -0.127   3.814  0.00  0.00    +0.008 A 
ATOM     35  C   UNL     1      -0.993  -1.318   4.500  0.00  0.00    -0.030 A 
ATOM     36  C   UNL     1      -1.637  -1.337   5.723  0.00  0.00    +0.008 A 
ATOM     37  C   UNL     1      -1.186   2.344   3.602  0.00  0.00    +0.044 C 
ENDBRANCH  29  35
ENDBRANCH  25  29
ENDBRANCH   1  26
TORSDOF 4
