REMARK  Name = ZINC65535193
REMARK  7 active torsions:
REMARK  status: ('A' for Active; 'I' for Inactive)
REMARK    1  A    between atoms: C_1  and  C_2
REMARK    2  A    between atoms: C_8  and  C_12
REMARK    3  A    between atoms: C_12  and  C_13
REMARK    4  A    between atoms: C_13  and  N_14
REMARK    5  A    between atoms: N_14  and  C_15
REMARK    6  A    between atoms: C_16  and  C_18
REMARK    7  A    between atoms: C_28  and  C_30
REMARK                            x       y       z     vdW  Elec       q    Type
REMARK                         _______ _______ _______ _____ _____    ______ ____
ROOT
ATOM      1  N   UNL     1       2.688  -2.957   5.857  0.00  0.00    -0.299 N 
ATOM      2  C   UNL     1       2.842  -2.415   7.210  0.00  0.00    +0.132 C 
ATOM      3  C   UNL     1       3.657  -3.729   5.327  0.00  0.00    +0.261 C 
ATOM      4  O   UNL     1       3.575  -4.098   4.171  0.00  0.00    -0.269 OA
ENDROOT
BRANCH   3   5
ATOM      5  C   UNL     1       4.816  -4.128   6.148  0.00  0.00    +0.101 C 
ATOM      6  C   UNL     1       5.897  -4.793   5.692  0.00  0.00    +0.024 C 
ATOM      7  C   UNL     1       6.798  -4.946   6.886  0.00  0.00    +0.118 C 
ATOM      8  C   UNL     1       8.271  -4.651   6.638  0.00  0.00    +0.132 C 
ATOM      9  N   UNL     1       8.916  -4.628   7.968  0.00  0.00    -0.299 N 
ATOM     10  C   UNL     1       8.332  -3.833   9.055  0.00  0.00    +0.125 C 
ATOM     11  C   UNL     1       6.809  -4.065   9.120  0.00  0.00    +0.125 C 
ATOM     12  N   UNL     1       6.284  -3.877   7.785  0.00  0.00    -0.219 NA
ATOM     13  N   UNL     1       4.963  -3.863   7.529  0.00  0.00    -0.273 N 
ATOM     14  C   UNL     1      10.042  -5.338   8.183  0.00  0.00    +0.213 C 
ATOM     15  O   UNL     1      10.525  -5.995   7.285  0.00  0.00    -0.276 OA
ATOM     16  C   UNL     1      10.700  -5.315   9.538  0.00  0.00    +0.109 C 
ATOM     17  H   UNL     1       4.250  -3.704   8.168  0.00  0.00    +0.167 HD
ENDBRANCH   3   5
BRANCH   1  18
ATOM     18  C   UNL     1       1.482  -2.658   5.082  0.00  0.00    +0.111 C 
BRANCH  18  19
ATOM     19  C   UNL     1       1.702  -1.380   4.269  0.00  0.00    +0.065 C 
BRANCH  19  27
ATOM     20  C   UNL     1       0.911   2.019   0.155  0.00  0.00    +0.046 C 
ATOM     21  C   UNL     1       0.603   0.544   0.138  0.00  0.00    -0.025 A 
ATOM     22  C   UNL     1       0.407  -0.094  -1.034  0.00  0.00    +0.005 A 
ATOM     23  C   UNL     1       0.117  -1.468  -1.109  0.00  0.00    +0.002 A 
ATOM     24  C   UNL     1       0.011  -2.250  -0.016  0.00  0.00    +0.027 A 
ATOM     25  C   UNL     1       0.204  -1.662   1.317  0.00  0.00    +0.060 A 
ATOM     26  N   UNL     1       0.164  -2.161   2.519  0.00  0.00    -0.363 N 
ATOM     27  C   UNL     1       0.442  -1.068   3.459  0.00  0.00    +0.175 C 
ATOM     28  N   UNL     1       0.650   0.136   2.645  0.00  0.00    -0.363 N 
ATOM     29  C   UNL     1       0.518  -0.209   1.397  0.00  0.00    +0.063 A 
ATOM     30  H   UNL     1       0.853   1.025   2.976  0.00  0.00    +0.162 HD
ATOM     31  H   UNL     1      -0.017  -3.085   2.751  0.00  0.00    +0.162 HD
ENDBRANCH  19  27
ENDBRANCH  18  19
ENDBRANCH   1  18
TORSDOF 4
