REMARK  Name = ZINC35383167
REMARK  13 active torsions:
REMARK  status: ('A' for Active; 'I' for Inactive)
REMARK    1  A    between atoms: C_1  and  C_2
REMARK    2  A    between atoms: C_2  and  C_3
REMARK    3  A    between atoms: C_3  and  C_4
REMARK    4  A    between atoms: C_4  and  O_5
REMARK    5  A    between atoms: O_5  and  C_6
REMARK    6  A    between atoms: C_9  and  C_12
REMARK    7  A    between atoms: N_14  and  C_15
REMARK    8  A    between atoms: N_14  and  C_33
REMARK    9  A    between atoms: C_15  and  C_16
REMARK   10  A    between atoms: N_18  and  C_19
REMARK   11  A    between atoms: N_18  and  C_27
REMARK   12  A    between atoms: C_19  and  C_20
REMARK   13  A    between atoms: C_27  and  C_28
REMARK                            x       y       z     vdW  Elec       q    Type
REMARK                         _______ _______ _______ _____ _____    ______ ____
ROOT
ATOM      1  C   UNL     1      -4.851 -10.479   0.654  0.00  0.00    +0.204 C 
ENDROOT
BRANCH   1   4
ATOM      2  C   UNL     1      -4.135  -8.934   2.398  0.00  0.00    +0.247 C 
ATOM      3  O   UNL     1      -4.376  -8.065   3.213  0.00  0.00    -0.270 OA
ATOM      4  N   UNL     1      -5.092  -9.335   1.538  0.00  0.00    -0.286 N 
BRANCH   2   8
ATOM      5  C   UNL     1      -0.279 -10.709   2.262  0.00  0.00    +0.121 A 
ATOM      6  C   UNL     1      -0.418  -9.379   2.643  0.00  0.00    +0.046 A 
ATOM      7  C   UNL     1      -1.666  -8.800   2.689  0.00  0.00    +0.016 A 
ATOM      8  C   UNL     1      -2.795  -9.551   2.350  0.00  0.00    +0.037 A 
ATOM      9  C   UNL     1      -2.652 -10.887   1.967  0.00  0.00    +0.016 A 
ATOM     10  C   UNL     1      -1.399 -11.457   1.920  0.00  0.00    +0.046 A 
BRANCH   5  11
ATOM     11  O   UNL     1       0.953 -11.275   2.219  0.00  0.00    -0.492 OA
BRANCH  11  12
ATOM     12  C   UNL     1       2.060 -10.449   2.584  0.00  0.00    +0.229 C 
BRANCH  12  13
ATOM     13  C   UNL     1       3.356 -11.255   2.474  0.00  0.00    +0.041 C 
BRANCH  13  15
ATOM     14  C   UNL     1       5.837 -11.177   2.756  0.00  0.00    +0.004 C 
ATOM     15  C   UNL     1       4.542 -10.371   2.865  0.00  0.00    -0.000 C 
ENDBRANCH  13  15
ENDBRANCH  12  13
ENDBRANCH  11  12
ENDBRANCH   5  11
ENDBRANCH   2   8
BRANCH   4  16
ATOM     16  C   UNL     1      -6.374  -8.627   1.486  0.00  0.00    +0.077 C 
ATOM     17  C   UNL     1      -6.429  -7.221   2.085  0.00  0.00    +0.024 C 
ATOM     18  C   UNL     1      -7.102  -8.387   2.810  0.00  0.00    +0.024 C 
ENDBRANCH   4  16
ENDBRANCH   1   4
BRANCH   1  19
ATOM     19  C   UNL     1      -5.496 -11.709   1.238  0.00  0.00    +0.234 C 
ATOM     20  O   UNL     1      -6.118 -11.633   2.276  0.00  0.00    -0.274 OA
ATOM     21  N   UNL     1      -5.382 -12.894   0.606  0.00  0.00    -0.291 N 
BRANCH  21  22
ATOM     22  C   UNL     1      -6.018 -14.088   1.167  0.00  0.00    +0.143 C 
BRANCH  22  23
ATOM     23  C   UNL     1      -7.416 -14.217   0.620  0.00  0.00    -0.030 A 
ATOM     24  C   UNL     1      -8.474 -13.619   1.279  0.00  0.00    +0.008 A 
ATOM     25  C   UNL     1      -9.756 -13.736   0.778  0.00  0.00    +0.038 A 
ATOM     26  C   UNL     1      -9.982 -14.452  -0.386  0.00  0.00    +0.123 A 
ATOM     27  C   UNL     1      -8.921 -15.051  -1.045  0.00  0.00    +0.038 A 
ATOM     28  C   UNL     1      -7.639 -14.928  -0.545  0.00  0.00    +0.008 A 
ATOM     29  F   UNL     1     -11.235 -14.568  -0.876  0.00  0.00    -0.205 F 
ENDBRANCH  22  23
ENDBRANCH  21  22
BRANCH  21  30
ATOM     30  C   UNL     1      -4.621 -12.988  -0.643  0.00  0.00    +0.150 C 
BRANCH  30  31
ATOM     31  C   UNL     1      -3.205 -13.406  -0.339  0.00  0.00    +0.007 A 
ATOM     32  C   UNL     1      -2.751 -14.584   0.157  0.00  0.00    +0.013 A 
ATOM     33  C   UNL     1      -1.393 -14.747   0.357  0.00  0.00    +0.008 A 
ATOM     34  C   UNL     1      -0.556 -13.726   0.052  0.00  0.00    +0.045 A 
ATOM     35  S   UNL     1      -1.691 -12.484  -0.544  0.00  0.00    -0.100 S 
ENDBRANCH  30  31
ENDBRANCH  21  30
ENDBRANCH   1  19
TORSDOF 12
