REMARK  Name = ZINC12442524
REMARK  11 active torsions:
REMARK  status: ('A' for Active; 'I' for Inactive)
REMARK    1  A    between atoms: C_1  and  C_2
REMARK    2  A    between atoms: C_2  and  C_3
REMARK    3  A    between atoms: C_2  and  C_4
REMARK    4  A    between atoms: C_2  and  C_5
REMARK    5  A    between atoms: C_7  and  C_11
REMARK    6  A    between atoms: C_11  and  N_12
REMARK    7  A    between atoms: C_13  and  C_15
REMARK    8  A    between atoms: C_15  and  C_16
REMARK    9  A    between atoms: C_23  and  C_24
REMARK   10  A    between atoms: C_23  and  N_60
REMARK   11  A    between atoms: C_24  and  C_25
REMARK                            x       y       z     vdW  Elec       q    Type
REMARK                         _______ _______ _______ _____ _____    ______ ____
ROOT
ATOM      1  C   UNL     1      -0.687   1.468  -1.265  0.00  0.00    +0.028 C 
ATOM      2  C   UNL     1       0.185   1.113  -2.436  0.00  0.00    +0.200 C 
ATOM      3  O   UNL     1       1.375   1.336  -2.363  0.00  0.00    -0.278 OA
ATOM      4  N   UNL     1      -0.294   0.566  -3.556  0.00  0.00    -0.318 N 
ATOM      5  C   UNL     1      -1.703   0.224  -3.732  0.00  0.00    +0.085 C 
ATOM      6  C   UNL     1      -2.556   0.971  -2.706  0.00  0.00    -0.059 C 
ATOM      7  H   UNL     1       0.321   0.386  -4.285  0.00  0.00    +0.149 HD
ATOM      8  N   UNL     1      -1.968   0.745  -1.370  0.00  0.00    +0.389 N 
ATOM      9  H   UNL     1      -1.797  -0.260  -1.245  0.00  0.00    -0.081 HD
ENDROOT
BRANCH   1  10
ATOM     10  C   UNL     1       0.012   1.056   0.032  0.00  0.00    +0.089 C 
BRANCH  10  12
ATOM     11  N   UNL     1       0.689  -1.044   1.152  0.00  0.00    -0.310 N 
ATOM     12  C   UNL     1       0.173  -0.442   0.061  0.00  0.00    +0.212 C 
ATOM     13  O   UNL     1      -0.160  -1.107  -0.897  0.00  0.00    -0.276 OA
ATOM     14  H   UNL     1       0.956  -0.512   1.918  0.00  0.00    +0.149 HD
BRANCH  11  15
ATOM     15  C   UNL     1       0.845  -2.500   1.180  0.00  0.00    +0.161 C 
BRANCH  15  18
ATOM     16  C   UNL     1       1.611  -3.622   4.605  0.00  0.00    +0.042 A 
ATOM     17  C   UNL     1       0.721  -3.334   3.627  0.00  0.00    +0.049 A 
ATOM     18  C   UNL     1       1.438  -2.916   2.501  0.00  0.00    +0.080 A 
ATOM     19  N   UNL     1       2.713  -2.942   2.796  0.00  0.00    -0.177 NA
ATOM     20  N   UNL     1       2.848  -3.384   4.118  0.00  0.00    -0.281 N 
ATOM     21  H   UNL     1       3.708  -3.503   4.614  0.00  0.00    +0.189 HD
BRANCH  16  23
ATOM     22  C   UNL     1       2.562  -4.189   6.824  0.00  0.00    +0.017 C 
ATOM     23  C   UNL     1       1.281  -4.112   5.991  0.00  0.00    +0.004 C 
ATOM     24  C   UNL     1       0.299  -3.144   6.654  0.00  0.00    +0.017 C 
ATOM     25  C   UNL     1       0.646  -5.502   5.902  0.00  0.00    +0.017 C 
ENDBRANCH  16  23
ENDBRANCH  15  18
ENDBRANCH  11  15
ENDBRANCH  10  12
ENDBRANCH   1  10
BRANCH   8  26
ATOM     26  C   UNL     1      -2.901   1.210  -0.319  0.00  0.00    -0.073 C 
BRANCH  26  27
ATOM     27  C   UNL     1      -4.054   0.212  -0.203  0.00  0.00    +0.016 C 
BRANCH  27  28
ATOM     28  C   UNL     1      -5.005   0.665   0.875  0.00  0.00    -0.049 A 
ATOM     29  C   UNL     1      -4.823   0.244   2.179  0.00  0.00    +0.003 A 
ATOM     30  C   UNL     1      -5.692   0.665   3.168  0.00  0.00    +0.000 A 
ATOM     31  C   UNL     1      -6.750   1.497   2.852  0.00  0.00    +0.000 A 
ATOM     32  C   UNL     1      -6.935   1.914   1.547  0.00  0.00    +0.000 A 
ATOM     33  C   UNL     1      -6.062   1.498   0.558  0.00  0.00    +0.003 A 
ENDBRANCH  27  28
ENDBRANCH  26  27
ENDBRANCH   8  26
TORSDOF 8
