REMARK  Name = ZINC40675493
REMARK  5 active torsions:
REMARK  status: ('A' for Active; 'I' for Inactive)
REMARK    1  A    between atoms: C_1  and  C_2
REMARK    2  A    between atoms: C_2  and  C_3
REMARK    3  A    between atoms: C_2  and  C_4
REMARK    4  A    between atoms: C_2  and  N_7
REMARK    5  A    between atoms: C_8  and  C_10
REMARK                            x       y       z     vdW  Elec       q    Type
REMARK                         _______ _______ _______ _____ _____    ______ ____
ROOT
ATOM      1  N   UNL     1       0.688  -0.476  -1.203  0.00  0.00    -0.298 N 
ATOM      2  C   UNL     1       1.972  -0.132  -1.427  0.00  0.00    +0.245 C 
ATOM      3  O   UNL     1       2.561   0.571  -0.628  0.00  0.00    -0.270 OA
ATOM      4  H   UNL     1       0.218  -1.037  -1.840  0.00  0.00    +0.150 HD
ENDROOT
BRANCH   2   5
ATOM      5  C   UNL     1       2.662  -0.608  -2.641  0.00  0.00    +0.037 A 
ATOM      6  C   UNL     1       1.984  -1.411  -3.563  0.00  0.00    +0.015 A 
ATOM      7  C   UNL     1       2.635  -1.852  -4.691  0.00  0.00    +0.024 A 
ATOM      8  C   UNL     1       3.965  -1.500  -4.918  0.00  0.00    +0.030 A 
ATOM      9  C   UNL     1       4.642  -0.699  -4.007  0.00  0.00    -0.026 A 
ATOM     10  C   UNL     1       3.992  -0.252  -2.874  0.00  0.00    +0.018 A 
ATOM     11  C   UNL     1       6.075  -0.293  -4.229  0.00  0.00    +0.038 C 
ATOM     12  C   UNL     1       6.753  -1.245  -5.215  0.00  0.00    +0.023 C 
ATOM     13  C   UNL     1       5.878  -1.365  -6.469  0.00  0.00    +0.102 C 
ATOM     14  N   UNL     1       4.599  -1.966  -6.068  0.00  0.00    -0.344 N 
ATOM     15  H   UNL     1       4.202  -2.676  -6.596  0.00  0.00    +0.146 HD
ENDBRANCH   2   5
BRANCH   1  17
ATOM     16  C   UNL     1      -0.019   1.526   0.010  0.00  0.00    +0.041 C 
ATOM     17  C   UNL     1       0.002  -0.004   0.002  0.00  0.00    +0.105 C 
ATOM     18  C   UNL     1       0.742  -0.511   1.242  0.00  0.00    +0.041 C 
BRANCH  17  19
ATOM     19  C   UNL     1      -1.412  -0.526   0.013  0.00  0.00    +0.233 C 
ATOM     20  O   UNL     1      -1.939  -0.827   1.062  0.00  0.00    -0.274 OA
ATOM     21  N   UNL     1      -2.090  -0.657  -1.144  0.00  0.00    -0.328 N 
ATOM     22  H   UNL     1      -1.669  -0.416  -1.984  0.00  0.00    +0.145 HD
ATOM     23  H   UNL     1      -3.000  -0.993  -1.137  0.00  0.00    +0.145 HD
ENDBRANCH  17  19
ENDBRANCH   1  17
TORSDOF 3
