REMARK  Name = ZINC06751375
REMARK  4 active torsions:
REMARK  status: ('A' for Active; 'I' for Inactive)
REMARK    1  A    between atoms: C_1  and  C_2
REMARK    2  A    between atoms: C_9  and  O_19
REMARK    3  A    between atoms: C_21  and  C_22
REMARK    4  A    between atoms: N_24  and  C_25
REMARK                            x       y       z     vdW  Elec       q    Type
REMARK                         _______ _______ _______ _____ _____    ______ ____
ROOT
ATOM      1  C   UNL     1      -4.575   7.490   2.215  0.00  0.00    +0.048 C 
ATOM      2  C   UNL     1      -3.407   7.971   1.393  0.00  0.00    +0.008 A 
ATOM      3  C   UNL     1      -3.237   9.296   0.797  0.00  0.00    +0.033 A 
ATOM      4  C   UNL     1      -2.001   9.258   0.128  0.00  0.00    +0.137 A 
ATOM      5  C   UNL     1      -1.561  10.389  -0.548  0.00  0.00    +0.050 A 
ATOM      6  C   UNL     1      -2.336  11.526  -0.562  0.00  0.00    +0.049 A 
ATOM      7  C   UNL     1      -3.566  11.567   0.098  0.00  0.00    +0.128 A 
ATOM      8  C   UNL     1      -4.017  10.459   0.780  0.00  0.00    +0.034 A 
ATOM      9  C   UNL     1      -5.333  10.467   1.514  0.00  0.00    +0.152 C 
ATOM     10  C   UNL     1      -6.202  11.620   1.004  0.00  0.00    +0.084 C 
ATOM     11  C   UNL     1      -5.348  12.893   0.981  0.00  0.00    +0.113 C 
ATOM     12  O   UNL     1      -4.291  12.716   0.040  0.00  0.00    -0.485 OA
ATOM     13  C   UNL     1      -6.217  14.081   0.566  0.00  0.00    +0.048 C 
ATOM     14  C   UNL     1      -5.366  15.352   0.544  0.00  0.00    +0.004 C 
ATOM     15  C   UNL     1      -4.789  15.603   1.938  0.00  0.00    +0.000 C 
ATOM     16  C   UNL     1      -3.917  14.415   2.351  0.00  0.00    +0.004 C 
ATOM     17  C   UNL     1      -4.767  13.143   2.373  0.00  0.00    +0.048 C 
ATOM     18  O   UNL     1      -1.476   8.029   0.310  0.00  0.00    -0.450 OA
ATOM     19  C   UNL     1      -2.297   7.263   1.058  0.00  0.00    +0.193 A 
ENDROOT
BRANCH  19  20
ATOM     20  C   UNL     1      -2.034   5.870   1.446  0.00  0.00    +0.280 C 
ATOM     21  O   UNL     1      -2.841   5.265   2.125  0.00  0.00    -0.267 OA
ATOM     22  N   UNL     1      -0.897   5.264   1.051  0.00  0.00    -0.306 N 
ATOM     23  H   UNL     1      -0.253   5.747   0.509  0.00  0.00    +0.149 HD
BRANCH  22  24
ATOM     24  C   UNL     1      -0.634   3.876   1.438  0.00  0.00    +0.073 C 
ATOM     25  C   UNL     1       0.316   3.235   0.424  0.00  0.00    +0.022 C 
ATOM     26  C   UNL     1       0.591   1.785   0.828  0.00  0.00    +0.002 C 
ATOM     27  C   UNL     1       1.232   1.756   2.217  0.00  0.00    +0.000 C 
ATOM     28  C   UNL     1       0.282   2.397   3.231  0.00  0.00    +0.002 C 
ATOM     29  C   UNL     1       0.007   3.846   2.827  0.00  0.00    +0.022 C 
ENDBRANCH  22  24
ENDBRANCH  19  20
BRANCH   9  30
ATOM     30  O   UNL     1      -6.010   9.228   1.292  0.00  0.00    -0.387 OA
ATOM     31  H   UNL     1      -6.277   9.085   0.374  0.00  0.00    +0.210 HD
ENDBRANCH   9  30
TORSDOF 3
