REMARK  Name = ZINC12684504
REMARK  8 active torsions:
REMARK  status: ('A' for Active; 'I' for Inactive)
REMARK    1  A    between atoms: C_3  and  C_6
REMARK    2  A    between atoms: C_6  and  N_7
REMARK    3  A    between atoms: C_8  and  S_12
REMARK    4  A    between atoms: S_12  and  C_13
REMARK    5  A    between atoms: C_13  and  C_14
REMARK    6  A    between atoms: C_14  and  C_16
REMARK    7  A    between atoms: C_19  and  S_22
REMARK    8  A    between atoms: S_22  and  N_25
REMARK                            x       y       z     vdW  Elec       q    Type
REMARK                         _______ _______ _______ _____ _____    ______ ____
ROOT
ATOM      1  C   UNL     1       1.176   3.558   0.009  0.00  0.00    +0.173 C 
ATOM      2  O   UNL     1       0.121   4.157   0.022  0.00  0.00    -0.291 OA
ENDROOT
BRANCH   1   3
ATOM      3  C   UNL     1       1.187   2.087   0.002  0.00  0.00    +0.018 A 
ATOM      4  C   UNL     1      -0.017   1.375   0.010  0.00  0.00    +0.013 A 
ATOM      5  C   UNL     1       0.002  -0.004   0.002  0.00  0.00    +0.029 A 
ATOM      6  C   UNL     1       1.208  -0.683  -0.013  0.00  0.00    +0.106 A 
ATOM      7  C   UNL     1       2.403   0.014  -0.020  0.00  0.00    +0.029 A 
ATOM      8  C   UNL     1       2.401   1.393  -0.013  0.00  0.00    +0.013 A 
BRANCH   6   9
ATOM      9  S   UNL     1       1.221  -2.445  -0.023  0.00  0.00    +0.061 S 
ATOM     10  O   UNL     1       2.475  -2.845   0.514  0.00  0.00    -0.153 OA
ATOM     11  O   UNL     1      -0.016  -2.864   0.538  0.00  0.00    -0.153 OA
BRANCH   9  12
ATOM     12  N   UNL     1       1.210  -2.926  -1.607  0.00  0.00    -0.172 NA
ATOM     13  C   UNL     1      -0.057  -3.162  -2.318  0.00  0.00    +0.137 C 
ATOM     14  C   UNL     1      -0.014  -2.385  -3.644  0.00  0.00    +0.177 C 
ATOM     15  O   UNL     1       1.182  -2.725  -4.349  0.00  0.00    -0.377 OA
ATOM     16  C   UNL     1       2.386  -2.366  -3.667  0.00  0.00    +0.177 C 
ATOM     17  C   UNL     1       2.466  -3.137  -2.344  0.00  0.00    +0.137 C 
ENDBRANCH   9  12
ENDBRANCH   6   9
ENDBRANCH   1   3
BRANCH   1  18
ATOM     18  C   UNL     1       2.475   4.322   0.001  0.00  0.00    +0.157 C 
BRANCH  18  19
ATOM     19  S   UNL     1       2.131   6.098   0.013  0.00  0.00    -0.077 S 
BRANCH  19  21
ATOM     20  N   UNL     1       4.138   8.034  -0.001  0.00  0.00    -0.215 N 
ATOM     21  C   UNL     1       3.777   6.729   0.001  0.00  0.00    +0.210 A 
ATOM     22  N   UNL     1       4.885   6.020  -0.013  0.00  0.00    -0.101 NA
ATOM     23  N   UNL     1       5.912   6.792  -0.019  0.00  0.00    -0.022 NA
ATOM     24  N   UNL     1       5.544   8.027  -0.009  0.00  0.00    -0.043 NA
BRANCH  20  25
ATOM     25  C   UNL     1       3.254   9.202   0.006  0.00  0.00    +0.190 C 
BRANCH  25  28
ATOM     26  C   UNL     1       3.178  10.681   3.515  0.00  0.00    +0.008 A 
ATOM     27  C   UNL     1       3.635  10.464   2.229  0.00  0.00    +0.013 A 
ATOM     28  C   UNL     1       2.961   9.602   1.429  0.00  0.00    +0.011 A 
ATOM     29  S   UNL     1       1.632   9.069   2.495  0.00  0.00    -0.100 S 
ATOM     30  C   UNL     1       2.070  10.025   3.939  0.00  0.00    +0.045 A 
ENDBRANCH  25  28
ENDBRANCH  20  25
ENDBRANCH  19  21
ENDBRANCH  18  19
ENDBRANCH   1  18
TORSDOF 8
