REMARK  Name = ZINC19321251
REMARK  5 active torsions:
REMARK  status: ('A' for Active; 'I' for Inactive)
REMARK    1  A    between atoms: C_1  and  C_2
REMARK    2  A    between atoms: C_2  and  C_3
REMARK    3  A    between atoms: C_3  and  C_4
REMARK    4  A    between atoms: C_4  and  C_5
REMARK    5  A    between atoms: C_9  and  C_26
REMARK                            x       y       z     vdW  Elec       q    Type
REMARK                         _______ _______ _______ _____ _____    ______ ____
ROOT
ATOM      1  C   UNL     1       3.456  -3.405  -0.049  0.00  0.00    +0.028 C 
ATOM      2  C   UNL     1       2.875  -2.734   1.207  0.00  0.00    -0.059 C 
ATOM      3  N   UNL     1       1.408  -2.825   1.172  0.00  0.00    +0.402 N 
ATOM      4  C   UNL     1       0.941  -4.218   1.221  0.00  0.00    -0.059 C 
ATOM      5  C   UNL     1       1.428  -4.960  -0.035  0.00  0.00    +0.025 C 
ATOM      6  C   UNL     1       2.948  -4.842  -0.044  0.00  0.00    +0.144 C 
ATOM      7  O   UNL     1       3.683  -5.800  -0.047  0.00  0.00    -0.296 OA
ATOM      8  C   UNL     1       0.918  -4.207  -1.273  0.00  0.00    +0.096 C 
ATOM      9  N   UNL     1       1.383  -2.814  -1.222  0.00  0.00    -0.299 NA
ATOM     10  C   UNL     1       2.849  -2.724  -1.286  0.00  0.00    +0.096 C 
ATOM     11  C   UNL     1       0.878  -2.148  -0.017  0.00  0.00    +0.095 C 
ATOM     12  C   UNL     1       1.221  -0.694  -0.013  0.00  0.00    -0.013 A 
ATOM     13  C   UNL     1       2.434  -0.039  -0.022  0.00  0.00    +0.021 A 
ATOM     14  C   UNL     1       2.402   1.352  -0.015  0.00  0.00    +0.018 A 
ATOM     15  C   UNL     1       1.206   2.043   0.002  0.00  0.00    +0.017 A 
ATOM     16  C   UNL     1      -0.017   1.391   0.010  0.00  0.00    +0.024 A 
ATOM     17  C   UNL     1       0.002  -0.004   0.002  0.00  0.00    +0.037 A 
ATOM     18  N   UNL     1      -1.056  -0.897   0.008  0.00  0.00    -0.285 N 
ATOM     19  C   UNL     1      -0.635  -2.179  -0.002  0.00  0.00    +0.225 C 
ATOM     20  O   UNL     1      -1.337  -3.168   0.001  0.00  0.00    -0.275 OA
ATOM     21 BR   UNL     1       4.029   2.316  -0.026  0.00  0.00    -0.050 Br
ATOM     22  C   UNL     1       0.961  -6.417  -0.037  0.00  0.00    +0.018 C 
ATOM     23  H   UNL     1      -2.090  -0.523   0.020  0.00  0.00    +0.155 HD
ATOM     24  H   UNL     1       1.026  -2.316   2.069  0.00  0.00    -0.078 HD
ENDROOT
BRANCH   1  25
ATOM     25  C   UNL     1       4.984  -3.330  -0.065  0.00  0.00    +0.014 C 
BRANCH  25  26
ATOM     26  C   UNL     1       5.515  -4.009  -1.329  0.00  0.00    +0.001 C 
BRANCH  26  28
ATOM     27  C   UNL     1       7.574  -4.613  -2.609  0.00  0.00    +0.004 C 
ATOM     28  C   UNL     1       7.043  -3.934  -1.345  0.00  0.00    -0.003 C 
ENDBRANCH  26  28
ENDBRANCH  25  26
ENDBRANCH   1  25
TORSDOF 3
