REMARK  Name = ZINC04571607
REMARK  6 active torsions:
REMARK  status: ('A' for Active; 'I' for Inactive)
REMARK    1  A    between atoms: C_4  and  N_7
REMARK    2  A    between atoms: C_8  and  C_10
REMARK    3  A    between atoms: C_10  and  N_16
REMARK    4  A    between atoms: N_16  and  C_17
REMARK    5  A    between atoms: C_17  and  C_18
REMARK    6  A    between atoms: C_24  and  C_26
REMARK                            x       y       z     vdW  Elec       q    Type
REMARK                         _______ _______ _______ _____ _____    ______ ____
ROOT
ATOM      1  C   UNL     1       2.426  -0.250   0.902  0.00  0.00    +0.113 C 
ATOM      2  C   UNL     1       0.943  -0.582   0.732  0.00  0.00    +0.035 C 
ATOM      3  C   UNL     1       0.305   0.418  -0.235  0.00  0.00    +0.003 C 
ATOM      4  C   UNL     1       0.450   1.834   0.326  0.00  0.00    +0.000 C 
ATOM      5  C   UNL     1       1.934   2.165   0.497  0.00  0.00    +0.003 C 
ATOM      6  C   UNL     1       2.572   1.166   1.464  0.00  0.00    +0.035 C 
ENDROOT
BRANCH   1   8
ATOM      7  N   UNL     1       3.537  -2.405   1.392  0.00  0.00    -0.311 N 
ATOM      8  C   UNL     1       3.055  -1.235   1.854  0.00  0.00    +0.237 C 
ATOM      9  O   UNL     1       3.126  -0.974   3.037  0.00  0.00    -0.273 OA
ATOM     10  H   UNL     1       3.480  -2.614   0.447  0.00  0.00    +0.149 HD
BRANCH   7  14
ATOM     11  C   UNL     1       6.153  -5.416   2.907  0.00  0.00    +0.000 C 
ATOM     12  C   UNL     1       4.680  -5.774   2.702  0.00  0.00    +0.002 C 
ATOM     13  C   UNL     1       4.042  -4.774   1.736  0.00  0.00    +0.022 C 
ATOM     14  C   UNL     1       4.148  -3.363   2.318  0.00  0.00    +0.073 C 
ATOM     15  C   UNL     1       5.621  -3.005   2.523  0.00  0.00    +0.022 C 
ATOM     16  C   UNL     1       6.259  -4.005   3.490  0.00  0.00    +0.002 C 
ENDBRANCH   7  14
ENDBRANCH   1   8
BRANCH   1  17
ATOM     17  N   UNL     1       3.098  -0.331  -0.398  0.00  0.00    -0.283 N 
ATOM     18  C   UNL     1       2.539  -1.037  -1.401  0.00  0.00    +0.237 C 
ATOM     19  O   UNL     1       1.445  -1.539  -1.254  0.00  0.00    -0.274 OA
BRANCH  18  20
ATOM     20  C   UNL     1       3.275  -1.202  -2.706  0.00  0.00    +0.159 C 
ATOM     21  C   UNL     1       3.114   0.066  -3.574  0.00  0.00    +0.041 C 
ATOM     22  C   UNL     1       3.044  -0.533  -4.998  0.00  0.00    +0.098 C 
ATOM     23  C   UNL     1       2.545  -1.944  -4.782  0.00  0.00    +0.214 C 
ATOM     24  O   UNL     1       2.088  -2.660  -5.648  0.00  0.00    -0.276 OA
ATOM     25  N   UNL     1       2.681  -2.291  -3.490  0.00  0.00    -0.304 N 
ATOM     26  H   UNL     1       2.419  -3.150  -3.123  0.00  0.00    +0.149 HD
ENDBRANCH  18  20
BRANCH  17  27
ATOM     27  C   UNL     1       4.375   0.354  -0.606  0.00  0.00    +0.140 C 
BRANCH  27  28
ATOM     28  C   UNL     1       5.516  -0.524  -0.087  0.00  0.00    +0.136 C 
ATOM     29  C   UNL     1       6.858   0.228  -0.221  0.00  0.00    +0.035 C 
ATOM     30  C   UNL     1       7.825  -0.904  -0.667  0.00  0.00    +0.031 C 
ATOM     31  C   UNL     1       6.881  -1.775  -1.533  0.00  0.00    +0.160 C 
ATOM     32  O   UNL     1       5.606  -1.718  -0.873  0.00  0.00    -0.375 OA
ENDBRANCH  27  28
ENDBRANCH  17  27
ENDBRANCH   1  17
TORSDOF 6
