REMARK  Name = ZINC22337765
REMARK  10 active torsions:
REMARK  status: ('A' for Active; 'I' for Inactive)
REMARK    1  A    between atoms: C_1  and  C_2
REMARK    2  A    between atoms: C_8  and  N_15
REMARK    3  A    between atoms: C_11  and  C_13
REMARK    4  A    between atoms: C_11  and  C_14
REMARK    5  A    between atoms: C_16  and  C_18
REMARK    6  A    between atoms: C_18  and  N_19
REMARK    7  A    between atoms: N_19  and  C_20
REMARK    8  A    between atoms: N_19  and  S_28
REMARK    9  A    between atoms: C_23  and  C_27
REMARK   10  A    between atoms: S_28  and  C_31
REMARK                            x       y       z     vdW  Elec       q    Type
REMARK                         _______ _______ _______ _____ _____    ______ ____
ROOT
ATOM      1  N   UNL     1      -1.577  -1.782  -2.820  0.00  0.00    -0.307 N 
ATOM      2  C   UNL     1      -0.717  -1.094  -2.044  0.00  0.00    +0.233 C 
ATOM      3  O   UNL     1       0.360  -0.752  -2.486  0.00  0.00    -0.274 OA
ATOM      4  H   UNL     1      -2.553  -2.092  -2.419  0.00  0.00    +0.149 HD
ENDROOT
BRANCH   1  12
ATOM      5  C   UNL     1      -1.215   2.806  -5.002  0.00  0.00    +0.044 C 
ATOM      6  C   UNL     1      -1.536   1.412  -5.476  0.00  0.00    -0.050 A 
ATOM      7  C   UNL     1      -2.118   1.221  -6.716  0.00  0.00    +0.007 A 
ATOM      8  C   UNL     1      -2.413  -0.056  -7.149  0.00  0.00    +0.046 A 
ATOM      9  C   UNL     1      -2.127  -1.153  -6.341  0.00  0.00    +0.126 A 
ATOM     10  C   UNL     1      -1.542  -0.958  -5.102  0.00  0.00    +0.015 A 
ATOM     11  C   UNL     1      -1.250   0.326  -4.673  0.00  0.00    +0.012 A 
ATOM     12  C   UNL     1      -1.211  -2.118  -4.199  0.00  0.00    +0.111 C 
ATOM     13  C   UNL     1      -1.991  -3.358  -4.645  0.00  0.00    +0.074 C 
ATOM     14  C   UNL     1      -1.821  -3.513  -6.161  0.00  0.00    +0.107 C 
ATOM     15  O   UNL     1      -2.436  -2.393  -6.800  0.00  0.00    -0.486 OA
ATOM     16  C   UNL     1      -0.332  -3.554  -6.512  0.00  0.00    +0.055 C 
ATOM     17  C   UNL     1      -2.496  -4.806  -6.625  0.00  0.00    +0.055 C 
ENDBRANCH   1  12
BRANCH   2  18
ATOM     18  C   UNL     1      -1.093  -0.748  -0.626  0.00  0.00    +0.226 C 
BRANCH  18  19
ATOM     19  N   UNL     1       0.002  -0.004   0.002  0.00  0.00    -0.199 N 
BRANCH  19  20
ATOM     20  C   UNL     1       1.065  -0.691   0.593  0.00  0.00    +0.053 A 
ATOM     21  C   UNL     1       1.806  -0.091   1.603  0.00  0.00    +0.025 A 
ATOM     22  C   UNL     1       2.856  -0.773   2.186  0.00  0.00    +0.006 A 
ATOM     23  C   UNL     1       3.170  -2.053   1.766  0.00  0.00    -0.032 A 
ATOM     24  C   UNL     1       2.434  -2.654   0.760  0.00  0.00    +0.046 A 
ATOM     25  C   UNL     1       1.379  -1.978   0.176  0.00  0.00    +0.045 A 
ATOM     26 CL   UNL     1       2.831  -4.261   0.237  0.00  0.00    -0.083 Cl
ATOM     27  C   UNL     1       4.316  -2.794   2.405  0.00  0.00    +0.045 C 
ENDBRANCH  19  20
BRANCH  19  28
ATOM     28  S   UNL     1      -0.020   1.652   0.011  0.00  0.00    +0.043 S 
ATOM     29  O   UNL     1       1.349   2.033   0.000  0.00  0.00    -0.155 OA
ATOM     30  O   UNL     1      -0.880   2.009  -1.062  0.00  0.00    -0.155 OA
ATOM     31  C   UNL     1      -0.781   2.099   1.596  0.00  0.00    +0.218 C 
ENDBRANCH  19  28
ENDBRANCH  18  19
ENDBRANCH   2  18
TORSDOF 5
