REMARK  Name = ZINC02062244
REMARK  6 active torsions:
REMARK  status: ('A' for Active; 'I' for Inactive)
REMARK    1  A    between atoms: C_1  and  C_2
REMARK    2  A    between atoms: C_2  and  C_3
REMARK    3  A    between atoms: C_2  and  C_4
REMARK    4  A    between atoms: C_2  and  C_5
REMARK    5  A    between atoms: C_17  and  C_20
REMARK    6  A    between atoms: C_25  and  O_26
REMARK                            x       y       z     vdW  Elec       q    Type
REMARK                         _______ _______ _______ _____ _____    ______ ____
ROOT
ATOM      1  C   UNL     1       5.258   0.732  -0.771  0.00  0.00    -0.000 C 
ATOM      2  C   UNL     1       4.383  -0.228   0.039  0.00  0.00    +0.009 C 
ATOM      3  C   UNL     1       2.909  -0.000  -0.302  0.00  0.00    +0.037 C 
ATOM      4  C   UNL     1       2.590   1.481  -0.139  0.00  0.00    -0.023 A 
ATOM      5  C   UNL     1       3.577   2.404  -0.116  0.00  0.00    -0.004 A 
ATOM      6  S   UNL     1       2.747   3.957   0.097  0.00  0.00    -0.078 S 
ATOM      7  C   UNL     1       1.132   3.392   0.155  0.00  0.00    +0.080 A 
ATOM      8  C   UNL     1       1.239   2.001   0.001  0.00  0.00    +0.068 A 
ATOM      9  C   UNL     1      -0.014   1.213   0.009  0.00  0.00    +0.248 C 
ATOM     10  O   UNL     1       0.002  -0.004   0.002  0.00  0.00    -0.270 OA
ATOM     11  N   UNL     1      -1.176   1.900   0.018  0.00  0.00    -0.289 N 
ATOM     12  C   UNL     1      -1.263   3.339  -0.200  0.00  0.00    +0.194 C 
ATOM     13  N   UNL     1      -0.069   4.034   0.313  0.00  0.00    -0.316 N 
ATOM     14  C   UNL     1       5.049   2.158  -0.241  0.00  0.00    +0.046 C 
ATOM     15  H   UNL     1      -1.997   1.411   0.182  0.00  0.00    +0.151 HD
ATOM     16  H   UNL     1      -0.129   4.902   0.742  0.00  0.00    +0.149 HD
ENDROOT
BRANCH  12  17
ATOM     17  C   UNL     1      -1.390   3.602  -1.679  0.00  0.00    +0.034 A 
ATOM     18  C   UNL     1      -0.829   4.739  -2.229  0.00  0.00    +0.026 A 
ATOM     19  C   UNL     1      -0.944   4.981  -3.586  0.00  0.00    +0.020 A 
ATOM     20  C   UNL     1      -1.621   4.086  -4.396  0.00  0.00    +0.034 A 
ATOM     21  C   UNL     1      -2.182   2.947  -3.850  0.00  0.00    +0.061 A 
ATOM     22  C   UNL     1      -2.063   2.701  -2.489  0.00  0.00    +0.137 A 
ATOM     23 BR   UNL     1      -3.107   1.724  -4.956  0.00  0.00    -0.046 Br
ATOM     24 BR   UNL     1      -0.176   6.538  -4.336  0.00  0.00    -0.050 Br
BRANCH  22  25
ATOM     25  O   UNL     1      -2.611   1.579  -1.950  0.00  0.00    -0.505 OA
ATOM     26  H   UNL     1      -3.524   1.691  -1.652  0.00  0.00    +0.292 HD
ENDBRANCH  22  25
ENDBRANCH  12  17
BRANCH   1  28
ATOM     27  C   UNL     1       6.931  -1.089  -1.129  0.00  0.00    +0.011 C 
ATOM     28  C   UNL     1       6.729   0.339  -0.617  0.00  0.00    -0.035 C 
ATOM     29  C   UNL     1       7.601   1.300  -1.427  0.00  0.00    +0.011 C 
ATOM     30  C   UNL     1       7.125   0.412   0.859  0.00  0.00    +0.011 C 
ENDBRANCH   1  28
TORSDOF 3
