REMARK  Name = ZINC20790698
REMARK  9 active torsions:
REMARK  status: ('A' for Active; 'I' for Inactive)
REMARK    1  A    between atoms: C_7  and  C_11
REMARK    2  A    between atoms: C_14  and  S_23
REMARK    3  A    between atoms: N_15  and  C_16
REMARK    4  A    between atoms: C_16  and  C_17
REMARK    5  A    between atoms: S_23  and  C_24
REMARK    6  A    between atoms: C_24  and  C_25
REMARK    7  A    between atoms: N_27  and  C_28
REMARK    8  A    between atoms: C_33  and  O_34
REMARK    9  A    between atoms: O_34  and  C_35
REMARK                            x       y       z     vdW  Elec       q    Type
REMARK                         _______ _______ _______ _____ _____    ______ ____
ROOT
ATOM      1  C   UNL     1      -4.881   0.606   9.803  0.00  0.00    +0.167 A 
ATOM      2  N   UNL     1      -4.405  -0.169   8.856  0.00  0.00    -0.128 NA
ATOM      3  N   UNL     1      -3.967   0.546   7.882  0.00  0.00    -0.122 NA
ATOM      4  C   UNL     1      -4.136   1.821   8.146  0.00  0.00    +0.192 A 
ATOM      5  N   UNL     1      -4.718   1.905   9.381  0.00  0.00    -0.300 N 
ENDROOT
BRANCH   1  12
ATOM      6  C   UNL     1      -7.790  -2.872  10.945  0.00  0.00    +0.001 A 
ATOM      7  C   UNL     1      -8.082  -2.902  12.302  0.00  0.00    +0.002 A 
ATOM      8  C   UNL     1      -7.526  -1.977  13.159  0.00  0.00    +0.026 A 
ATOM      9  C   UNL     1      -6.675  -0.995  12.660  0.00  0.00    +0.047 A 
ATOM     10  C   UNL     1      -6.388  -0.969  11.285  0.00  0.00    +0.010 A 
ATOM     11  C   UNL     1      -6.954  -1.919  10.436  0.00  0.00    +0.011 A 
ATOM     12  C   UNL     1      -5.472   0.167  11.083  0.00  0.00    +0.044 A 
ATOM     13  C   UNL     1      -5.282   0.734  12.302  0.00  0.00    +0.095 A 
ATOM     14  N   UNL     1      -5.994   0.050  13.245  0.00  0.00    -0.360 N 
ATOM     15  H   UNL     1      -6.077   0.224  14.328  0.00  0.00    +0.165 HD
ENDBRANCH   1  12
BRANCH   5  16
ATOM     16  C   UNL     1      -5.093   3.125  10.102  0.00  0.00    +0.157 C 
BRANCH  16  17
ATOM     17  C   UNL     1      -6.483   3.577   9.651  0.00  0.00    +0.138 C 
ATOM     18  C   UNL     1      -6.922   4.835  10.441  0.00  0.00    +0.035 C 
ATOM     19  C   UNL     1      -7.939   5.466   9.450  0.00  0.00    +0.031 C 
ATOM     20  C   UNL     1      -7.326   5.107   8.079  0.00  0.00    +0.160 C 
ATOM     21  O   UNL     1      -6.451   3.990   8.275  0.00  0.00    -0.375 OA
ENDBRANCH  16  17
ENDBRANCH   5  16
BRANCH   4  22
ATOM     22  S   UNL     1      -3.688   3.172   7.107  0.00  0.00    -0.077 S 
BRANCH  22  23
ATOM     23  C   UNL     1      -2.991   2.269   5.701  0.00  0.00    +0.173 C 
BRANCH  23  24
ATOM     24  C   UNL     1      -2.527   3.249   4.655  0.00  0.00    +0.228 C 
ATOM     25  O   UNL     1      -2.656   4.441   4.841  0.00  0.00    -0.275 OA
ATOM     26  N   UNL     1      -1.970   2.802   3.512  0.00  0.00    -0.282 N 
ATOM     27  H   UNL     1      -1.940   1.723   3.300  0.00  0.00    +0.155 HD
BRANCH  26  28
ATOM     28  C   UNL     1      -1.429   3.712   2.594  0.00  0.00    +0.076 A 
ATOM     29  C   UNL     1      -0.993   4.957   3.022  0.00  0.00    +0.027 A 
ATOM     30  C   UNL     1      -0.465   5.854   2.113  0.00  0.00    +0.002 A 
ATOM     31  C   UNL     1      -0.365   5.512   0.777  0.00  0.00    +0.004 A 
ATOM     32  C   UNL     1      -0.793   4.271   0.344  0.00  0.00    +0.048 A 
ATOM     33  C   UNL     1      -1.323   3.366   1.248  0.00  0.00    +0.148 A 
BRANCH  33  34
ATOM     34  O   UNL     1      -1.745   2.145   0.823  0.00  0.00    -0.432 OA
BRANCH  34  35
ATOM     35  C   UNL     1      -1.611   1.862  -0.571  0.00  0.00    +0.541 C 
ATOM     36  F   UNL     1      -0.263   1.942  -0.936  0.00  0.00    -0.166 F 
ATOM     37  F   UNL     1      -2.350   2.793  -1.309  0.00  0.00    -0.166 F 
ENDBRANCH  34  35
ENDBRANCH  33  34
ENDBRANCH  26  28
ENDBRANCH  23  24
ENDBRANCH  22  23
ENDBRANCH   4  22
TORSDOF 9
