REMARK  Name = ZINC57011230
REMARK  5 active torsions:
REMARK  status: ('A' for Active; 'I' for Inactive)
REMARK    1  A    between atoms: C_3  and  C_25
REMARK    2  A    between atoms: C_5  and  S_7
REMARK    3  A    between atoms: S_7  and  N_10
REMARK    4  A    between atoms: N_10  and  C_11
REMARK    5  A    between atoms: N_20  and  C_22
REMARK                            x       y       z     vdW  Elec       q    Type
REMARK                         _______ _______ _______ _____ _____    ______ ____
ROOT
ATOM      1  N   UNL     1       1.237  -2.946   1.557  0.00  0.00    -0.187 NA
ATOM      2  H   UNL     1       2.005  -3.425   1.905  0.00  0.00    +0.148 HD
ENDROOT
BRANCH   1   3
ATOM      3  C   UNL     1       0.096  -2.664   2.425  0.00  0.00    +0.079 C 
ATOM      4  C   UNL     1       0.349  -1.398   3.247  0.00  0.00    -0.009 C 
ATOM      5  C   UNL     1       1.622  -1.552   4.068  0.00  0.00    +0.003 C 
ATOM      6  C   UNL     1       1.610  -2.785   4.955  0.00  0.00    +0.001 C 
ATOM      7  C   UNL     1       1.136  -4.039   4.239  0.00  0.00    +0.003 C 
ATOM      8  C   UNL     1      -0.122  -3.812   3.413  0.00  0.00    -0.009 C 
ATOM      9  C   UNL     1      -1.326  -3.505   4.294  0.00  0.00    -0.073 C 
ATOM     10  N   UNL     1      -1.206  -2.233   5.001  0.00  0.00    +0.382 N 
ATOM     11  C   UNL     1      -0.858  -1.114   4.131  0.00  0.00    -0.073 C 
ATOM     12  H   UNL     1      -0.540  -2.312   5.753  0.00  0.00    -0.081 HD
BRANCH  10  13
ATOM     13  C   UNL     1      -2.502  -1.937   5.626  0.00  0.00    -0.069 C 
ATOM     14  C   UNL     1      -2.506  -1.590   7.116  0.00  0.00    -0.017 C 
ATOM     15  C   UNL     1      -3.042  -2.943   6.645  0.00  0.00    -0.017 C 
ENDBRANCH  10  13
ENDBRANCH   1   3
BRANCH   1  16
ATOM     16  S   UNL     1       1.218  -2.448  -0.023  0.00  0.00    +0.059 S 
ATOM     17  O   UNL     1      -0.029  -2.860  -0.564  0.00  0.00    -0.153 OA
ATOM     18  O   UNL     1       2.461  -2.842  -0.587  0.00  0.00    -0.153 OA
BRANCH  16  23
ATOM     19  C   UNL     1      -0.017   1.379   0.010  0.00  0.00    +0.003 A 
ATOM     20  C   UNL     1       1.167   2.088   0.002  0.00  0.00    +0.019 A 
ATOM     21  C   UNL     1       2.385   1.407  -0.013  0.00  0.00    +0.054 A 
ATOM     22  C   UNL     1       2.397   0.010  -0.021  0.00  0.00    +0.047 A 
ATOM     23  C   UNL     1       1.206  -0.686  -0.013  0.00  0.00    +0.106 A 
ATOM     24  C   UNL     1       0.002  -0.004   0.002  0.00  0.00    +0.028 A 
BRANCH  21  25
ATOM     25  C   UNL     1       3.617   2.136  -0.021  0.00  0.00    +0.099 C 
ATOM     26  N   UNL     1       4.595   2.715  -0.028  0.00  0.00    -0.191 NA
ENDBRANCH  21  25
ENDBRANCH  16  23
ENDBRANCH   1  16
TORSDOF 5
