REMARK  Name = ZINC36649123
REMARK  3 active torsions:
REMARK  status: ('A' for Active; 'I' for Inactive)
REMARK    1  A    between atoms: C_13  and  O_24
REMARK    2  A    between atoms: C_19  and  N_23
REMARK    3  A    between atoms: C_20  and  C_21
REMARK                            x       y       z     vdW  Elec       q    Type
REMARK                         _______ _______ _______ _____ _____    ______ ____
ROOT
ATOM      1  C   UNL     1      -0.017   1.387   0.010  0.00  0.00    +0.000 A 
ATOM      2  C   UNL     1       1.152   2.121   0.003  0.00  0.00    +0.002 A 
ATOM      3  C   UNL     1       2.399   1.516  -0.013  0.00  0.00    +0.023 A 
ATOM      4  C   UNL     1       2.432   0.121  -0.021  0.00  0.00    +0.038 A 
ATOM      5  C   UNL     1       1.239  -0.612  -0.013  0.00  0.00    -0.002 A 
ATOM      6  C   UNL     1       0.002  -0.004   0.002  0.00  0.00    +0.007 A 
ATOM      7  C   UNL     1       1.633  -2.057  -0.024  0.00  0.00    +0.141 C 
ATOM      8  C   UNL     1       1.119  -2.739  -1.262  0.00  0.00    +0.020 A 
ATOM      9  C   UNL     1       1.729  -2.479  -2.490  0.00  0.00    +0.009 A 
ATOM     10  C   UNL     1       1.296  -3.072  -3.635  0.00  0.00    +0.009 A 
ATOM     11  C   UNL     1       0.212  -3.966  -3.593  0.00  0.00    -0.011 A 
ATOM     12  C   UNL     1      -0.262  -4.590  -4.759  0.00  0.00    +0.054 A 
ATOM     13  C   UNL     1      -1.318  -5.453  -4.681  0.00  0.00    +0.117 A 
ATOM     14  C   UNL     1      -1.934  -5.723  -3.455  0.00  0.00    +0.046 A 
ATOM     15  C   UNL     1      -1.499  -5.133  -2.309  0.00  0.00    +0.016 A 
ATOM     16  C   UNL     1      -0.415  -4.240  -2.353  0.00  0.00    +0.025 A 
ATOM     17  C   UNL     1       0.057  -3.611  -1.181  0.00  0.00    +0.143 A 
ATOM     18  O   UNL     1      -0.541  -3.875   0.004  0.00  0.00    -0.440 OA
ATOM     19  C   UNL     1       0.099  -3.616   1.157  0.00  0.00    +0.199 C 
ATOM     20  C   UNL     1       1.145  -2.756   1.211  0.00  0.00    +0.110 C 
ATOM     21  C   UNL     1       3.147  -2.029  -0.042  0.00  0.00    +0.238 C 
ATOM     22  O   UNL     1       3.885  -2.991  -0.057  0.00  0.00    -0.274 OA
ATOM     23  N   UNL     1       3.520  -0.733  -0.038  0.00  0.00    -0.284 N 
ATOM     24  H   UNL     1       4.443  -0.434  -0.045  0.00  0.00    +0.155 HD
ENDROOT
BRANCH  19  25
ATOM     25  N   UNL     1      -0.317  -4.237   2.308  0.00  0.00    -0.328 N 
ATOM     26  H   UNL     1      -1.065  -4.855   2.283  0.00  0.00    +0.145 HD
ATOM     27  H   UNL     1       0.136  -4.058   3.147  0.00  0.00    +0.145 HD
ENDBRANCH  19  25
BRANCH  20  28
ATOM     28  C   UNL     1       1.794  -2.511   2.464  0.00  0.00    +0.102 C 
ATOM     29  N   UNL     1       2.309  -2.316   3.458  0.00  0.00    -0.191 NA
ENDBRANCH  20  28
BRANCH  13  30
ATOM     30  O   UNL     1      -1.775  -6.057  -5.809  0.00  0.00    -0.507 OA
ATOM     31  H   UNL     1      -1.349  -6.903  -6.003  0.00  0.00    +0.292 HD
ENDBRANCH  13  30
TORSDOF 3
