REMARK  Name = ZINC26991838
REMARK  9 active torsions:
REMARK  status: ('A' for Active; 'I' for Inactive)
REMARK    1  A    between atoms: C_1  and  C_2
REMARK    2  A    between atoms: C_4  and  C_8
REMARK    3  A    between atoms: C_5  and  C_7
REMARK    4  A    between atoms: N_10  and  N_11
REMARK    5  A    between atoms: C_12  and  C_14
REMARK    6  A    between atoms: C_14  and  C_16
REMARK    7  A    between atoms: C_14  and  N_27
REMARK    8  A    between atoms: C_16  and  C_17
REMARK    9  A    between atoms: C_28  and  C_30
REMARK                            x       y       z     vdW  Elec       q    Type
REMARK                         _______ _______ _______ _____ _____    ______ ____
ROOT
ATOM      1  C   UNL     1       4.175   0.620   1.402  0.00  0.00    +0.165 C 
ENDROOT
BRANCH   1   3
ATOM      2  N   UNL     1       6.192  -0.810   1.324  0.00  0.00    -0.233 N 
ATOM      3  C   UNL     1       5.670   0.430   1.398  0.00  0.00    +0.250 C 
ATOM      4  O   UNL     1       6.404   1.394   1.462  0.00  0.00    -0.272 OA
ATOM      5  H   UNL     1       5.527  -1.684   1.266  0.00  0.00    +0.173 HD
BRANCH   2   8
ATOM      6  C   UNL     1       8.104  -2.227   1.246  0.00  0.00    +0.263 C 
ATOM      7  O   UNL     1       7.368  -3.193   1.182  0.00  0.00    -0.269 OA
ATOM      8  N   UNL     1       7.582  -0.986   1.321  0.00  0.00    -0.230 N 
ATOM      9  H   UNL     1       8.247  -0.112   1.379  0.00  0.00    +0.173 HD
BRANCH   6  13
ATOM     10  C   UNL     1      13.128  -1.341   1.328  0.00  0.00    +0.086 C 
ATOM     11  C   UNL     1      11.774  -2.003   1.280  0.00  0.00    +0.103 A 
ATOM     12  C   UNL     1      10.595  -1.364   1.308  0.00  0.00    +0.057 A 
ATOM     13  C   UNL     1       9.566  -2.412   1.243  0.00  0.00    +0.079 A 
ATOM     14  C   UNL     1      10.248  -3.592   1.173  0.00  0.00    +0.114 A 
ATOM     15  O   UNL     1      11.557  -3.325   1.197  0.00  0.00    -0.464 OA
ATOM     16  C   UNL     1       9.629  -4.963   1.085  0.00  0.00    +0.087 C 
ENDBRANCH   6  13
ENDBRANCH   2   8
ENDBRANCH   1   3
BRANCH   1  17
ATOM     17  N   UNL     1       3.851   1.937   1.955  0.00  0.00    -0.300 N 
ATOM     18  C   UNL     1       4.319   3.052   1.360  0.00  0.00    +0.246 C 
ATOM     19  O   UNL     1       5.011   2.965   0.364  0.00  0.00    -0.270 OA
ATOM     20  H   UNL     1       3.226   2.016   2.857  0.00  0.00    +0.150 HD
BRANCH  18  21
ATOM     21  C   UNL     1       3.993   4.380   1.919  0.00  0.00    +0.055 A 
ATOM     22  C   UNL     1       3.194   4.484   3.059  0.00  0.00    +0.014 A 
ATOM     23  C   UNL     1       2.898   5.727   3.579  0.00  0.00    +0.001 A 
ATOM     24  C   UNL     1       3.380   6.871   2.966  0.00  0.00    +0.001 A 
ATOM     25  C   UNL     1       4.166   6.777   1.833  0.00  0.00    +0.021 A 
ATOM     26  C   UNL     1       4.476   5.538   1.304  0.00  0.00    +0.053 A 
ATOM     27 CL   UNL     1       5.463   5.421  -0.119  0.00  0.00    -0.083 Cl
ENDBRANCH  18  21
ENDBRANCH   1  17
BRANCH   1  28
ATOM     28  C   UNL     1       3.646   0.524  -0.031  0.00  0.00    +0.069 C 
BRANCH  28  29
ATOM     29  C   UNL     1       2.140   0.591  -0.015  0.00  0.00    -0.020 A 
ATOM     30  C   UNL     1       1.295  -0.452  -0.013  0.00  0.00    +0.087 A 
ATOM     31  N   UNL     1       0.002  -0.004   0.002  0.00  0.00    -0.360 N 
ATOM     32  H   UNL     1      -0.829  -0.724   0.006  0.00  0.00    +0.165 HD
ATOM     33  C   UNL     1      -0.017   1.373   0.010  0.00  0.00    +0.047 A 
ATOM     34  C   UNL     1       1.322   1.806  -0.001  0.00  0.00    +0.003 A 
ATOM     35  C   UNL     1       1.612   3.171   0.004  0.00  0.00    +0.010 A 
ATOM     36  C   UNL     1       0.593   4.082   0.019  0.00  0.00    +0.001 A 
ATOM     37  C   UNL     1      -0.729   3.659   0.029  0.00  0.00    +0.002 A 
ATOM     38  C   UNL     1      -1.038   2.317   0.029  0.00  0.00    +0.026 A 
ENDBRANCH  28  29
ENDBRANCH   1  28
TORSDOF 7
