REMARK  Name = ZINC59264791
REMARK  10 active torsions:
REMARK  status: ('A' for Active; 'I' for Inactive)
REMARK    1  A    between atoms: C_1  and  C_2
REMARK    2  A    between atoms: C_2  and  C_3
REMARK    3  A    between atoms: C_3  and  C_5
REMARK    4  A    between atoms: C_3  and  S_6
REMARK    5  A    between atoms: S_6  and  C_7
REMARK    6  A    between atoms: C_13  and  C_15
REMARK    7  A    between atoms: C_15  and  S_16
REMARK    8  A    between atoms: S_16  and  C_17
REMARK    9  A    between atoms: C_20  and  C_23
REMARK   10  A    between atoms: N_21  and  N_22
REMARK                            x       y       z     vdW  Elec       q    Type
REMARK                         _______ _______ _______ _____ _____    ______ ____
ROOT
ATOM      1  S   UNL     1     -10.607  -3.510   0.680  0.00  0.00    -0.075 S 
ENDROOT
BRANCH   1   2
ATOM      2  C   UNL     1     -12.331  -3.687   0.362  0.00  0.00    +0.209 A 
ATOM      3  N   UNL     1     -12.985  -3.214  -0.676  0.00  0.00    -0.121 NA
ATOM      4  N   UNL     1     -14.229  -3.526  -0.593  0.00  0.00    -0.127 NA
ATOM      5  C   UNL     1     -14.446  -4.216   0.502  0.00  0.00    +0.183 A 
ATOM      6  N   UNL     1     -13.236  -4.346   1.144  0.00  0.00    -0.224 N 
BRANCH   5   7
ATOM      7  C   UNL     1     -15.744  -4.758   0.957  0.00  0.00    +0.035 A 
ATOM      8  C   UNL     1     -16.159  -4.570   2.277  0.00  0.00    +0.013 A 
ATOM      9  C   UNL     1     -17.371  -5.077   2.695  0.00  0.00    +0.001 A 
ATOM     10  C   UNL     1     -18.177  -5.771   1.809  0.00  0.00    +0.001 A 
ATOM     11  C   UNL     1     -17.774  -5.960   0.500  0.00  0.00    +0.016 A 
ATOM     12  C   UNL     1     -16.565  -5.454   0.067  0.00  0.00    +0.029 A 
ATOM     13 BR   UNL     1     -16.018  -5.707  -1.726  0.00  0.00    -0.050 Br
ENDBRANCH   5   7
BRANCH   6  14
ATOM     14  N   UNL     1     -12.991  -4.995   2.321  0.00  0.00    -0.295 N 
ATOM     15  H   UNL     1     -13.178  -4.396   3.111  0.00  0.00    +0.163 HD
ATOM     16  H   UNL     1     -13.526  -5.849   2.381  0.00  0.00    +0.163 HD
ENDBRANCH   6  14
ENDBRANCH   1   2
BRANCH   1  17
ATOM     17  C   UNL     1      -9.998  -2.542  -0.728  0.00  0.00    +0.173 C 
BRANCH  17  24
ATOM     18  C   UNL     1      -3.876  -0.821  -1.434  0.00  0.00    +0.160 A 
ATOM     19  N   UNL     1      -4.415  -1.524  -0.448  0.00  0.00    -0.133 NA
ATOM     20  N   UNL     1      -5.645  -1.800  -0.422  0.00  0.00    -0.125 NA
ATOM     21  C   UNL     1      -6.473  -1.407  -1.375  0.00  0.00    +0.189 A 
ATOM     22  S   UNL     1      -5.331  -0.524  -2.435  0.00  0.00    -0.024 S 
ATOM     23  N   UNL     1      -7.843  -1.616  -1.514  0.00  0.00    -0.263 N 
ATOM     24  C   UNL     1      -8.516  -2.316  -0.579  0.00  0.00    +0.229 C 
ATOM     25  O   UNL     1      -7.928  -2.764   0.383  0.00  0.00    -0.275 OA
ATOM     26  H   UNL     1      -8.313  -1.257  -2.283  0.00  0.00    +0.157 HD
BRANCH  18  27
ATOM     27  S   UNL     1      -2.206  -0.317  -1.685  0.00  0.00    -0.094 S 
BRANCH  27  28
ATOM     28  C   UNL     1      -1.323  -0.996  -0.254  0.00  0.00    +0.050 C 
ATOM     29  C   UNL     1      -1.364  -2.524  -0.307  0.00  0.00    +0.019 C 
BRANCH  28  31
ATOM     30  C   UNL     1       0.178   0.996  -0.102  0.00  0.00    +0.005 C 
ATOM     31  C   UNL     1       0.132  -0.523  -0.281  0.00  0.00    +0.011 C 
ENDBRANCH  28  31
ENDBRANCH  27  28
ENDBRANCH  18  27
ENDBRANCH  17  24
ENDBRANCH   1  17
TORSDOF 8
