REMARK  Name = ZINC64838762
REMARK  9 active torsions:
REMARK  status: ('A' for Active; 'I' for Inactive)
REMARK    1  A    between atoms: C_1  and  C_2
REMARK    2  A    between atoms: C_5  and  N_9
REMARK    3  A    between atoms: C_6  and  C_8
REMARK    4  A    between atoms: C_10  and  C_12
REMARK    5  A    between atoms: C_12  and  N_13
REMARK    6  A    between atoms: C_14  and  C_30
REMARK    7  A    between atoms: C_16  and  C_29
REMARK    8  A    between atoms: C_17  and  S_20
REMARK    9  A    between atoms: S_20  and  C_23
REMARK                            x       y       z     vdW  Elec       q    Type
REMARK                         _______ _______ _______ _____ _____    ______ ____
ROOT
ATOM      1  N   UNL     1       0.393  -6.811  -2.572  0.00  0.00    -0.302 N 
ATOM      2  C   UNL     1      -0.730  -6.907  -3.329  0.00  0.00    +0.020 A 
ATOM      3  C   UNL     1      -0.667  -7.348  -4.606  0.00  0.00    +0.026 A 
ATOM      4  C   UNL     1       0.568  -7.710  -5.162  0.00  0.00    -0.018 A 
ATOM      5  C   UNL     1       1.696  -7.612  -4.401  0.00  0.00    +0.161 A 
ATOM      6  C   UNL     1       1.595  -7.145  -3.079  0.00  0.00    +0.278 A 
ATOM      7  O   UNL     1       2.597  -7.048  -2.388  0.00  0.00    -0.266 OA
ATOM      8  C   UNL     1       0.649  -8.203  -6.584  0.00  0.00    +0.046 C 
ATOM      9  C   UNL     1      -2.062  -6.521  -2.738  0.00  0.00    +0.063 C 
ENDROOT
BRANCH   5  10
ATOM     10  S   UNL     1       3.264  -8.059  -5.070  0.00  0.00    +0.037 S 
ATOM     11  O   UNL     1       3.881  -8.916  -4.120  0.00  0.00    -0.164 OA
ATOM     12  O   UNL     1       3.033  -8.452  -6.416  0.00  0.00    -0.164 OA
BRANCH  10  13
ATOM     13  C   UNL     1       4.240  -6.593  -5.134  0.00  0.00    +0.132 A 
ATOM     14  C   UNL     1       5.075  -6.083  -4.197  0.00  0.00    +0.036 A 
ATOM     15  C   UNL     1       5.746  -4.905  -4.467  0.00  0.00    +0.029 A 
ATOM     16  C   UNL     1       5.549  -4.295  -5.663  0.00  0.00    +0.080 A 
ATOM     17  S   UNL     1       4.391  -5.400  -6.453  0.00  0.00    -0.058 S 
ATOM     18 CL   UNL     1       6.247  -2.826  -6.269  0.00  0.00    -0.076 Cl
ENDBRANCH  10  13
ENDBRANCH   5  10
BRANCH   1  19
ATOM     19  C   UNL     1       0.297  -6.331  -1.191  0.00  0.00    +0.221 C 
BRANCH  19  21
ATOM     20  N   UNL     1       0.104  -7.307   1.073  0.00  0.00    -0.284 N 
ATOM     21  C   UNL     1       0.202  -7.508  -0.256  0.00  0.00    +0.237 C 
ATOM     22  O   UNL     1       0.212  -8.637  -0.699  0.00  0.00    -0.274 OA
ATOM     23  H   UNL     1       0.031  -6.405   1.423  0.00  0.00    +0.155 HD
BRANCH  20  28
ATOM     24  C   UNL     1       0.124 -11.734   4.621  0.00  0.00    +0.044 C 
ATOM     25  C   UNL     1       0.119 -10.558   3.678  0.00  0.00    -0.050 A 
ATOM     26  C   UNL     1      -0.479 -10.672   2.437  0.00  0.00    +0.005 A 
ATOM     27  C   UNL     1      -0.486  -9.596   1.571  0.00  0.00    +0.024 A 
ATOM     28  C   UNL     1       0.109  -8.399   1.948  0.00  0.00    +0.036 A 
ATOM     29  C   UNL     1       0.708  -8.288   3.196  0.00  0.00    -0.029 A 
ATOM     30  C   UNL     1       0.707  -9.366   4.059  0.00  0.00    +0.008 A 
ATOM     31  C   UNL     1       1.354  -6.991   3.610  0.00  0.00    +0.045 C 
ENDBRANCH  20  28
ENDBRANCH  19  21
ENDBRANCH   1  19
TORSDOF 5
