REMARK  Name = ZINC33072222
REMARK  4 active torsions:
REMARK  status: ('A' for Active; 'I' for Inactive)
REMARK    1  A    between atoms: C_1  and  C_2
REMARK    2  A    between atoms: C_16  and  C_19
REMARK    3  A    between atoms: N_21  and  C_22
REMARK    4  A    between atoms: C_22  and  C_23
REMARK                            x       y       z     vdW  Elec       q    Type
REMARK                         _______ _______ _______ _____ _____    ______ ____
ROOT
ATOM      1  C   UNL     1      -9.573  -1.302  -0.066  0.00  0.00    +0.044 C 
ATOM      2  C   UNL     1      -8.439  -0.311   0.007  0.00  0.00    -0.048 A 
ATOM      3  C   UNL     1      -8.713   1.040   0.163  0.00  0.00    +0.005 A 
ATOM      4  C   UNL     1      -7.689   1.957   0.231  0.00  0.00    +0.028 A 
ATOM      5  C   UNL     1      -6.364   1.525   0.141  0.00  0.00    +0.065 A 
ATOM      6  C   UNL     1      -6.092   0.157  -0.017  0.00  0.00    +0.066 A 
ATOM      7  C   UNL     1      -7.136  -0.754  -0.083  0.00  0.00    +0.031 A 
ATOM      8  N   UNL     1      -4.713   0.042  -0.079  0.00  0.00    -0.327 N 
ATOM      9  H   UNL     1      -4.248  -0.946  -0.208  0.00  0.00    +0.169 HD
ATOM     10  C   UNL     1      -4.196   1.300   0.047  0.00  0.00    +0.174 A 
ATOM     11  N   UNL     1      -5.168   2.170   0.173  0.00  0.00    -0.327 N 
ATOM     12  N   UNL     1      -2.852   1.610   0.036  0.00  0.00    -0.302 N 
ATOM     13  C   UNL     1      -2.207   1.109  -1.184  0.00  0.00    +0.108 C 
ATOM     14  C   UNL     1      -0.756   1.594  -1.230  0.00  0.00    +0.020 C 
ATOM     15  C   UNL     1      -0.013   1.086   0.008  0.00  0.00    +0.016 C 
ATOM     16  C   UNL     1      -0.732   1.581   1.266  0.00  0.00    +0.092 C 
ATOM     17  C   UNL     1      -2.185   1.096   1.239  0.00  0.00    +0.120 C 
ATOM     18  H   UNL     1      -5.135   3.263   0.291  0.00  0.00    +0.169 HD
ENDROOT
BRANCH  16  19
ATOM     19  C   UNL     1      -0.040   1.036   2.489  0.00  0.00    +0.218 C 
ATOM     20  O   UNL     1      -0.648   0.332   3.267  0.00  0.00    -0.275 OA
ATOM     21  N   UNL     1       1.255   1.331   2.717  0.00  0.00    -0.311 N 
ATOM     22  H   UNL     1       1.807   1.969   2.011  0.00  0.00    +0.149 HD
BRANCH  21  23
ATOM     23  C   UNL     1       1.928   0.801   3.906  0.00  0.00    +0.139 C 
BRANCH  23  24
ATOM     24  C   UNL     1       3.359   1.275   3.926  0.00  0.00    -0.029 A 
ATOM     25  C   UNL     1       3.684   2.462   4.555  0.00  0.00    +0.005 A 
ATOM     26  C   UNL     1       4.996   2.897   4.574  0.00  0.00    +0.001 A 
ATOM     27  C   UNL     1       5.983   2.145   3.965  0.00  0.00    +0.015 A 
ATOM     28  C   UNL     1       5.658   0.957   3.336  0.00  0.00    +0.018 A 
ATOM     29  C   UNL     1       4.345   0.519   3.322  0.00  0.00    +0.020 A 
ATOM     30 BR   UNL     1       7.007  -0.072   2.502  0.00  0.00    -0.050 Br
ENDBRANCH  23  24
ENDBRANCH  21  23
ENDBRANCH  16  19
TORSDOF 3
