REMARK  Name = ZINC08823654
REMARK  16 active torsions:
REMARK  status: ('A' for Active; 'I' for Inactive)
REMARK    1  A    between atoms: C_1  and  C_2
REMARK    2  A    between atoms: C_2  and  C_3
REMARK    3  A    between atoms: C_2  and  C_4
REMARK    4  A    between atoms: C_4  and  N_65
REMARK    5  A    between atoms: C_5  and  C_6
REMARK    6  A    between atoms: C_5  and  N_65
REMARK    7  A    between atoms: C_7  and  O_27
REMARK    8  A    between atoms: C_14  and  C_15
REMARK    9  A    between atoms: C_18  and  O_23
REMARK   10  A    between atoms: C_19  and  O_21
REMARK   11  A    between atoms: O_21  and  C_22
REMARK   12  A    between atoms: O_23  and  C_24
REMARK   13  A    between atoms: C_28  and  C_29
REMARK   14  A    between atoms: C_28  and  N_65
REMARK   15  A    between atoms: C_29  and  C_30
REMARK   16  A    between atoms: C_29  and  C_31
REMARK                            x       y       z     vdW  Elec       q    Type
REMARK                         _______ _______ _______ _____ _____    ______ ____
ROOT
ATOM      1  C   UNL     1      -1.459  10.332   1.456  0.00  0.00    +0.020 A 
ATOM      2  C   UNL     1      -1.266  11.624   0.995  0.00  0.00    +0.122 A 
ATOM      3  C   UNL     1      -0.845  11.854  -0.312  0.00  0.00    +0.046 A 
ATOM      4  C   UNL     1      -0.618  10.803  -1.155  0.00  0.00    +0.019 A 
ATOM      5  C   UNL     1      -0.809   9.496  -0.704  0.00  0.00    +0.068 A 
ATOM      6  C   UNL     1      -1.232   9.252   0.612  0.00  0.00    +0.144 A 
ATOM      7  O   UNL     1      -1.346   7.921   0.814  0.00  0.00    -0.451 OA
ATOM      8  C   UNL     1      -1.023   7.215  -0.295  0.00  0.00    +0.176 C 
ATOM      9  C   UNL     1      -1.035   5.862  -0.416  0.00  0.00    +0.058 C 
ATOM     10  C   UNL     1      -0.650   8.177  -1.342  0.00  0.00    +0.231 C 
ATOM     11  O   UNL     1      -0.293   7.937  -2.482  0.00  0.00    -0.283 OA
ENDROOT
BRANCH   9  12
ATOM     12  C   UNL     1      -1.536   5.031   0.686  0.00  0.00    -0.018 A 
ATOM     13  C   UNL     1      -1.879   5.620   1.909  0.00  0.00    +0.012 A 
ATOM     14  C   UNL     1      -2.350   4.837   2.941  0.00  0.00    +0.050 A 
ATOM     15  C   UNL     1      -2.490   3.466   2.769  0.00  0.00    +0.162 A 
ATOM     16  C   UNL     1      -2.145   2.872   1.556  0.00  0.00    +0.162 A 
ATOM     17  C   UNL     1      -1.673   3.648   0.516  0.00  0.00    +0.057 A 
BRANCH  16  18
ATOM     18  O   UNL     1      -2.279   1.528   1.395  0.00  0.00    -0.491 OA
ATOM     19  C   UNL     1      -1.912   0.987   0.124  0.00  0.00    +0.277 C 
ENDBRANCH  16  18
BRANCH  15  20
ATOM     20  O   UNL     1      -2.960   2.701   3.788  0.00  0.00    -0.491 OA
ATOM     21  C   UNL     1      -3.294   3.374   5.004  0.00  0.00    +0.277 C 
ENDBRANCH  15  20
ENDBRANCH   9  12
BRANCH   2  22
ATOM     22  O   UNL     1      -1.489  12.675   1.825  0.00  0.00    -0.506 OA
ATOM     23  H   UNL     1      -0.711  12.948   2.331  0.00  0.00    +0.292 HD
ENDBRANCH   2  22
BRANCH   1  24
ATOM     24  C   UNL     1      -1.913  10.098   2.874  0.00  0.00    -0.036 C 
BRANCH  24  25
ATOM     25  N   UNL     1      -0.757  10.271   3.778  0.00  0.00    +0.383 N 
ATOM     26  H   UNL     1      -0.248  11.121   3.509  0.00  0.00    -0.081 HD
BRANCH  25  27
ATOM     27  C   UNL     1      -1.223  10.411   5.173  0.00  0.00    -0.075 C 
BRANCH  27  29
ATOM     28  C   UNL     1       0.473  12.188   5.627  0.00  0.00    +0.005 C 
ATOM     29  C   UNL     1      -0.036  10.810   6.053  0.00  0.00    -0.034 C 
ATOM     30  C   UNL     1      -0.480  10.859   7.516  0.00  0.00    +0.005 C 
ENDBRANCH  27  29
ENDBRANCH  25  27
BRANCH  25  31
ATOM     31  C   UNL     1       0.152   9.111   3.663  0.00  0.00    -0.075 C 
BRANCH  31  32
ATOM     32  C   UNL     1       1.130   9.370   2.515  0.00  0.00    -0.034 C 
ATOM     33  C   UNL     1       2.016  10.569   2.861  0.00  0.00    +0.005 C 
ATOM     34  C   UNL     1       2.006   8.133   2.303  0.00  0.00    +0.005 C 
ENDBRANCH  31  32
ENDBRANCH  25  31
ENDBRANCH  24  25
ENDBRANCH   1  24
TORSDOF 10
