REMARK  Name = ZINC62484315
REMARK  10 active torsions:
REMARK  status: ('A' for Active; 'I' for Inactive)
REMARK    1  A    between atoms: C_1  and  N_2
REMARK    2  A    between atoms: C_6  and  C_7
REMARK    3  A    between atoms: C_7  and  C_8
REMARK    4  A    between atoms: C_7  and  C_23
REMARK    5  A    between atoms: C_7  and  O_27
REMARK    6  A    between atoms: C_8  and  C_9
REMARK    7  A    between atoms: C_9  and  N_10
REMARK    8  A    between atoms: N_13  and  C_14
REMARK    9  A    between atoms: N_13  and  C_17
REMARK   10  A    between atoms: C_14  and  C_15
REMARK                            x       y       z     vdW  Elec       q    Type
REMARK                         _______ _______ _______ _____ _____    ______ ____
ROOT
ATOM      1  C   UNL     1       0.258  -0.891   4.941  0.00  0.00    +0.109 C 
ENDROOT
BRANCH   1   2
ATOM      2  N   UNL     1       0.456  -1.977   5.905  0.00  0.00    -0.299 N 
ATOM      3  C   UNL     1       0.608  -1.696   7.215  0.00  0.00    +0.303 C 
ATOM      4  O   UNL     1       0.580  -0.542   7.596  0.00  0.00    -0.253 OA
ATOM      5  N   UNL     1       0.790  -2.695   8.101  0.00  0.00    -0.272 N 
ATOM      6  H   UNL     1       0.478  -2.898   5.601  0.00  0.00    +0.150 HD
BRANCH   5   7
ATOM      7  C   UNL     1       0.955  -2.389   9.525  0.00  0.00    +0.078 C 
ATOM      8  C   UNL     1      -0.289  -1.662  10.038  0.00  0.00    +0.022 C 
ATOM      9  C   UNL     1      -0.117  -1.343  11.524  0.00  0.00    +0.002 C 
ATOM     10  C   UNL     1       1.111  -0.450  11.715  0.00  0.00    +0.000 C 
ATOM     11  C   UNL     1       2.355  -1.177  11.202  0.00  0.00    +0.002 C 
ATOM     12  C   UNL     1       2.183  -1.496   9.716  0.00  0.00    +0.022 C 
ENDBRANCH   5   7
BRANCH   5  13
ATOM     13  C   UNL     1       0.823  -4.085   7.642  0.00  0.00    +0.198 C 
BRANCH  13  14
ATOM     14  C   UNL     1       2.207  -4.459   7.309  0.00  0.00    -0.086 C 
ATOM     15  C   UNL     1       3.311  -4.757   7.044  0.00  0.00    +0.005 C 
ENDBRANCH  13  14
ENDBRANCH   5  13
ENDBRANCH   1   2
BRANCH   1  16
ATOM     16  C   UNL     1       0.114  -1.478   3.536  0.00  0.00    +0.071 C 
BRANCH  16  17
ATOM     17  C   UNL     1       0.037  -0.341   2.514  0.00  0.00    +0.220 C 
BRANCH  17  23
ATOM     18  C   UNL     1      -0.882   2.151   0.918  0.00  0.00    +0.150 C 
ATOM     19  N   UNL     1      -1.578   1.573   2.070  0.00  0.00    -0.335 N 
ATOM     20  C   UNL     1      -2.743   2.027   2.627  0.00  0.00    +0.106 A 
ATOM     21  C   UNL     1      -3.028   1.208   3.658  0.00  0.00    +0.130 A 
ATOM     22  N   UNL     1      -2.063   0.279   3.728  0.00  0.00    -0.237 NA
ATOM     23  C   UNL     1      -1.194   0.488   2.778  0.00  0.00    +0.150 A 
ENDBRANCH  17  23
BRANCH  17  24
ATOM     24  C   UNL     1      -0.036  -0.927   1.103  0.00  0.00    +0.425 C 
ATOM     25  F   UNL     1       0.041   0.107   0.164  0.00  0.00    -0.167 F 
ATOM     26  F   UNL     1       1.031  -1.812   0.910  0.00  0.00    -0.167 F 
ATOM     27  F   UNL     1      -1.245  -1.613   0.944  0.00  0.00    -0.167 F 
ENDBRANCH  17  24
BRANCH  17  28
ATOM     28  O   UNL     1       1.199   0.482   2.629  0.00  0.00    -0.373 OA
ATOM     29  H   UNL     1       1.309   0.888   3.500  0.00  0.00    +0.211 HD
ENDBRANCH  17  28
ENDBRANCH  16  17
ENDBRANCH   1  16
TORSDOF 9
