REMARK  Name = ZINC66566401
REMARK  10 active torsions:
REMARK  status: ('A' for Active; 'I' for Inactive)
REMARK    1  A    between atoms: C_1  and  C_2
REMARK    2  A    between atoms: C_7  and  N_10
REMARK    3  A    between atoms: C_11  and  C_13
REMARK    4  A    between atoms: C_13  and  N_14
REMARK    5  A    between atoms: N_17  and  C_20
REMARK    6  A    between atoms: C_20  and  C_21
REMARK    7  A    between atoms: N_26  and  C_27
REMARK    8  A    between atoms: C_27  and  C_28
REMARK    9  A    between atoms: C_28  and  C_29
REMARK   10  A    between atoms: C_28  and  C_30
REMARK                            x       y       z     vdW  Elec       q    Type
REMARK                         _______ _______ _______ _____ _____    ______ ____
ROOT
ATOM      1  N   UNL     1       3.288  -5.554  -0.980  0.00  0.00    -0.292 NA
ATOM      2  C   UNL     1       2.213  -6.536  -0.785  0.00  0.00    +0.100 C 
ATOM      3  C   UNL     1       2.824  -7.900  -0.457  0.00  0.00    +0.100 C 
ATOM      4  N   UNL     1       3.717  -8.310  -1.551  0.00  0.00    -0.292 NA
ATOM      5  C   UNL     1       4.792  -7.328  -1.745  0.00  0.00    +0.100 C 
ATOM      6  C   UNL     1       4.180  -5.964  -2.073  0.00  0.00    +0.100 C 
ENDROOT
BRANCH   1   7
ATOM      7  C   UNL     1       2.739  -4.213  -1.222  0.00  0.00    +0.180 C 
BRANCH   7   9
ATOM      8  N   UNL     1       1.448  -2.513   0.028  0.00  0.00    -0.311 N 
ATOM      9  C   UNL     1       2.034  -3.727   0.018  0.00  0.00    +0.227 C 
ATOM     10  O   UNL     1       1.992  -4.429   1.006  0.00  0.00    -0.274 OA
ATOM     11  H   UNL     1       1.482  -1.952  -0.763  0.00  0.00    +0.149 HD
BRANCH   8  17
ATOM     12  C   UNL     1      -0.019   1.526   0.010  0.00  0.00    +0.007 C 
ATOM     13  C   UNL     1       0.002  -0.004   0.002  0.00  0.00    -0.012 C 
ATOM     14  C   UNL     1      -1.433  -0.534   0.013  0.00  0.00    +0.003 C 
ATOM     15  C   UNL     1      -1.413  -2.063   0.004  0.00  0.00    +0.002 C 
ATOM     16  C   UNL     1      -0.673  -2.570   1.244  0.00  0.00    +0.022 C 
ATOM     17  C   UNL     1       0.763  -2.041   1.233  0.00  0.00    +0.073 C 
ATOM     18  C   UNL     1       0.742  -0.511   1.242  0.00  0.00    +0.025 C 
ENDBRANCH   8  17
ENDBRANCH   7   9
ENDBRANCH   1   7
BRANCH   4  19
ATOM     19  C   UNL     1       4.266  -9.651  -1.308  0.00  0.00    +0.181 C 
BRANCH  19  20
ATOM     20  C   UNL     1       4.971 -10.137  -2.548  0.00  0.00    +0.234 C 
ATOM     21  O   UNL     1       5.012  -9.435  -3.536  0.00  0.00    -0.274 OA
ATOM     22  N   UNL     1       5.556 -11.351  -2.558  0.00  0.00    -0.239 N 
ATOM     23  C   UNL     1       6.187 -11.785  -3.667  0.00  0.00    +0.306 C 
ATOM     24  O   UNL     1       6.228 -11.082  -4.658  0.00  0.00    -0.252 OA
ATOM     25  N   UNL     1       6.772 -12.999  -3.677  0.00  0.00    -0.299 N 
ATOM     26  H   UNL     1       5.523 -11.912  -1.768  0.00  0.00    +0.159 HD
ATOM     27  H   UNL     1       6.739 -13.560  -2.887  0.00  0.00    +0.150 HD
BRANCH  25  28
ATOM     28  C   UNL     1       7.458 -13.472  -4.883  0.00  0.00    +0.108 C 
BRANCH  28  29
ATOM     29  C   UNL     1       8.030 -14.868  -4.630  0.00  0.00    -0.000 C 
ATOM     30  C   UNL     1       6.883 -15.856  -4.403  0.00  0.00    +0.009 C 
ATOM     31  C   UNL     1       8.851 -15.310  -5.843  0.00  0.00    +0.009 C 
ENDBRANCH  28  29
ENDBRANCH  25  28
ENDBRANCH  19  20
ENDBRANCH   4  19
TORSDOF 7
