REMARK  Name = ZINC33142610
REMARK  7 active torsions:
REMARK  status: ('A' for Active; 'I' for Inactive)
REMARK    1  A    between atoms: C_1  and  C_2
REMARK    2  A    between atoms: C_2  and  C_4
REMARK    3  A    between atoms: C_2  and  N_12
REMARK    4  A    between atoms: C_13  and  C_15
REMARK    5  A    between atoms: C_15  and  S_16
REMARK    6  A    between atoms: S_16  and  C_17
REMARK    7  A    between atoms: N_21  and  C_22
REMARK                            x       y       z     vdW  Elec       q    Type
REMARK                         _______ _______ _______ _____ _____    ______ ____
ROOT
ATOM      1  N   UNL     1       1.358   1.716  -0.022  0.00  0.00    -0.308 N 
ATOM      2  C   UNL     1       2.287   1.090  -0.772  0.00  0.00    +0.224 C 
ATOM      3  O   UNL     1       1.966   0.165  -1.488  0.00  0.00    -0.275 OA
ATOM      4  H   UNL     1       1.649   2.555   0.626  0.00  0.00    +0.149 HD
ENDROOT
BRANCH   1   6
ATOM      5  C   UNL     1      -0.745   1.956  -1.248  0.00  0.00    +0.033 C 
ATOM      6  C   UNL     1      -0.039   1.279  -0.072  0.00  0.00    +0.102 C 
BRANCH   6   7
ATOM      7  C   UNL     1      -0.729   1.657   1.213  0.00  0.00    -0.009 A 
ATOM      8  C   UNL     1      -0.256   2.715   1.966  0.00  0.00    +0.008 A 
ATOM      9  C   UNL     1      -0.889   3.063   3.145  0.00  0.00    +0.020 A 
ATOM     10  C   UNL     1      -1.996   2.352   3.572  0.00  0.00    +0.042 A 
ATOM     11  C   UNL     1      -2.470   1.293   2.819  0.00  0.00    +0.040 A 
ATOM     12  C   UNL     1      -1.840   0.949   1.636  0.00  0.00    +0.047 A 
ATOM     13 CL   UNL     1      -2.439  -0.375   0.686  0.00  0.00    -0.083 Cl
ATOM     14 CL   UNL     1      -2.790   2.788   5.053  0.00  0.00    -0.083 Cl
ENDBRANCH   6   7
ENDBRANCH   1   6
BRANCH   2  15
ATOM     15  C   UNL     1       3.724   1.540  -0.722  0.00  0.00    +0.173 C 
BRANCH  15  16
ATOM     16  S   UNL     1       4.720   0.509  -1.833  0.00  0.00    -0.077 S 
BRANCH  16  17
ATOM     17  C   UNL     1       6.352   1.152  -1.663  0.00  0.00    +0.193 A 
ATOM     18  N   UNL     1       6.710   2.154  -0.898  0.00  0.00    -0.121 NA
ATOM     19  N   UNL     1       8.089   2.344  -1.050  0.00  0.00    -0.112 NA
ATOM     20  C   UNL     1       8.528   1.457  -1.909  0.00  0.00    +0.220 A 
ATOM     21  N   UNL     1       7.466   0.696  -2.311  0.00  0.00    -0.293 N 
ATOM     22  C   UNL     1       7.514  -0.413  -3.267  0.00  0.00    +0.154 C 
ATOM     23  N   UNL     1       9.842   1.314  -2.336  0.00  0.00    -0.295 N 
ATOM     24  C   UNL     1      10.729   0.984  -1.211  0.00  0.00    +0.136 C 
ATOM     25  C   UNL     1      12.153   0.778  -1.735  0.00  0.00    +0.179 C 
ATOM     26  O   UNL     1      12.575   1.954  -2.429  0.00  0.00    -0.377 OA
ATOM     27  C   UNL     1      11.734   2.305  -3.531  0.00  0.00    +0.179 C 
ATOM     28  C   UNL     1      10.306   2.527  -3.026  0.00  0.00    +0.136 C 
ENDBRANCH  16  17
ENDBRANCH  15  16
ENDBRANCH   2  15
TORSDOF 5
