REMARK  Name = ZINC00058284
REMARK  7 active torsions:
REMARK  status: ('A' for Active; 'I' for Inactive)
REMARK    1  A    between atoms: C_4  and  O_7
REMARK    2  A    between atoms: O_7  and  C_8
REMARK    3  A    between atoms: C_10  and  O_23
REMARK    4  A    between atoms: C_12  and  O_22
REMARK    5  A    between atoms: C_14  and  O_21
REMARK    6  A    between atoms: C_16  and  C_19
REMARK    7  A    between atoms: C_19  and  O_20
REMARK                            x       y       z     vdW  Elec       q    Type
REMARK                         _______ _______ _______ _____ _____    ______ ____
ROOT
ATOM      1  C   UNL     1      -1.145   3.475   0.026  0.00  0.00    +0.339 C 
ATOM      2  C   UNL     1      -2.544   4.041   0.285  0.00  0.00    +0.214 C 
ATOM      3  C   UNL     1      -2.486   5.571   0.232  0.00  0.00    +0.180 C 
ATOM      4  C   UNL     1      -1.927   6.002  -1.127  0.00  0.00    +0.177 C 
ATOM      5  C   UNL     1      -0.552   5.361  -1.331  0.00  0.00    +0.179 C 
ATOM      6  O   UNL     1      -0.672   3.940  -1.239  0.00  0.00    -0.331 OA
ENDROOT
BRANCH   4   7
ATOM      7  O   UNL     1      -2.812   5.575  -2.165  0.00  0.00    -0.386 OA
ATOM      8  H   UNL     1      -3.704   5.944  -2.098  0.00  0.00    +0.210 HD
ENDBRANCH   4   7
BRANCH   3   9
ATOM      9  O   UNL     1      -1.636   6.053   1.274  0.00  0.00    -0.386 OA
ATOM     10  H   UNL     1      -1.930   5.816   2.164  0.00  0.00    +0.210 HD
ENDBRANCH   3   9
BRANCH   2  11
ATOM     11  O   UNL     1      -3.446   3.562  -0.715  0.00  0.00    -0.383 OA
ATOM     12  H   UNL     1      -3.528   2.599  -0.742  0.00  0.00    +0.210 HD
ENDBRANCH   2  11
BRANCH   1  13
ATOM     13  O   UNL     1      -1.202   2.048   0.019  0.00  0.00    -0.461 OA
BRANCH  13  17
ATOM     14  C   UNL     1       2.396   0.030  -0.021  0.00  0.00    +0.000 A 
ATOM     15  C   UNL     1       1.208  -0.677  -0.013  0.00  0.00    +0.004 A 
ATOM     16  C   UNL     1       0.002  -0.004   0.002  0.00  0.00    +0.046 A 
ATOM     17  C   UNL     1      -0.017   1.383   0.010  0.00  0.00    +0.124 A 
ATOM     18  C   UNL     1       1.177   2.091   0.002  0.00  0.00    +0.046 A 
ATOM     19  C   UNL     1       2.380   1.413  -0.013  0.00  0.00    +0.004 A 
ENDBRANCH  13  17
ENDBRANCH   1  13
BRANCH   5  20
ATOM     20  C   UNL     1      -0.013   5.739  -2.713  0.00  0.00    +0.190 C 
BRANCH  20  21
ATOM     21  O   UNL     1       1.317   5.238  -2.858  0.00  0.00    -0.392 OA
ATOM     22  H   UNL     1       1.722   5.441  -3.712  0.00  0.00    +0.210 HD
ENDBRANCH  20  21
ENDBRANCH   5  20
TORSDOF 7
