REMARK  Name = ZINC40702020
REMARK  7 active torsions:
REMARK  status: ('A' for Active; 'I' for Inactive)
REMARK    1  A    between atoms: C_1  and  C_2
REMARK    2  A    between atoms: C_2  and  N_3
REMARK    3  A    between atoms: N_3  and  C_4
REMARK    4  A    between atoms: C_15  and  N_28
REMARK    5  A    between atoms: C_16  and  N_20
REMARK    6  A    between atoms: C_23  and  C_27
REMARK    7  A    between atoms: C_24  and  C_26
REMARK                            x       y       z     vdW  Elec       q    Type
REMARK                         _______ _______ _______ _____ _____    ______ ____
ROOT
ATOM      1  N   UNL     1       0.671  -0.555  -1.178  0.00  0.00    -0.285 N 
ATOM      2  C   UNL     1      -0.130  -0.723  -2.302  0.00  0.00    +0.129 A 
ATOM      3  C   UNL     1      -1.486  -0.391  -2.263  0.00  0.00    +0.104 A 
ATOM      4  C   UNL     1      -2.244  -0.579  -3.420  0.00  0.00    +0.150 A 
ATOM      5  N   UNL     1      -1.651  -1.064  -4.508  0.00  0.00    -0.221 NA
ATOM      6  C   UNL     1      -0.368  -1.366  -4.502  0.00  0.00    +0.200 A 
ATOM      7  N   UNL     1       0.385  -1.199  -3.433  0.00  0.00    -0.332 N 
ATOM      8  H   UNL     1       1.326  -1.429  -3.471  0.00  0.00    +0.168 HD
ENDROOT
BRANCH   1   9
ATOM      9  C   UNL     1       0.911  -1.632  -0.326  0.00  0.00    +0.043 A 
ATOM     10  C   UNL     1       0.068  -1.880   0.736  0.00  0.00    +0.024 A 
ATOM     11  C   UNL     1       0.299  -2.952   1.593  0.00  0.00    +0.002 A 
ATOM     12  C   UNL     1       1.361  -3.784   1.407  0.00  0.00    +0.008 A 
ATOM     13  C   UNL     1       2.244  -3.566   0.337  0.00  0.00    -0.016 A 
ATOM     14  C   UNL     1       2.017  -2.481  -0.546  0.00  0.00    +0.003 A 
ATOM     15  C   UNL     1       2.897  -2.268  -1.618  0.00  0.00    +0.010 A 
ATOM     16  C   UNL     1       3.954  -3.107  -1.800  0.00  0.00    +0.001 A 
ATOM     17  C   UNL     1       4.176  -4.178  -0.936  0.00  0.00    +0.001 A 
ATOM     18  C   UNL     1       3.349  -4.408   0.121  0.00  0.00    +0.008 A 
ENDBRANCH   1   9
BRANCH   4  19
ATOM     19  N   UNL     1      -3.599  -0.264  -3.435  0.00  0.00    -0.277 N 
ATOM     20  C   UNL     1      -4.342  -0.455  -4.591  0.00  0.00    +0.164 A 
ATOM     21  N   UNL     1      -3.941  -0.925  -5.753  0.00  0.00    -0.230 NA
ATOM     22  C   UNL     1      -4.781  -1.047  -6.766  0.00  0.00    +0.050 A 
ATOM     23  C   UNL     1      -6.064  -0.669  -6.551  0.00  0.00    +0.011 A 
ATOM     24  S   UNL     1      -5.978  -0.150  -4.845  0.00  0.00    -0.057 S 
ATOM     25  C   UNL     1      -7.241  -0.687  -7.492  0.00  0.00    +0.053 C 
ATOM     26  C   UNL     1      -4.331  -1.583  -8.100  0.00  0.00    +0.066 C 
ATOM     27  H   UNL     1      -4.024   0.089  -2.638  0.00  0.00    +0.156 HD
ENDBRANCH   4  19
BRANCH   3  28
ATOM     28  N   UNL     1      -2.070   0.118  -1.093  0.00  0.00    -0.353 N 
ATOM     29  H   UNL     1      -1.514   0.339  -0.329  0.00  0.00    +0.143 HD
ATOM     30  H   UNL     1      -3.030   0.250  -1.047  0.00  0.00    +0.143 HD
ENDBRANCH   3  28
BRANCH   1  32
ATOM     31  C   UNL     1       2.646   0.842  -1.534  0.00  0.00    +0.025 C 
ATOM     32  C   UNL     1       1.262   0.754  -0.889  0.00  0.00    +0.109 C 
ENDBRANCH   1  32
TORSDOF 4
