REMARK  Name = ZINC02385170
REMARK  9 active torsions:
REMARK  status: ('A' for Active; 'I' for Inactive)
REMARK    1  A    between atoms: C_1  and  C_2
REMARK    2  A    between atoms: C_2  and  C_4
REMARK    3  A    between atoms: C_2  and  N_12
REMARK    4  A    between atoms: C_4  and  C_5
REMARK    5  A    between atoms: C_5  and  C_6
REMARK    6  A    between atoms: C_13  and  C_15
REMARK    7  A    between atoms: N_26  and  N_29
REMARK    8  A    between atoms: C_27  and  N_28
REMARK    9  A    between atoms: C_30  and  C_31
REMARK                            x       y       z     vdW  Elec       q    Type
REMARK                         _______ _______ _______ _____ _____    ______ ____
ROOT
ATOM      1  C   UNL     1       6.168  -5.001   0.201  0.00  0.00    +0.105 A 
ATOM      2  C   UNL     1       5.808  -5.317   1.594  0.00  0.00    +0.124 A 
ATOM      3  C   UNL     1       5.755  -6.780   1.660  0.00  0.00    +0.183 A 
ATOM      4  N   UNL     1       5.453  -7.366   2.799  0.00  0.00    -0.224 NA
ATOM      5  C   UNL     1       5.197  -6.623   3.883  0.00  0.00    +0.092 A 
ATOM      6  C   UNL     1       4.873  -7.241   5.105  0.00  0.00    +0.030 A 
ATOM      7  C   UNL     1       4.615  -6.479   6.202  0.00  0.00    +0.002 A 
ATOM      8  C   UNL     1       4.665  -5.088   6.137  0.00  0.00    +0.002 A 
ATOM      9  C   UNL     1       4.974  -4.454   4.973  0.00  0.00    +0.030 A 
ATOM     10  C   UNL     1       5.248  -5.208   3.817  0.00  0.00    +0.090 A 
ATOM     11  N   UNL     1       5.554  -4.595   2.667  0.00  0.00    -0.241 NA
ATOM     12  N   UNL     1       6.063  -7.252   0.398  0.00  0.00    -0.198 N 
ATOM     13  C   UNL     1       6.299  -6.218  -0.459  0.00  0.00    +0.134 A 
ENDROOT
BRANCH   1  15
ATOM     14  N   UNL     1       5.298  -3.029  -0.927  0.00  0.00    -0.309 N 
ATOM     15  C   UNL     1       6.347  -3.670  -0.375  0.00  0.00    +0.250 C 
ATOM     16  O   UNL     1       7.443  -3.141  -0.357  0.00  0.00    -0.270 OA
ATOM     17  H   UNL     1       4.424  -3.451  -0.942  0.00  0.00    +0.149 HD
BRANCH  14  19
ATOM     18  C   UNL     1       5.969  -1.826  -2.948  0.00  0.00    +0.028 C 
ATOM     19  C   UNL     1       5.477  -1.695  -1.505  0.00  0.00    +0.070 C 
BRANCH  19  20
ATOM     20  C   UNL     1       4.142  -0.948  -1.488  0.00  0.00    +0.026 C 
BRANCH  20  21
ATOM     21  C   UNL     1       3.711  -0.707  -0.039  0.00  0.00    +0.037 C 
BRANCH  21  22
ATOM     22  C   UNL     1       2.396   0.029  -0.022  0.00  0.00    -0.047 A 
ATOM     23  C   UNL     1       1.208  -0.679  -0.014  0.00  0.00    +0.003 A 
ATOM     24  C   UNL     1       0.002  -0.004   0.002  0.00  0.00    +0.000 A 
ATOM     25  C   UNL     1      -0.017   1.378   0.010  0.00  0.00    +0.000 A 
ATOM     26  C   UNL     1       1.171   2.086   0.002  0.00  0.00    +0.000 A 
ATOM     27  C   UNL     1       2.377   1.411  -0.014  0.00  0.00    +0.003 A 
ENDBRANCH  21  22
ENDBRANCH  20  21
ENDBRANCH  19  20
ENDBRANCH  14  19
ENDBRANCH   1  15
BRANCH  13  28
ATOM     28  N   UNL     1       6.623  -6.359  -1.784  0.00  0.00    -0.342 N 
ATOM     29  H   UNL     1       6.779  -5.573  -2.331  0.00  0.00    +0.144 HD
ATOM     30  H   UNL     1       6.696  -7.244  -2.174  0.00  0.00    +0.144 HD
ENDBRANCH  13  28
BRANCH  12  31
ATOM     31  N   UNL     1       6.119  -8.607   0.046  0.00  0.00    -0.171 NA
ATOM     32  C   UNL     1       5.056  -9.208  -0.392  0.00  0.00    +0.142 C 
BRANCH  32  33
ATOM     33  C   UNL     1       5.115 -10.634  -0.763  0.00  0.00    +0.013 A 
ATOM     34  C   UNL     1       3.973 -11.296  -1.232  0.00  0.00    +0.012 A 
ATOM     35  C   UNL     1       4.083 -12.633  -1.571  0.00  0.00    +0.020 A 
ATOM     36  C   UNL     1       5.302 -13.270  -1.427  0.00  0.00    +0.111 A 
ATOM     37  N   UNL     1       6.361 -12.623  -0.977  0.00  0.00    -0.263 NA
ATOM     38  C   UNL     1       6.309 -11.350  -0.646  0.00  0.00    +0.120 A 
ENDBRANCH  32  33
ENDBRANCH  12  31
TORSDOF 8
