REMARK  Name = ZINC04927659
REMARK  8 active torsions:
REMARK  status: ('A' for Active; 'I' for Inactive)
REMARK    1  A    between atoms: C_1  and  C_2
REMARK    2  A    between atoms: C_5  and  C_8
REMARK    3  A    between atoms: C_9  and  S_19
REMARK    4  A    between atoms: C_11  and  C_13
REMARK    5  A    between atoms: S_19  and  C_20
REMARK    6  A    between atoms: C_20  and  C_21
REMARK    7  A    between atoms: N_23  and  C_24
REMARK    8  A    between atoms: C_24  and  C_25
REMARK                            x       y       z     vdW  Elec       q    Type
REMARK                         _______ _______ _______ _____ _____    ______ ____
ROOT
ATOM      1  C   UNL     1       0.058  -4.254  -0.021  0.00  0.00    +0.103 A 
ATOM      2  C   UNL     1       0.714  -5.064   0.885  0.00  0.00    +0.102 A 
ATOM      3  N   UNL     1       0.466  -6.356   0.505  0.00  0.00    -0.333 N 
ATOM      4  C   UNL     1      -0.327  -6.305  -0.612  0.00  0.00    +0.140 A 
ATOM      5  N   UNL     1      -0.565  -5.050  -0.910  0.00  0.00    -0.227 NA
ATOM      6  H   UNL     1       0.790  -7.157   0.945  0.00  0.00    +0.168 HD
ENDROOT
BRANCH   1  11
ATOM      7  C   UNL     1      -0.018   1.503   0.010  0.00  0.00    +0.044 C 
ATOM      8  C   UNL     1       0.002  -0.004   0.002  0.00  0.00    -0.050 A 
ATOM      9  C   UNL     1       0.006  -0.686  -1.202  0.00  0.00    +0.004 A 
ATOM     10  C   UNL     1       0.024  -2.066  -1.216  0.00  0.00    +0.010 A 
ATOM     11  C   UNL     1       0.039  -2.773  -0.013  0.00  0.00    +0.003 A 
ATOM     12  C   UNL     1       0.036  -2.079   1.197  0.00  0.00    +0.010 A 
ATOM     13  C   UNL     1       0.023  -0.699   1.198  0.00  0.00    +0.004 A 
ENDBRANCH   1  11
BRANCH   4  14
ATOM     14  C   UNL     1      -0.835  -7.475  -1.358  0.00  0.00    +0.017 A 
ATOM     15  C   UNL     1      -0.520  -8.768  -0.934  0.00  0.00    +0.011 A 
ATOM     16  C   UNL     1      -0.999  -9.856  -1.634  0.00  0.00    +0.001 A 
ATOM     17  C   UNL     1      -1.789  -9.668  -2.754  0.00  0.00    +0.000 A 
ATOM     18  C   UNL     1      -2.105  -8.390  -3.180  0.00  0.00    +0.001 A 
ATOM     19  C   UNL     1      -1.638  -7.294  -2.486  0.00  0.00    +0.011 A 
ENDBRANCH   4  14
BRANCH   2  20
ATOM     20  S   UNL     1       1.680  -4.538   2.261  0.00  0.00    -0.096 S 
BRANCH  20  21
ATOM     21  C   UNL     1       2.243  -6.087   3.020  0.00  0.00    +0.171 C 
BRANCH  21  22
ATOM     22  C   UNL     1       3.092  -5.776   4.226  0.00  0.00    +0.223 C 
ATOM     23  O   UNL     1       3.297  -4.624   4.542  0.00  0.00    -0.275 OA
ATOM     24  N   UNL     1       3.623  -6.779   4.952  0.00  0.00    -0.312 N 
ATOM     25  H   UNL     1       3.459  -7.701   4.700  0.00  0.00    +0.149 HD
BRANCH  24  26
ATOM     26  C   UNL     1       4.449  -6.477   6.125  0.00  0.00    +0.135 C 
BRANCH  26  27
ATOM     27  C   UNL     1       4.923  -7.784   6.764  0.00  0.00    +0.135 C 
ATOM     28  C   UNL     1       5.770  -7.487   8.028  0.00  0.00    +0.035 C 
ATOM     29  C   UNL     1       5.583  -8.807   8.824  0.00  0.00    +0.031 C 
ATOM     30  C   UNL     1       4.137  -9.208   8.460  0.00  0.00    +0.160 C 
ATOM     31  O   UNL     1       3.800  -8.546   7.234  0.00  0.00    -0.375 OA
ENDBRANCH  26  27
ENDBRANCH  24  26
ENDBRANCH  21  22
ENDBRANCH  20  21
ENDBRANCH   2  20
TORSDOF 7
