REMARK  Name = ZINC39011688
REMARK  3 active torsions:
REMARK  status: ('A' for Active; 'I' for Inactive)
REMARK    1  A    between atoms: C_2  and  C_11
REMARK    2  A    between atoms: N_12  and  N_13
REMARK    3  A    between atoms: C_14  and  C_16
REMARK                            x       y       z     vdW  Elec       q    Type
REMARK                         _______ _______ _______ _____ _____    ______ ____
ROOT
ATOM      1  C   UNL     1       1.170   3.565   0.009  0.00  0.00    +0.139 C 
ATOM      2  N   UNL     1       2.287   4.225   0.002  0.00  0.00    -0.188 NA
ENDROOT
BRANCH   1   4
ATOM      3  C   UNL     1      -0.017   1.377   0.010  0.00  0.00    +0.060 A 
ATOM      4  C   UNL     1       1.185   2.091   0.002  0.00  0.00    +0.012 A 
ATOM      5  C   UNL     1       2.401   1.403  -0.013  0.00  0.00    +0.030 A 
ATOM      6  C   UNL     1       2.412   0.023  -0.021  0.00  0.00    +0.065 A 
ATOM      7  C   UNL     1       1.220  -0.685  -0.013  0.00  0.00    +0.167 A 
ATOM      8  C   UNL     1       0.002  -0.004   0.002  0.00  0.00    +0.167 A 
ATOM      9  O   UNL     1      -1.010  -0.921   0.007  0.00  0.00    -0.453 OA
ATOM     10  C   UNL     1      -0.409  -2.158  -0.419  0.00  0.00    +0.466 C 
ATOM     11  O   UNL     1       0.967  -2.027  -0.018  0.00  0.00    -0.453 OA
ATOM     12 BR   UNL     1       4.031   2.362  -0.024  0.00  0.00    -0.050 Br
ENDBRANCH   1   4
BRANCH   2  13
ATOM     13  N   UNL     1       2.273   5.626   0.009  0.00  0.00    -0.205 N 
ATOM     14  C   UNL     1       3.433   6.312   0.002  0.00  0.00    +0.264 C 
ATOM     15  O   UNL     1       4.490   5.716  -0.011  0.00  0.00    -0.271 OA
ATOM     16  H   UNL     1       1.428   6.103   0.020  0.00  0.00    +0.177 HD
BRANCH  14  17
ATOM     17  C   UNL     1       3.417   7.819   0.010  0.00  0.00    +0.253 C 
ATOM     18  C   UNL     1       3.211   8.361  -1.394  0.00  0.00    +0.050 C 
ATOM     19  C   UNL     1       4.324   9.065  -1.632  0.00  0.00    +0.148 C 
ATOM     20  N   UNL     1       5.157   9.016  -0.572  0.00  0.00    -0.161 NA
ATOM     21  N   UNL     1       4.739   8.352   0.384  0.00  0.00    -0.169 NA
ATOM     22 BR   UNL     1       1.728   8.102  -2.538  0.00  0.00    -0.051 Br
ENDBRANCH  14  17
ENDBRANCH   2  13
TORSDOF 3
