REMARK  Name = ZINC35535492
REMARK  6 active torsions:
REMARK  status: ('A' for Active; 'I' for Inactive)
REMARK    1  A    between atoms: C_1  and  C_2
REMARK    2  A    between atoms: C_2  and  C_25
REMARK    3  A    between atoms: N_3  and  N_4
REMARK    4  A    between atoms: C_5  and  C_16
REMARK    5  A    between atoms: N_9  and  C_10
REMARK    6  A    between atoms: C_19  and  N_22
REMARK                            x       y       z     vdW  Elec       q    Type
REMARK                         _______ _______ _______ _____ _____    ______ ____
ROOT
ATOM      1  N   UNL     1       0.025  -0.017   2.256  0.00  0.00    -0.211 N 
ATOM      2  C   UNL     1       1.155   0.224   2.869  0.00  0.00    +0.082 A 
ATOM      3  C   UNL     1       1.131   0.909   4.108  0.00  0.00    +0.077 A 
ATOM      4  S   UNL     1      -0.622   1.181   4.329  0.00  0.00    -0.060 S 
ATOM      5  C   UNL     1      -1.174   0.402   2.818  0.00  0.00    +0.160 A 
ATOM      6  N   UNL     1      -2.412   0.259   2.354  0.00  0.00    -0.321 N 
ATOM      7  H   UNL     1      -2.564  -0.192   1.509  0.00  0.00    +0.148 HD
ENDROOT
BRANCH   6   8
ATOM      8  C   UNL     1      -3.546   0.783   3.118  0.00  0.00    +0.072 C 
ATOM      9  C   UNL     1      -3.977  -0.247   4.164  0.00  0.00    +0.022 C 
ATOM     10  C   UNL     1      -5.162   0.300   4.962  0.00  0.00    +0.002 C 
ATOM     11  C   UNL     1      -6.329   0.583   4.014  0.00  0.00    +0.000 C 
ATOM     12  C   UNL     1      -5.898   1.613   2.968  0.00  0.00    +0.002 C 
ATOM     13  C   UNL     1      -4.713   1.066   2.170  0.00  0.00    +0.022 C 
ENDBRANCH   6   8
BRANCH   2  14
ATOM     14  C   UNL     1       2.436  -0.212   2.278  0.00  0.00    +0.001 A 
ATOM     15  C   UNL     1       3.621   0.460   2.594  0.00  0.00    +0.012 A 
ATOM     16  C   UNL     1       4.813   0.047   2.038  0.00  0.00    +0.033 A 
ATOM     17  C   UNL     1       4.839  -1.030   1.169  0.00  0.00    +0.126 A 
ATOM     18  C   UNL     1       3.670  -1.701   0.851  0.00  0.00    +0.033 A 
ATOM     19  C   UNL     1       2.472  -1.303   1.404  0.00  0.00    +0.012 A 
BRANCH  17  20
ATOM     20  N   UNL     1       6.123  -1.468   0.577  0.00  0.00    +0.056 N 
ATOM     21  O   UNL     1       7.237  -0.832   0.876  0.00  0.00    -0.126 OA
ATOM     22  O   UNL     1       6.152  -2.492  -0.250  0.00  0.00    -0.126 OA
ENDBRANCH  17  20
ENDBRANCH   2  14
BRANCH   1  25
ATOM     23  C   UNL     1       0.002   1.553   0.024  0.00  0.00    +0.068 C 
ATOM     24  C   UNL     1       0.014   0.047  -0.007  0.00  0.00    +0.066 C 
ATOM     25  N   UNL     1       0.025  -0.639   1.126  0.00  0.00    -0.169 NA
BRANCH  24  26
ATOM     26  C   UNL     1       0.013  -0.636  -1.247  0.00  0.00    -0.002 A 
ATOM     27  C   UNL     1       0.018  -2.043  -1.282  0.00  0.00    +0.011 A 
ATOM     28  C   UNL     1       0.017  -2.692  -2.483  0.00  0.00    +0.016 A 
ATOM     29  C   UNL     1       0.011  -1.969  -3.668  0.00  0.00    +0.018 A 
ATOM     30  C   UNL     1       0.006  -0.581  -3.646  0.00  0.00    +0.016 A 
ATOM     31  C   UNL     1       0.002   0.087  -2.454  0.00  0.00    +0.011 A 
ATOM     32 BR   UNL     1       0.010  -2.881  -5.325  0.00  0.00    -0.050 Br
ENDBRANCH  24  26
ENDBRANCH   1  25
TORSDOF 5
