REMARK  Name = ZINC59119234
REMARK  7 active torsions:
REMARK  status: ('A' for Active; 'I' for Inactive)
REMARK    1  A    between atoms: C_1  and  C_2
REMARK    2  A    between atoms: C_2  and  C_4
REMARK    3  A    between atoms: C_2  and  N_11
REMARK    4  A    between atoms: N_14  and  C_15
REMARK    5  A    between atoms: C_15  and  C_16
REMARK    6  A    between atoms: C_16  and  C_18
REMARK    7  A    between atoms: C_16  and  O_26
REMARK                            x       y       z     vdW  Elec       q    Type
REMARK                         _______ _______ _______ _____ _____    ______ ____
ROOT
ATOM      1  N   UNL     1      -1.372  -0.511   0.012  0.00  0.00    -0.293 N 
ATOM      2  C   UNL     1      -2.051  -0.643  -1.145  0.00  0.00    +0.300 C 
ATOM      3  O   UNL     1      -1.522  -0.341  -2.197  0.00  0.00    -0.253 OA
ATOM      4  N   UNL     1      -3.315  -1.109  -1.135  0.00  0.00    -0.297 N 
ATOM      5  H   UNL     1      -1.794  -0.752   0.852  0.00  0.00    +0.151 HD
ATOM      6  H   UNL     1      -3.737  -1.350  -0.295  0.00  0.00    +0.150 HD
ENDROOT
BRANCH   1   8
ATOM      7  C   UNL     1      -0.019   1.526   0.010  0.00  0.00    +0.033 C 
ATOM      8  C   UNL     1       0.002  -0.004   0.002  0.00  0.00    +0.102 C 
BRANCH   8   9
ATOM      9  C   UNL     1       0.731  -0.503   1.223  0.00  0.00    -0.026 A 
ATOM     10  C   UNL     1       0.081  -0.558   2.442  0.00  0.00    +0.005 A 
ATOM     11  C   UNL     1       0.749  -1.016   3.562  0.00  0.00    +0.001 A 
ATOM     12  C   UNL     1       2.067  -1.419   3.464  0.00  0.00    +0.015 A 
ATOM     13  C   UNL     1       2.718  -1.365   2.245  0.00  0.00    +0.018 A 
ATOM     14  C   UNL     1       2.048  -0.911   1.123  0.00  0.00    +0.020 A 
ATOM     15 BR   UNL     1       4.522  -1.915   2.110  0.00  0.00    -0.050 Br
ENDBRANCH   8   9
ENDBRANCH   1   8
BRANCH   4  16
ATOM     16  C   UNL     1      -4.053  -1.252  -2.393  0.00  0.00    +0.141 C 
BRANCH  16  17
ATOM     17  C   UNL     1      -5.453  -1.797  -2.104  0.00  0.00    +0.162 C 
BRANCH  17  18
ATOM     18  C   UNL     1      -6.168  -2.060  -3.404  0.00  0.00    -0.015 A 
ATOM     19  C   UNL     1      -6.749  -1.014  -4.096  0.00  0.00    +0.009 A 
ATOM     20  C   UNL     1      -7.406  -1.253  -5.289  0.00  0.00    +0.041 A 
ATOM     21  C   UNL     1      -7.481  -2.540  -5.792  0.00  0.00    +0.158 A 
ATOM     22  C   UNL     1      -6.897  -3.589  -5.098  0.00  0.00    +0.159 A 
ATOM     23  C   UNL     1      -6.237  -3.346  -3.906  0.00  0.00    +0.047 A 
ATOM     24  F   UNL     1      -6.970  -4.846  -5.587  0.00  0.00    -0.202 F 
ATOM     25  F   UNL     1      -8.123  -2.774  -6.958  0.00  0.00    -0.202 F 
ENDBRANCH  17  18
BRANCH  17  26
ATOM     26  O   UNL     1      -6.189  -0.839  -1.341  0.00  0.00    -0.386 OA
ATOM     27  H   UNL     1      -6.300   0.014  -1.783  0.00  0.00    +0.210 HD
ENDBRANCH  17  26
ENDBRANCH  16  17
ENDBRANCH   4  16
TORSDOF 6
