REMARK  Name = ZINC13995329
REMARK  8 active torsions:
REMARK  status: ('A' for Active; 'I' for Inactive)
REMARK    1  A    between atoms: C_1  and  C_2
REMARK    2  A    between atoms: C_5  and  N_8
REMARK    3  A    between atoms: C_11  and  C_13
REMARK    4  A    between atoms: C_14  and  C_23
REMARK    5  A    between atoms: C_17  and  C_22
REMARK    6  A    between atoms: C_26  and  O_29
REMARK    7  A    between atoms: O_29  and  C_30
REMARK    8  A    between atoms: C_30  and  C_31
REMARK                            x       y       z     vdW  Elec       q    Type
REMARK                         _______ _______ _______ _____ _____    ______ ____
ROOT
ATOM      1  N   UNL     1      -0.306  -4.154   0.006  0.00  0.00    -0.218 N 
ATOM      2  C   UNL     1       0.662  -4.898   0.644  0.00  0.00    +0.133 A 
ATOM      3  C   UNL     1       0.472  -6.186   0.283  0.00  0.00    +0.033 A 
ATOM      4  C   UNL     1      -0.635  -6.230  -0.591  0.00  0.00    +0.067 A 
ATOM      5  N   UNL     1      -1.096  -5.022  -0.747  0.00  0.00    -0.170 NA
ATOM      6  C   UNL     1      -1.196  -7.473  -1.233  0.00  0.00    +0.068 C 
ATOM      7  C   UNL     1       1.227  -7.419   0.669  0.00  0.00    +0.112 C 
ATOM      8  S   UNL     1       2.982  -7.130   0.910  0.00  0.00    -0.135 S 
ATOM      9  C   UNL     1       3.119  -6.090   2.370  0.00  0.00    +0.130 C 
ATOM     10  C   UNL     1       2.610  -4.720   2.152  0.00  0.00    +0.231 C 
ATOM     11  O   UNL     1       3.252  -3.845   2.694  0.00  0.00    -0.274 OA
ATOM     12  N   UNL     1       1.584  -4.304   1.472  0.00  0.00    -0.269 N 
ATOM     13  C   UNL     1       4.591  -6.007   2.780  0.00  0.00    +0.029 C 
ATOM     14  H   UNL     1       1.433  -3.351   1.572  0.00  0.00    +0.156 HD
ENDROOT
BRANCH   1  19
ATOM     15  C   UNL     1      -0.979   1.468   0.394  0.00  0.00    +0.044 C 
ATOM     16  C   UNL     1      -0.801  -0.025   0.291  0.00  0.00    -0.050 A 
ATOM     17  C   UNL     1       0.466  -0.559   0.141  0.00  0.00    +0.005 A 
ATOM     18  C   UNL     1       0.633  -1.927   0.047  0.00  0.00    +0.028 A 
ATOM     19  C   UNL     1      -0.472  -2.766   0.102  0.00  0.00    +0.067 A 
ATOM     20  C   UNL     1      -1.743  -2.226   0.253  0.00  0.00    +0.028 A 
ATOM     21  C   UNL     1      -1.903  -0.858   0.352  0.00  0.00    +0.005 A 
ENDBRANCH   1  19
BRANCH   7  22
ATOM     22  C   UNL     1       1.054  -8.452  -0.414  0.00  0.00    -0.030 A 
ATOM     23  C   UNL     1       1.652  -8.267  -1.647  0.00  0.00    +0.008 A 
ATOM     24  C   UNL     1       1.494  -9.212  -2.642  0.00  0.00    +0.046 A 
ATOM     25  C   UNL     1       0.735 -10.348  -2.403  0.00  0.00    +0.121 A 
ATOM     26  C   UNL     1       0.135 -10.532  -1.165  0.00  0.00    +0.046 A 
ATOM     27  C   UNL     1       0.301  -9.586  -0.172  0.00  0.00    +0.008 A 
BRANCH  25  28
ATOM     28  O   UNL     1       0.577 -11.279  -3.380  0.00  0.00    -0.483 OA
BRANCH  28  29
ATOM     29  C   UNL     1      -0.218 -12.423  -3.064  0.00  0.00    +0.324 C 
BRANCH  29  30
ATOM     30  C   UNL     1      -0.280 -13.338  -4.260  0.00  0.00    +0.248 C 
ATOM     31  O   UNL     1       0.301 -13.040  -5.282  0.00  0.00    -0.272 OA
ATOM     32  N   UNL     1      -0.980 -14.488  -4.193  0.00  0.00    -0.327 N 
ATOM     33  H   UNL     1      -1.444 -14.727  -3.376  0.00  0.00    +0.145 HD
ATOM     34  H   UNL     1      -1.019 -15.078  -4.963  0.00  0.00    +0.145 HD
ENDBRANCH  29  30
ENDBRANCH  28  29
ENDBRANCH  25  28
ENDBRANCH   7  22
TORSDOF 5
