REMARK  Name = ZINC09433685
REMARK  7 active torsions:
REMARK  status: ('A' for Active; 'I' for Inactive)
REMARK    1  A    between atoms: C_1  and  C_2
REMARK    2  A    between atoms: C_8  and  C_9
REMARK    3  A    between atoms: C_8  and  N_68
REMARK    4  A    between atoms: C_9  and  N_10
REMARK    5  A    between atoms: C_11  and  C_13
REMARK    6  A    between atoms: N_23  and  C_31
REMARK    7  A    between atoms: C_24  and  C_26
REMARK                            x       y       z     vdW  Elec       q    Type
REMARK                         _______ _______ _______ _____ _____    ______ ____
ROOT
ATOM      1  C   UNL     1       1.611   2.217  -0.360  0.00  0.00    +0.131 C 
ATOM      2  C   UNL     1       2.638   1.698  -1.331  0.00  0.00    -0.021 A 
ATOM      3  C   UNL     1       3.679   2.499  -1.749  0.00  0.00    +0.005 A 
ATOM      4  C   UNL     1       4.637   1.995  -2.611  0.00  0.00    +0.000 A 
ATOM      5  C   UNL     1       4.560   0.686  -3.055  0.00  0.00    +0.001 A 
ATOM      6  C   UNL     1       3.518  -0.123  -2.650  0.00  0.00    +0.013 A 
ATOM      7  C   UNL     1       2.542   0.385  -1.798  0.00  0.00    +0.041 A 
ATOM      8  C   UNL     1       1.407  -0.451  -1.351  0.00  0.00    +0.248 C 
ATOM      9  O   UNL     1       1.421  -1.652  -1.537  0.00  0.00    -0.270 OA
ATOM     10  N   UNL     1       0.359   0.131  -0.737  0.00  0.00    -0.286 N 
ATOM     11  C   UNL     1       0.251   1.585  -0.648  0.00  0.00    +0.130 C 
ENDROOT
BRANCH  11  12
ATOM     12  C   UNL     1      -0.279   2.124  -1.952  0.00  0.00    +0.011 A 
ATOM     13  C   UNL     1      -1.181   3.113  -2.163  0.00  0.00    +0.013 A 
ATOM     14  C   UNL     1      -1.520   3.446  -3.461  0.00  0.00    +0.008 A 
ATOM     15  C   UNL     1      -0.948   2.765  -4.484  0.00  0.00    +0.045 A 
ATOM     16  S   UNL     1       0.112   1.618  -3.619  0.00  0.00    -0.100 S 
ENDBRANCH  11  12
BRANCH  10  17
ATOM     17  C   UNL     1      -0.688  -0.708  -0.150  0.00  0.00    +0.077 C 
ATOM     18  C   UNL     1      -0.077  -1.662   0.897  0.00  0.00    +0.022 C 
ATOM     19  C   UNL     1      -0.876  -2.978   0.724  0.00  0.00    +0.002 C 
ATOM     20  C   UNL     1      -1.077  -3.057  -0.810  0.00  0.00    +0.002 C 
ATOM     21  C   UNL     1      -1.324  -1.594  -1.235  0.00  0.00    +0.022 C 
ENDBRANCH  10  17
BRANCH   1  23
ATOM     22  N   UNL     1       1.294   4.476   0.596  0.00  0.00    -0.317 N 
ATOM     23  C   UNL     1       1.505   3.714  -0.495  0.00  0.00    +0.223 C 
ATOM     24  O   UNL     1       1.610   4.233  -1.587  0.00  0.00    -0.275 OA
ATOM     25  H   UNL     1       1.275   4.069   1.476  0.00  0.00    +0.149 HD
BRANCH  22  26
ATOM     26  C   UNL     1       1.094   5.920   0.453  0.00  0.00    +0.085 C 
BRANCH  26  27
ATOM     27  C   UNL     1       0.877   6.544   1.833  0.00  0.00    -0.059 C 
BRANCH  27  34
ATOM     28  C   UNL     1       2.159   8.307   3.613  0.00  0.00    -0.013 C 
ATOM     29  C   UNL     1       0.813   8.673   2.984  0.00  0.00    -0.072 C 
ATOM     30  C   UNL     1       0.743  10.188   2.775  0.00  0.00    -0.016 C 
ATOM     31  C   UNL     1      -0.597  10.547   2.127  0.00  0.00    -0.003 C 
ATOM     32  C   UNL     1      -0.736   9.787   0.805  0.00  0.00    -0.019 C 
ATOM     33  C   UNL     1      -0.623   8.285   1.071  0.00  0.00    -0.078 C 
ATOM     34  N   UNL     1       0.698   8.002   1.672  0.00  0.00    +0.382 N 
ATOM     35  H   UNL     1       1.431   8.361   1.049  0.00  0.00    -0.081 HD
ENDBRANCH  27  34
ENDBRANCH  26  27
ENDBRANCH  22  26
ENDBRANCH   1  23
TORSDOF 6
