REMARK  Name = ZINC63249884
REMARK  9 active torsions:
REMARK  status: ('A' for Active; 'I' for Inactive)
REMARK    1  A    between atoms: C_1  and  C_2
REMARK    2  A    between atoms: C_9  and  C_14
REMARK    3  A    between atoms: C_14  and  N_15
REMARK    4  A    between atoms: N_15  and  C_16
REMARK    5  A    between atoms: C_19  and  C_23
REMARK    6  A    between atoms: C_20  and  C_22
REMARK    7  A    between atoms: C_24  and  C_26
REMARK    8  A    between atoms: C_29  and  O_32
REMARK    9  A    between atoms: O_32  and  C_33
REMARK                            x       y       z     vdW  Elec       q    Type
REMARK                         _______ _______ _______ _____ _____    ______ ____
ROOT
ATOM      1  N   UNL     1       1.589  -6.373   3.298  0.00  0.00    -0.266 N 
ATOM      2  C   UNL     1       1.325  -6.919   4.502  0.00  0.00    +0.251 C 
ATOM      3  O   UNL     1       1.533  -8.102   4.691  0.00  0.00    -0.270 OA
ENDROOT
BRANCH   1   4
ATOM      4  C   UNL     1       2.016  -7.182   2.241  0.00  0.00    +0.037 A 
ATOM      5  C   UNL     1       2.831  -6.656   1.247  0.00  0.00    +0.024 A 
ATOM      6  C   UNL     1       3.251  -7.458   0.204  0.00  0.00    +0.005 A 
ATOM      7  C   UNL     1       2.861  -8.784   0.149  0.00  0.00    -0.047 A 
ATOM      8  C   UNL     1       2.049  -9.310   1.137  0.00  0.00    -0.046 A 
ATOM      9  C   UNL     1       1.631  -8.515   2.186  0.00  0.00    +0.027 A 
ATOM     10  C   UNL     1       1.626 -10.755   1.072  0.00  0.00    +0.044 C 
ATOM     11  C   UNL     1       3.321  -9.656  -0.991  0.00  0.00    +0.044 C 
ENDBRANCH   1   4
BRANCH   2  12
ATOM     12  C   UNL     1       0.783  -6.082   5.590  0.00  0.00    +0.037 A 
ATOM     13  C   UNL     1       0.167  -4.863   5.295  0.00  0.00    +0.016 A 
ATOM     14  C   UNL     1      -0.337  -4.085   6.314  0.00  0.00    +0.046 A 
ATOM     15  C   UNL     1      -0.233  -4.510   7.633  0.00  0.00    +0.120 A 
ATOM     16  C   UNL     1       0.380  -5.722   7.930  0.00  0.00    +0.046 A 
ATOM     17  C   UNL     1       0.881  -6.509   6.917  0.00  0.00    +0.016 A 
BRANCH  15  18
ATOM     18  O   UNL     1      -0.730  -3.740   8.633  0.00  0.00    -0.495 OA
ATOM     19  C   UNL     1      -0.589  -4.237   9.966  0.00  0.00    +0.277 C 
ENDBRANCH  15  18
ENDBRANCH   2  12
BRANCH   1  20
ATOM     20  C   UNL     1       1.429  -4.930   3.098  0.00  0.00    +0.131 C 
BRANCH  20  29
ATOM     21  C   UNL     1      -1.070   1.062   0.122  0.00  0.00    +0.044 C 
ATOM     22  C   UNL     1      -0.792  -0.419   0.137  0.00  0.00    -0.050 A 
ATOM     23  C   UNL     1      -0.709  -1.110  -1.073  0.00  0.00    +0.005 A 
ATOM     24  C   UNL     1      -0.461  -2.444  -1.139  0.00  0.00    +0.024 A 
ATOM     25  C   UNL     1      -0.274  -3.195   0.036  0.00  0.00    +0.040 A 
ATOM     26  N   UNL     1      -0.031  -4.503  -0.041  0.00  0.00    -0.284 N 
ATOM     27  C   UNL     1       0.154  -5.267   1.023  0.00  0.00    +0.226 C 
ATOM     28  O   UNL     1       0.373  -6.457   0.889  0.00  0.00    -0.275 OA
ATOM     29  C   UNL     1       0.092  -4.657   2.405  0.00  0.00    +0.116 C 
ATOM     30  C   UNL     1      -0.183  -3.169   2.498  0.00  0.00    -0.003 C 
ATOM     31  C   UNL     1      -0.356  -2.491   1.328  0.00  0.00    -0.007 A 
ATOM     32  C   UNL     1      -0.621  -1.052   1.326  0.00  0.00    +0.012 A 
ATOM     33  H   UNL     1       0.013  -4.914  -0.918  0.00  0.00    +0.155 HD
ENDBRANCH  20  29
ENDBRANCH   1  20
TORSDOF 5
