REMARK  Name = ZINC39844670
REMARK  8 active torsions:
REMARK  status: ('A' for Active; 'I' for Inactive)
REMARK    1  A    between atoms: C_6  and  C_7
REMARK    2  A    between atoms: C_9  and  S_21
REMARK    3  A    between atoms: C_10  and  N_12
REMARK    4  A    between atoms: N_12  and  C_13
REMARK    5  A    between atoms: C_13  and  C_14
REMARK    6  A    between atoms: C_14  and  C_15
REMARK    7  A    between atoms: C_15  and  N_16
REMARK    8  A    between atoms: S_21  and  C_24
REMARK                            x       y       z     vdW  Elec       q    Type
REMARK                         _______ _______ _______ _____ _____    ______ ____
ROOT
ATOM      1  C   UNL     1      -1.265  -0.763   0.011  0.00  0.00    +0.231 A 
ATOM      2  N   UNL     1      -1.374  -2.070   0.010  0.00  0.00    -0.188 NA
ATOM      3  C   UNL     1      -2.675  -2.394   0.019  0.00  0.00    +0.243 A 
ATOM      4  C   UNL     1      -3.388  -1.242   0.026  0.00  0.00    +0.233 A 
ATOM      5  O   UNL     1      -2.501  -0.227   0.026  0.00  0.00    -0.420 OA
ENDROOT
BRANCH   1  11
ATOM      6  C   UNL     1      -0.017   1.392   0.010  0.00  0.00    +0.016 A 
ATOM      7  C   UNL     1       1.169   2.095   0.002  0.00  0.00    +0.039 A 
ATOM      8  C   UNL     1       2.379   1.419  -0.013  0.00  0.00    +0.123 A 
ATOM      9  C   UNL     1       2.404   0.033  -0.021  0.00  0.00    +0.039 A 
ATOM     10  C   UNL     1       1.224  -0.680  -0.013  0.00  0.00    +0.016 A 
ATOM     11  C   UNL     1       0.002  -0.004   0.002  0.00  0.00    +0.037 A 
ATOM     12  F   UNL     1       3.538   2.112  -0.021  0.00  0.00    -0.205 F 
ENDBRANCH   1  11
BRANCH   3  13
ATOM     13  S   UNL     1      -3.339  -4.026   0.022  0.00  0.00    +0.047 S 
ATOM     14  O   UNL     1      -4.650  -3.933  -0.519  0.00  0.00    -0.163 OA
ATOM     15  O   UNL     1      -2.343  -4.871  -0.536  0.00  0.00    -0.163 OA
BRANCH  13  16
ATOM     16  C   UNL     1      -3.524  -4.511   1.706  0.00  0.00    +0.095 A 
ATOM     17  C   UNL     1      -2.485  -5.147   2.360  0.00  0.00    +0.028 A 
ATOM     18  C   UNL     1      -2.629  -5.526   3.681  0.00  0.00    +0.017 A 
ATOM     19  C   UNL     1      -3.813  -5.270   4.349  0.00  0.00    +0.018 A 
ATOM     20  C   UNL     1      -4.852  -4.633   3.695  0.00  0.00    +0.017 A 
ATOM     21  C   UNL     1      -4.705  -4.249   2.375  0.00  0.00    +0.028 A 
ATOM     22 BR   UNL     1      -4.011  -5.789   6.157  0.00  0.00    -0.050 Br
ENDBRANCH  13  16
ENDBRANCH   3  13
BRANCH   4  23
ATOM     23  N   UNL     1      -4.774  -1.128   0.036  0.00  0.00    -0.312 N 
ATOM     24  H   UNL     1      -5.327  -1.925   0.039  0.00  0.00    +0.149 HD
BRANCH  23  25
ATOM     25  C   UNL     1      -5.400   0.197   0.042  0.00  0.00    +0.106 C 
BRANCH  25  26
ATOM     26  C   UNL     1      -6.922   0.041   0.053  0.00  0.00    +0.040 C 
BRANCH  26  27
ATOM     27  C   UNL     1      -7.576   1.425   0.060  0.00  0.00    +0.124 C 
BRANCH  27  28
ATOM     28  N   UNL     1      -9.034   1.276   0.070  0.00  0.00    -0.338 N 
ATOM     29  C   UNL     1      -9.849   1.189  -1.026  0.00  0.00    +0.104 A 
ATOM     30  C   UNL     1     -11.108   1.061  -0.565  0.00  0.00    +0.101 A 
ATOM     31  N   UNL     1     -11.063   1.070   0.775  0.00  0.00    -0.352 N 
ATOM     32  C   UNL     1      -9.823   1.193   1.163  0.00  0.00    +0.173 A 
ATOM     33  H   UNL     1     -11.830   0.993   1.364  0.00  0.00    +0.166 HD
ENDBRANCH  27  28
ENDBRANCH  26  27
ENDBRANCH  25  26
ENDBRANCH  23  25
ENDBRANCH   4  23
TORSDOF 8
