REMARK  Name = ZINC13132349
REMARK  5 active torsions:
REMARK  status: ('A' for Active; 'I' for Inactive)
REMARK    1  A    between atoms: C_1  and  C_2
REMARK    2  A    between atoms: C_2  and  C_3
REMARK    3  A    between atoms: C_6  and  C_9
REMARK    4  A    between atoms: C_12  and  C_21
REMARK    5  A    between atoms: C_24  and  C_27
REMARK                            x       y       z     vdW  Elec       q    Type
REMARK                         _______ _______ _______ _____ _____    ______ ____
ROOT
ATOM      1  C   UNL     1       2.797  -1.919   4.683  0.00  0.00    +0.106 C 
ATOM      2  C   UNL     1       3.040  -0.755   5.651  0.00  0.00    +0.058 C 
ATOM      3  C   UNL     1       3.830  -1.250   6.869  0.00  0.00    +0.143 C 
ATOM      4  N   UNL     1       3.189  -2.459   7.386  0.00  0.00    -0.224 N 
ATOM      5  C   UNL     1       2.329  -3.230   6.679  0.00  0.00    +0.216 A 
ATOM      6  N   UNL     1       1.948  -4.220   7.441  0.00  0.00    -0.180 NA
ATOM      7  C   UNL     1       2.543  -4.116   8.639  0.00  0.00    +0.233 A 
ATOM      8  N   UNL     1       3.312  -3.050   8.644  0.00  0.00    -0.132 NA
ATOM      9  N   UNL     1       2.373  -4.998   9.707  0.00  0.00    -0.326 N 
ATOM     10  N   UNL     1       1.978  -2.939   5.366  0.00  0.00    -0.307 N 
ATOM     11  H   UNL     1       1.784  -5.763   9.615  0.00  0.00    +0.145 HD
ATOM     12  H   UNL     1       2.844  -4.847  10.541  0.00  0.00    +0.145 HD
ATOM     13  H   UNL     1       1.235  -3.380   4.924  0.00  0.00    +0.149 HD
ENDROOT
BRANCH   3  14
ATOM     14  C   UNL     1       3.837  -0.183   7.934  0.00  0.00    -0.023 A 
ATOM     15  C   UNL     1       2.645   0.261   8.474  0.00  0.00    +0.006 A 
ATOM     16  C   UNL     1       2.651   1.240   9.451  0.00  0.00    +0.004 A 
ATOM     17  C   UNL     1       3.850   1.773   9.887  0.00  0.00    -0.050 A 
ATOM     18  C   UNL     1       5.042   1.327   9.347  0.00  0.00    +0.004 A 
ATOM     19  C   UNL     1       5.036   0.346   8.373  0.00  0.00    +0.006 A 
ATOM     20  C   UNL     1       3.857   2.840  10.951  0.00  0.00    +0.044 C 
ENDBRANCH   3  14
BRANCH   1  24
ATOM     21  C   UNL     1       0.731  -0.503   1.223  0.00  0.00    -0.048 A 
ATOM     22  C   UNL     1       2.097  -0.710   1.176  0.00  0.00    +0.004 A 
ATOM     23  C   UNL     1       2.766  -1.167   2.296  0.00  0.00    +0.006 A 
ATOM     24  C   UNL     1       2.068  -1.419   3.463  0.00  0.00    -0.027 A 
ATOM     25  C   UNL     1       0.702  -1.212   3.510  0.00  0.00    +0.006 A 
ATOM     26  C   UNL     1       0.034  -0.750   2.391  0.00  0.00    +0.004 A 
BRANCH  21  28
ATOM     27  C   UNL     1      -0.019   1.526   0.010  0.00  0.00    +0.009 C 
ATOM     28  C   UNL     1       0.002  -0.004   0.002  0.00  0.00    +0.032 C 
ENDBRANCH  21  28
ENDBRANCH   1  24
TORSDOF 3
