REMARK  Name = ZINC12501809
REMARK  8 active torsions:
REMARK  status: ('A' for Active; 'I' for Inactive)
REMARK    1  A    between atoms: C_1  and  C_2
REMARK    2  A    between atoms: C_2  and  C_4
REMARK    3  A    between atoms: C_2  and  O_20
REMARK    4  A    between atoms: N_6  and  N_7
REMARK    5  A    between atoms: N_7  and  C_8
REMARK    6  A    between atoms: C_8  and  N_10
REMARK    7  A    between atoms: C_11  and  C_13
REMARK    8  A    between atoms: O_20  and  C_21
REMARK                            x       y       z     vdW  Elec       q    Type
REMARK                         _______ _______ _______ _____ _____    ______ ____
ROOT
ATOM      1  C   UNL     1       4.638   4.038   0.223  0.00  0.00    +0.270 C 
ATOM      2  O   UNL     1       5.703   3.478   0.378  0.00  0.00    -0.270 OA
ATOM      3  N   UNL     1       3.492   3.331   0.268  0.00  0.00    -0.232 N 
ATOM      4  H   UNL     1       2.640   3.779   0.144  0.00  0.00    +0.173 HD
ENDROOT
BRANCH   1   6
ATOM      5  C   UNL     1       3.897   6.214   1.153  0.00  0.00    +0.062 C 
ATOM      6  C   UNL     1       4.597   5.525  -0.020  0.00  0.00    +0.257 C 
BRANCH   6   7
ATOM      7  O   UNL     1       5.930   6.025  -0.140  0.00  0.00    -0.478 OA
BRANCH   7   8
ATOM      8  C   UNL     1       6.098   7.173  -0.849  0.00  0.00    +0.140 A 
ATOM      9  C   UNL     1       4.992   7.864  -1.322  0.00  0.00    +0.048 A 
ATOM     10  C   UNL     1       5.164   9.032  -2.039  0.00  0.00    +0.023 A 
ATOM     11  C   UNL     1       6.438   9.508  -2.294  0.00  0.00    +0.043 A 
ATOM     12  C   UNL     1       7.543   8.818  -1.828  0.00  0.00    +0.043 A 
ATOM     13  C   UNL     1       7.375   7.651  -1.106  0.00  0.00    +0.084 A 
ATOM     14 CL   UNL     1       8.761   6.784  -0.521  0.00  0.00    -0.080 Cl
ATOM     15 CL   UNL     1       6.651  10.973  -3.201  0.00  0.00    -0.083 Cl
ENDBRANCH   7   8
ENDBRANCH   6   7
ENDBRANCH   1   6
BRANCH   3  16
ATOM     16  N   UNL     1       3.530   1.949   0.494  0.00  0.00    -0.245 N 
ATOM     17  H   UNL     1       4.382   1.501   0.618  0.00  0.00    +0.172 HD
BRANCH  16  18
ATOM     18  C   UNL     1       2.384   1.241   0.539  0.00  0.00    +0.153 C 
ATOM     19  S   UNL     1       2.431  -0.448   0.815  0.00  0.00    -0.017 S 
BRANCH  18  20
ATOM     20  N   UNL     1       1.201   1.863   0.367  0.00  0.00    -0.263 N 
ATOM     21  C   UNL     1       0.055   1.156   0.413  0.00  0.00    +0.250 C 
ATOM     22  O   UNL     1       0.088  -0.043   0.609  0.00  0.00    -0.270 OA
ATOM     23  H   UNL     1       1.174   2.821   0.211  0.00  0.00    +0.157 HD
BRANCH  21  24
ATOM     24  C   UNL     1      -1.242   1.837   0.218  0.00  0.00    +0.037 A 
ATOM     25  C   UNL     1      -1.283   3.216  -0.001  0.00  0.00    +0.014 A 
ATOM     26  C   UNL     1      -2.496   3.845  -0.187  0.00  0.00    +0.021 A 
ATOM     27  C   UNL     1      -3.672   3.114  -0.145  0.00  0.00    +0.041 A 
ATOM     28  C   UNL     1      -3.638   1.747   0.077  0.00  0.00    +0.021 A 
ATOM     29  C   UNL     1      -2.431   1.106   0.259  0.00  0.00    +0.014 A 
ATOM     30 CL   UNL     1      -5.196   3.914  -0.374  0.00  0.00    -0.084 Cl
ENDBRANCH  21  24
ENDBRANCH  18  20
ENDBRANCH  16  18
ENDBRANCH   3  16
TORSDOF 7
