REMARK  Name = ZINC65508866
REMARK  6 active torsions:
REMARK  status: ('A' for Active; 'I' for Inactive)
REMARK    1  A    between atoms: C_1  and  C_2
REMARK    2  A    between atoms: C_3  and  C_17
REMARK    3  A    between atoms: C_4  and  C_16
REMARK    4  A    between atoms: N_5  and  C_7
REMARK    5  A    between atoms: C_9  and  O_15
REMARK    6  A    between atoms: C_22  and  O_23
REMARK                            x       y       z     vdW  Elec       q    Type
REMARK                         _______ _______ _______ _____ _____    ______ ____
ROOT
ATOM      1  C   UNL     1      -0.368   1.474   0.036  0.00  0.00    +0.068 C 
ATOM      2  C   UNL     1      -0.149  -0.016   0.013  0.00  0.00    +0.068 A 
ATOM      3  C   UNL     1      -0.151  -0.835  -1.134  0.00  0.00    +0.029 A 
ATOM      4  C   UNL     1       0.083  -2.116  -0.726  0.00  0.00    +0.050 A 
ATOM      5  N   UNL     1       0.224  -2.097   0.618  0.00  0.00    -0.236 N 
ATOM      6  N   UNL     1       0.081  -0.774   1.054  0.00  0.00    -0.171 NA
ATOM      7  C   UNL     1       0.167  -3.331  -1.613  0.00  0.00    +0.066 C 
ENDROOT
BRANCH   5   8
ATOM      8  C   UNL     1       0.476  -3.209   1.434  0.00  0.00    +0.072 A 
ATOM      9  C   UNL     1       1.399  -4.167   1.036  0.00  0.00    +0.076 A 
ATOM     10  C   UNL     1       1.647  -5.265   1.844  0.00  0.00    +0.157 A 
ATOM     11  C   UNL     1       0.972  -5.406   3.050  0.00  0.00    +0.200 A 
ATOM     12  C   UNL     1       0.052  -4.449   3.446  0.00  0.00    +0.164 A 
ATOM     13  C   UNL     1      -0.193  -3.349   2.642  0.00  0.00    +0.069 A 
ATOM     14  F   UNL     1      -0.603  -4.587   4.619  0.00  0.00    -0.202 F 
ATOM     15  F   UNL     1       1.214  -6.476   3.838  0.00  0.00    -0.199 F 
BRANCH  10  16
ATOM     16  O   UNL     1       2.550  -6.205   1.456  0.00  0.00    -0.504 OA
ATOM     17  H   UNL     1       3.452  -6.029   1.754  0.00  0.00    +0.292 HD
ENDBRANCH  10  16
ENDBRANCH   5   8
BRANCH   3  18
ATOM     18  C   UNL     1      -0.368  -0.385  -2.532  0.00  0.00    +0.027 A 
ATOM     19  C   UNL     1       0.714  -0.003  -3.320  0.00  0.00    +0.012 A 
ATOM     20  C   UNL     1       0.507   0.414  -4.619  0.00  0.00    +0.001 A 
ATOM     21  C   UNL     1      -0.773   0.455  -5.142  0.00  0.00    +0.004 A 
ATOM     22  C   UNL     1      -1.855   0.078  -4.368  0.00  0.00    +0.046 A 
ATOM     23  C   UNL     1      -1.660  -0.348  -3.064  0.00  0.00    +0.125 A 
BRANCH  23  24
ATOM     24  O   UNL     1      -2.722  -0.724  -2.304  0.00  0.00    -0.506 OA
ATOM     25  H   UNL     1      -3.122  -0.001  -1.802  0.00  0.00    +0.292 HD
ENDBRANCH  23  24
ENDBRANCH   3  18
TORSDOF 4
