REMARK  Name = ZINC36597677
REMARK  15 active torsions:
REMARK  status: ('A' for Active; 'I' for Inactive)
REMARK    1  A    between atoms: C_1  and  C_2
REMARK    2  A    between atoms: C_5  and  C_7
REMARK    3  A    between atoms: C_7  and  N_8
REMARK    4  A    between atoms: N_8  and  C_9
REMARK    5  A    between atoms: C_9  and  C_11
REMARK    6  A    between atoms: C_9  and  C_19
REMARK    7  A    between atoms: C_15  and  O_17
REMARK    8  A    between atoms: O_17  and  C_18
REMARK    9  A    between atoms: N_21  and  C_22
REMARK   10  A    between atoms: C_22  and  C_23
REMARK   11  A    between atoms: C_22  and  C_24
REMARK   12  A    between atoms: C_22  and  C_25
REMARK   13  A    between atoms: C_26  and  C_28
REMARK   14  A    between atoms: C_32  and  O_35
REMARK   15  A    between atoms: C_33  and  O_34
REMARK                            x       y       z     vdW  Elec       q    Type
REMARK                         _______ _______ _______ _____ _____    ______ ____
ROOT
ATOM      1  N   UNL     1       2.926  -4.767  -0.843  0.00  0.00    -0.275 N 
ATOM      2  C   UNL     1       1.766  -4.761  -0.157  0.00  0.00    +0.252 C 
ATOM      3  O   UNL     1       0.945  -5.639  -0.342  0.00  0.00    -0.270 OA
ENDROOT
BRANCH   2   4
ATOM      4  C   UNL     1       1.491  -3.688   0.818  0.00  0.00    +0.082 A 
ATOM      5  C   UNL     1       1.580  -2.347   0.431  0.00  0.00    +0.017 A 
ATOM      6  C   UNL     1       1.322  -1.348   1.344  0.00  0.00    +0.005 A 
ATOM      7  C   UNL     1       0.975  -1.664   2.647  0.00  0.00    +0.049 A 
ATOM      8  C   UNL     1       0.884  -2.986   3.046  0.00  0.00    +0.159 A 
ATOM      9  C   UNL     1       1.135  -4.007   2.133  0.00  0.00    +0.171 A 
BRANCH   9  10
ATOM     10  O   UNL     1       1.041  -5.305   2.519  0.00  0.00    -0.503 OA
ATOM     11  H   UNL     1       1.866  -5.674   2.863  0.00  0.00    +0.292 HD
ENDBRANCH   9  10
BRANCH   8  12
ATOM     12  O   UNL     1       0.543  -3.289   4.327  0.00  0.00    -0.503 OA
ATOM     13  H   UNL     1      -0.409  -3.386   4.468  0.00  0.00    +0.292 HD
ENDBRANCH   8  12
ENDBRANCH   2   4
BRANCH   1  14
ATOM     14  C   UNL     1       3.251  -5.894  -1.722  0.00  0.00    +0.183 C 
BRANCH  14  19
ATOM     15  C   UNL     1       4.723  -9.664   1.288  0.00  0.00    +0.086 C 
ATOM     16  C   UNL     1       3.871  -8.813   0.383  0.00  0.00    +0.102 A 
ATOM     17  C   UNL     1       2.609  -9.086   0.005  0.00  0.00    +0.045 A 
ATOM     18  C   UNL     1       2.196  -8.029  -0.838  0.00  0.00    +0.046 A 
ATOM     19  C   UNL     1       3.230  -7.173  -0.926  0.00  0.00    +0.122 A 
ATOM     20  O   UNL     1       4.240  -7.650  -0.179  0.00  0.00    -0.463 OA
ENDBRANCH  14  19
ENDBRANCH   1  14
BRANCH   1  21
ATOM     21  C   UNL     1       3.861  -3.648  -0.711  0.00  0.00    +0.193 C 
BRANCH  21  22
ATOM     22  C   UNL     1       4.087  -3.019  -2.062  0.00  0.00    -0.015 A 
ATOM     23  C   UNL     1       3.200  -3.264  -3.094  0.00  0.00    +0.006 A 
ATOM     24  C   UNL     1       3.405  -2.688  -4.335  0.00  0.00    +0.004 A 
ATOM     25  C   UNL     1       4.495  -1.867  -4.545  0.00  0.00    +0.045 A 
ATOM     26  C   UNL     1       5.386  -1.620  -3.511  0.00  0.00    +0.120 A 
ATOM     27  C   UNL     1       5.176  -2.194  -2.265  0.00  0.00    +0.051 A 
BRANCH  26  28
ATOM     28  O   UNL     1       6.460  -0.813  -3.716  0.00  0.00    -0.495 OA
ATOM     29  C   UNL     1       6.610  -0.252  -5.022  0.00  0.00    +0.277 C 
ENDBRANCH  26  28
ENDBRANCH  21  22
BRANCH  21  30
ATOM     30  C   UNL     1       5.173  -4.151  -0.166  0.00  0.00    +0.239 C 
ATOM     31  O   UNL     1       5.485  -5.314  -0.314  0.00  0.00    -0.273 OA
ATOM     32  N   UNL     1       6.000  -3.310   0.486  0.00  0.00    -0.309 N 
ATOM     33  H   UNL     1       5.750  -2.380   0.605  0.00  0.00    +0.149 HD
BRANCH  32  34
ATOM     34  C   UNL     1       7.275  -3.799   1.016  0.00  0.00    +0.026 C 
ATOM     35  C   UNL     1       8.129  -4.341  -0.131  0.00  0.00    +0.031 C 
ATOM     36  C   UNL     1       8.015  -2.651   1.705  0.00  0.00    +0.031 C 
ATOM     37  C   UNL     1       7.011  -4.916   2.028  0.00  0.00    +0.031 C 
ENDBRANCH  32  34
ENDBRANCH  21  30
ENDBRANCH   1  21
TORSDOF 10
