REMARK  Name = ZINC33960195
REMARK  12 active torsions:
REMARK  status: ('A' for Active; 'I' for Inactive)
REMARK    1  A    between atoms: C_1  and  C_2
REMARK    2  A    between atoms: C_2  and  N_3
REMARK    3  A    between atoms: N_3  and  C_4
REMARK    4  A    between atoms: N_3  and  C_6
REMARK    5  A    between atoms: C_4  and  C_5
REMARK    6  A    between atoms: C_9  and  C_12
REMARK    7  A    between atoms: N_13  and  N_14
REMARK    8  A    between atoms: C_17  and  C_20
REMARK    9  A    between atoms: C_24  and  S_26
REMARK   10  A    between atoms: S_26  and  N_29
REMARK   11  A    between atoms: C_31  and  C_38
REMARK   12  A    between atoms: C_34  and  C_37
REMARK                            x       y       z     vdW  Elec       q    Type
REMARK                         _______ _______ _______ _____ _____    ______ ____
ROOT
ATOM      1  N   UNL     1       8.293  -2.002   1.993  0.00  0.00    -0.215 N 
ATOM      2  C   UNL     1       8.962  -2.465   3.113  0.00  0.00    +0.178 A 
ATOM      3  N   UNL     1      10.248  -2.723   3.272  0.00  0.00    -0.224 NA
ATOM      4  C   UNL     1      10.722  -3.166   4.427  0.00  0.00    +0.080 A 
ATOM      5  C   UNL     1       9.865  -3.360   5.474  0.00  0.00    +0.077 A 
ATOM      6  S   UNL     1       8.316  -2.866   4.731  0.00  0.00    -0.059 S 
ATOM      7  H   UNL     1       8.782  -1.825   1.174  0.00  0.00    +0.176 HD
ENDROOT
BRANCH   4   8
ATOM      8  C   UNL     1      12.170  -3.449   4.582  0.00  0.00    +0.003 A 
ATOM      9  C   UNL     1      12.664  -3.921   5.797  0.00  0.00    +0.010 A 
ATOM     10  C   UNL     1      14.012  -4.183   5.936  0.00  0.00    +0.003 A 
ATOM     11  C   UNL     1      14.872  -3.978   4.872  0.00  0.00    +0.028 A 
ATOM     12  C   UNL     1      14.387  -3.509   3.664  0.00  0.00    +0.106 A 
ATOM     13  C   UNL     1      13.040  -3.250   3.512  0.00  0.00    +0.038 A 
BRANCH  12  14
ATOM     14  S   UNL     1      15.490  -3.250   2.315  0.00  0.00    +0.061 S 
ATOM     15  O   UNL     1      14.875  -2.291   1.465  0.00  0.00    -0.153 OA
ATOM     16  O   UNL     1      16.780  -3.054   2.877  0.00  0.00    -0.153 OA
BRANCH  14  17
ATOM     17  N   UNL     1      15.558  -4.666   1.458  0.00  0.00    -0.176 NA
ATOM     18  C   UNL     1      16.552  -5.696   1.792  0.00  0.00    +0.112 C 
ATOM     19  C   UNL     1      15.826  -7.026   2.017  0.00  0.00    +0.002 C 
ATOM     20  C   UNL     1      14.972  -7.351   0.789  0.00  0.00    +0.009 C 
ATOM     21  C   UNL     1      13.922  -6.256   0.592  0.00  0.00    +0.002 C 
ATOM     22  C   UNL     1      14.621  -4.919   0.355  0.00  0.00    +0.112 C 
ATOM     23  C   UNL     1      13.047  -6.156   1.844  0.00  0.00    +0.009 C 
ATOM     24  C   UNL     1      16.855  -8.138   2.233  0.00  0.00    +0.009 C 
ENDBRANCH  14  17
ENDBRANCH  12  14
ENDBRANCH   4   8
BRANCH   1  26
ATOM     25  C   UNL     1       6.282  -1.352   0.992  0.00  0.00    +0.138 C 
ATOM     26  N   UNL     1       6.909  -1.787   2.042  0.00  0.00    -0.188 NA
BRANCH  25  30
ATOM     27  C   UNL     1       2.089  -0.703   1.140  0.00  0.00    +0.030 A 
ATOM     28  C   UNL     1       2.789  -0.449  -0.035  0.00  0.00    +0.024 A 
ATOM     29  C   UNL     1       4.149  -0.658  -0.086  0.00  0.00    +0.011 A 
ATOM     30  C   UNL     1       4.826  -1.127   1.043  0.00  0.00    -0.005 A 
ATOM     31  C   UNL     1       4.119  -1.381   2.222  0.00  0.00    +0.011 A 
ATOM     32  C   UNL     1       2.760  -1.164   2.268  0.00  0.00    +0.024 A 
BRANCH  27  33
ATOM     33  N   UNL     1       0.711  -0.489   1.189  0.00  0.00    -0.330 N 
BRANCH  33  35
ATOM     34  C   UNL     1      -0.019   1.526   0.010  0.00  0.00    +0.024 C 
ATOM     35  C   UNL     1       0.002  -0.004   0.002  0.00  0.00    +0.102 C 
ENDBRANCH  33  35
BRANCH  33  36
ATOM     36  C   UNL     1      -0.028  -0.750   2.427  0.00  0.00    +0.102 C 
ATOM     37  C   UNL     1      -0.511  -2.202   2.437  0.00  0.00    +0.024 C 
ENDBRANCH  33  36
ENDBRANCH  27  33
ENDBRANCH  25  30
ENDBRANCH   1  26
TORSDOF 8
