REMARK  Name = ZINC56911679
REMARK  5 active torsions:
REMARK  status: ('A' for Active; 'I' for Inactive)
REMARK    1  A    between atoms: C_1  and  C_2
REMARK    2  A    between atoms: C_5  and  N_8
REMARK    3  A    between atoms: C_9  and  N_30
REMARK    4  A    between atoms: C_16  and  C_18
REMARK    5  A    between atoms: C_18  and  C_24
REMARK                            x       y       z     vdW  Elec       q    Type
REMARK                         _______ _______ _______ _____ _____    ______ ____
ROOT
ATOM      1  N   UNL     1       1.869  -4.632  -0.254  0.00  0.00    -0.215 N 
ATOM      2  C   UNL     1       2.215  -5.531   0.707  0.00  0.00    +0.146 A 
ATOM      3  C   UNL     1       1.630  -6.718   0.386  0.00  0.00    +0.037 A 
ATOM      4  C   UNL     1       0.911  -6.537  -0.797  0.00  0.00    +0.087 A 
ATOM      5  N   UNL     1       1.049  -5.290  -1.179  0.00  0.00    -0.168 NA
ATOM      6  C   UNL     1       0.256  -7.844  -1.167  0.00  0.00    +0.165 C 
ATOM      7  N   UNL     1       0.615  -8.829  -0.142  0.00  0.00    -0.290 N 
ATOM      8  C   UNL     1       1.471  -8.148   0.834  0.00  0.00    +0.149 C 
ATOM      9  C   UNL     1       0.230 -10.120  -0.105  0.00  0.00    +0.227 C 
ATOM     10  O   UNL     1       0.672 -10.861   0.748  0.00  0.00    -0.275 OA
ENDROOT
BRANCH   1  15
ATOM     11  C   UNL     1       3.448   0.815  -0.463  0.00  0.00    +0.044 C 
ATOM     12  C   UNL     1       3.029  -0.632  -0.408  0.00  0.00    -0.050 A 
ATOM     13  C   UNL     1       2.880  -1.352  -1.578  0.00  0.00    +0.005 A 
ATOM     14  C   UNL     1       2.495  -2.678  -1.530  0.00  0.00    +0.028 A 
ATOM     15  C   UNL     1       2.260  -3.287  -0.305  0.00  0.00    +0.068 A 
ATOM     16  C   UNL     1       2.411  -2.561   0.868  0.00  0.00    +0.028 A 
ATOM     17  C   UNL     1       2.801  -1.237   0.814  0.00  0.00    +0.005 A 
ENDBRANCH   1  15
BRANCH   9  18
ATOM     18  C   UNL     1      -0.750 -10.644  -1.123  0.00  0.00    +0.076 C 
ATOM     19  C   UNL     1      -0.920 -12.156  -0.941  0.00  0.00    +0.049 C 
ATOM     20  C   UNL     1      -1.514 -12.431   0.443  0.00  0.00    +0.161 C 
ATOM     21  O   UNL     1      -2.760 -11.742   0.571  0.00  0.00    -0.380 OA
ATOM     22  C   UNL     1      -2.655 -10.321   0.456  0.00  0.00    +0.161 C 
ATOM     23  C   UNL     1      -2.107  -9.961  -0.928  0.00  0.00    +0.049 C 
BRANCH  18  24
ATOM     24  C   UNL     1      -0.236 -10.357  -2.511  0.00  0.00    -0.032 A 
ATOM     25  C   UNL     1      -1.028  -9.670  -3.412  0.00  0.00    +0.004 A 
ATOM     26  C   UNL     1      -0.557  -9.406  -4.685  0.00  0.00    +0.000 A 
ATOM     27  C   UNL     1       0.705  -9.830  -5.056  0.00  0.00    +0.000 A 
ATOM     28  C   UNL     1       1.497 -10.517  -4.155  0.00  0.00    +0.000 A 
ATOM     29  C   UNL     1       1.028 -10.777  -2.881  0.00  0.00    +0.004 A 
ENDBRANCH  18  24
ENDBRANCH   9  18
BRANCH   2  30
ATOM     30  N   UNL     1       3.024  -5.282   1.820  0.00  0.00    -0.308 N 
ATOM     31  C   UNL     1       2.768  -5.691   3.098  0.00  0.00    +0.092 A 
ATOM     32  C   UNL     1       3.774  -5.262   3.887  0.00  0.00    +0.019 A 
ATOM     33  C   UNL     1       4.684  -4.563   3.069  0.00  0.00    +0.019 A 
ATOM     34  C   UNL     1       4.204  -4.595   1.809  0.00  0.00    +0.092 A 
ENDBRANCH   2  30
TORSDOF 4
