REMARK  Name = ZINC20083001
REMARK  8 active torsions:
REMARK  status: ('A' for Active; 'I' for Inactive)
REMARK    1  A    between atoms: C_1  and  C_2
REMARK    2  A    between atoms: C_2  and  C_3
REMARK    3  A    between atoms: C_3  and  C_4
REMARK    4  A    between atoms: C_4  and  C_5
REMARK    5  A    between atoms: C_5  and  C_6
REMARK    6  A    between atoms: C_6  and  N_7
REMARK    7  A    between atoms: C_26  and  C_28
REMARK    8  A    between atoms: C_26  and  C_29
REMARK                            x       y       z     vdW  Elec       q    Type
REMARK                         _______ _______ _______ _____ _____    ______ ____
ROOT
ATOM      1  N   UNL     1      -4.437   3.031  -8.814  0.00  0.00    -0.327 N 
ATOM      2  C   UNL     1      -4.179   4.070  -7.932  0.00  0.00    +0.159 A 
ATOM      3  C   UNL     1      -3.568   3.839  -6.708  0.00  0.00    +0.083 A 
ATOM      4  C   UNL     1      -3.316   4.905  -5.831  0.00  0.00    +0.115 A 
ATOM      5  C   UNL     1      -2.663   4.548  -4.558  0.00  0.00    +0.039 A 
ATOM      6  C   UNL     1      -2.311   5.449  -3.503  0.00  0.00    -0.027 A 
ATOM      7  C   UNL     1      -1.732   4.945  -2.393  0.00  0.00    +0.006 A 
ATOM      8  C   UNL     1      -1.460   3.564  -2.313  0.00  0.00    +0.127 A 
ATOM      9  N   UNL     1      -1.785   2.740  -3.289  0.00  0.00    -0.225 NA
ATOM     10  C   UNL     1      -2.371   3.191  -4.377  0.00  0.00    +0.113 A 
ATOM     11  S   UNL     1      -2.953   2.410  -5.863  0.00  0.00    -0.063 S 
ATOM     12  N   UNL     1      -0.839   3.061  -1.178  0.00  0.00    -0.311 N 
ATOM     13  C   UNL     1       0.099   1.983  -1.525  0.00  0.00    +0.134 C 
ATOM     14  C   UNL     1       0.803   1.498  -0.255  0.00  0.00    +0.178 C 
ATOM     15  O   UNL     1      -0.177   1.077   0.698  0.00  0.00    -0.377 OA
ATOM     16  C   UNL     1      -1.107   2.103   1.058  0.00  0.00    +0.178 C 
ATOM     17  C   UNL     1      -1.831   2.593  -0.199  0.00  0.00    +0.134 C 
ATOM     18  C   UNL     1      -1.336   5.737  -1.170  0.00  0.00    +0.108 C 
ATOM     19  S   UNL     1      -1.234   7.503  -1.570  0.00  0.00    -0.149 S 
ATOM     20  C   UNL     1      -2.753   7.748  -2.546  0.00  0.00    +0.015 C 
ATOM     21  C   UNL     1      -2.640   6.884  -3.794  0.00  0.00    +0.053 C 
ATOM     22  C   UNL     1      -2.883   9.220  -2.943  0.00  0.00    +0.023 C 
ATOM     23  C   UNL     1      -3.973   7.322  -1.727  0.00  0.00    +0.023 C 
ATOM     24  N   UNL     1      -3.704   6.123  -6.266  0.00  0.00    -0.128 NA
ATOM     25  N   UNL     1      -4.265   6.278  -7.406  0.00  0.00    -0.041 NA
ATOM     26  N   UNL     1      -4.510   5.327  -8.232  0.00  0.00    -0.113 NA
ATOM     27  H   UNL     1      -4.155   2.002  -8.548  0.00  0.00    +0.148 HD
ENDROOT
BRANCH   1  28
ATOM     28  C   UNL     1      -5.084   3.304 -10.100  0.00  0.00    +0.103 C 
BRANCH  28  29
ATOM     29  C   UNL     1      -5.251   1.996 -10.875  0.00  0.00    +0.019 C 
BRANCH  29  30
ATOM     30  C   UNL     1      -5.927   2.281 -12.217  0.00  0.00    +0.002 C 
BRANCH  30  31
ATOM     31  C   UNL     1      -6.093   0.973 -12.993  0.00  0.00    -0.000 C 
BRANCH  31  33
ATOM     32  C   UNL     1      -6.936  -0.050 -15.111  0.00  0.00    +0.004 C 
ATOM     33  C   UNL     1      -6.769   1.258 -14.335  0.00  0.00    -0.003 C 
ENDBRANCH  31  33
ENDBRANCH  30  31
ENDBRANCH  29  30
ENDBRANCH  28  29
ENDBRANCH   1  28
TORSDOF 5
