REMARK  Name = ZINC02727803
REMARK  11 active torsions:
REMARK  status: ('A' for Active; 'I' for Inactive)
REMARK    1  A    between atoms: C_1  and  C_2
REMARK    2  A    between atoms: C_3  and  C_26
REMARK    3  A    between atoms: C_5  and  C_7
REMARK    4  A    between atoms: C_12  and  C_16
REMARK    5  A    between atoms: C_12  and  C_17
REMARK    6  A    between atoms: C_19  and  N_25
REMARK    7  A    between atoms: C_20  and  C_21
REMARK    8  A    between atoms: C_21  and  O_23
REMARK    9  A    between atoms: O_23  and  C_24
REMARK   10  A    between atoms: C_26  and  O_27
REMARK   11  A    between atoms: O_27  and  C_28
REMARK                            x       y       z     vdW  Elec       q    Type
REMARK                         _______ _______ _______ _____ _____    ______ ____
ROOT
ATOM      1  C   UNL     1      -6.044   7.204   0.196  0.00  0.00    +0.104 C 
ATOM      2  C   UNL     1      -6.708   7.861   1.382  0.00  0.00    +0.046 C 
ATOM      3  C   UNL     1      -7.845   8.563   1.228  0.00  0.00    +0.115 C 
ATOM      4  C   UNL     1      -8.517   9.212   2.415  0.00  0.00    +0.081 C 
ATOM      5  C   UNL     1      -7.463   9.615   3.447  0.00  0.00    -0.021 C 
ATOM      6  C   UNL     1      -6.692   8.360   3.870  0.00  0.00    +0.086 C 
ATOM      7  C   UNL     1      -6.102   7.716   2.645  0.00  0.00    +0.164 C 
ATOM      8  O   UNL     1      -5.086   7.059   2.747  0.00  0.00    -0.292 OA
ATOM      9  C   UNL     1      -6.497  10.627   2.827  0.00  0.00    +0.012 C 
ATOM     10  C   UNL     1      -8.147  10.238   4.665  0.00  0.00    +0.012 C 
ATOM     11  O   UNL     1      -8.422   8.708   0.020  0.00  0.00    -0.446 OA
ATOM     12  C   UNL     1      -7.695   8.537  -1.094  0.00  0.00    +0.195 C 
ATOM     13  C   UNL     1      -6.540   7.822  -1.081  0.00  0.00    +0.106 C 
ENDROOT
BRANCH   1  18
ATOM     14  C   UNL     1      -8.190   1.962   0.122  0.00  0.00    +0.052 C 
ATOM     15  C   UNL     1      -7.386   3.236   0.162  0.00  0.00    -0.007 A 
ATOM     16  C   UNL     1      -6.043   3.395   0.248  0.00  0.00    -0.000 A 
ATOM     17  C   UNL     1      -5.519   4.674   0.263  0.00  0.00    +0.019 A 
ATOM     18  C   UNL     1      -6.364   5.731   0.196  0.00  0.00    +0.003 A 
ATOM     19  S   UNL     1      -7.955   4.927   0.109  0.00  0.00    -0.097 S 
BRANCH  16  20
ATOM     20  C   UNL     1      -5.134   2.195   0.321  0.00  0.00    +0.265 C 
BRANCH  20  21
ATOM     21  O   UNL     1      -3.775   2.631   0.400  0.00  0.00    -0.486 OA
BRANCH  21  22
ATOM     22  C   UNL     1      -2.820   1.665   0.473  0.00  0.00    +0.139 A 
ATOM     23  C   UNL     1      -3.184   0.327   0.463  0.00  0.00    +0.050 A 
ATOM     24  C   UNL     1      -2.213  -0.653   0.542  0.00  0.00    +0.042 A 
ATOM     25  C   UNL     1      -0.877  -0.300   0.620  0.00  0.00    +0.125 A 
ATOM     26  C   UNL     1      -0.511   1.035   0.625  0.00  0.00    +0.062 A 
ATOM     27  C   UNL     1      -1.480   2.018   0.551  0.00  0.00    +0.085 A 
ATOM     28 CL   UNL     1      -1.022   3.693   0.557  0.00  0.00    -0.080 Cl
ATOM     29  F   UNL     1       0.071  -1.260   0.692  0.00  0.00    -0.205 F 
ENDBRANCH  21  22
ENDBRANCH  20  21
ENDBRANCH  16  20
ENDBRANCH   1  18
BRANCH  12  30
ATOM     30  N   UNL     1      -8.124   9.096  -2.268  0.00  0.00    -0.329 N 
ATOM     31  H   UNL     1      -7.486   9.510  -2.869  0.00  0.00    +0.145 HD
ATOM     32  H   UNL     1      -9.066   9.078  -2.497  0.00  0.00    +0.145 HD
ENDBRANCH  12  30
BRANCH  13  33
ATOM     33  C   UNL     1      -5.806   7.659  -2.267  0.00  0.00    +0.341 C 
ATOM     34  O   UNL     1      -6.264   8.053  -3.325  0.00  0.00    -0.245 OA
BRANCH  33  35
ATOM     35  O   UNL     1      -4.594   7.065  -2.234  0.00  0.00    -0.465 OA
ATOM     36  C   UNL     1      -3.903   6.932  -3.478  0.00  0.00    +0.280 C 
ENDBRANCH  33  35
ENDBRANCH  13  33
TORSDOF 7
