REMARK  Name = ZINC40713495
REMARK  2 active torsions:
REMARK  status: ('A' for Active; 'I' for Inactive)
REMARK    1  A    between atoms: C_1  and  C_2
REMARK    2  A    between atoms: C_10  and  N_16
REMARK                            x       y       z     vdW  Elec       q    Type
REMARK                         _______ _______ _______ _____ _____    ______ ____
ROOT
ATOM      1  C   UNL     1      -0.260   1.516   0.230  0.00  0.00    +0.028 C 
ATOM      2  C   UNL     1      -0.126  -0.003   0.112  0.00  0.00    +0.072 C 
ATOM      3  C   UNL     1      -1.493  -0.658   0.335  0.00  0.00    +0.022 C 
ATOM      4  C   UNL     1      -1.328  -2.179   0.355  0.00  0.00    +0.003 C 
ATOM      5  C   UNL     1      -0.406  -2.580   1.509  0.00  0.00    +0.019 C 
ATOM      6  C   UNL     1       0.973  -1.947   1.299  0.00  0.00    +0.107 C 
ATOM      7  N   UNL     1       0.810  -0.496   1.132  0.00  0.00    -0.311 N 
ATOM      8  C   UNL     1       1.526   0.396   1.928  0.00  0.00    +0.142 A 
ATOM      9  C   UNL     1       2.802   0.807   1.533  0.00  0.00    +0.066 A 
ATOM     10  C   UNL     1       3.502   1.695   2.338  0.00  0.00    +0.043 A 
ATOM     11  C   UNL     1       2.901   2.141   3.509  0.00  0.00    +0.038 A 
ATOM     12  C   UNL     1       1.637   1.691   3.835  0.00  0.00    +0.128 A 
ATOM     13  N   UNL     1       0.991   0.850   3.049  0.00  0.00    -0.237 NA
ATOM     14 BR   UNL     1       3.806   3.352   4.645  0.00  0.00    -0.049 Br
ENDROOT
BRANCH   9  15
ATOM     15  N   UNL     1       3.366   0.330   0.344  0.00  0.00    -0.355 N 
ATOM     16  H   UNL     1       2.843  -0.232  -0.250  0.00  0.00    +0.142 HD
ATOM     17  H   UNL     1       4.279   0.560   0.114  0.00  0.00    +0.142 HD
ENDBRANCH   9  15
TORSDOF 1
