REMARK  Name = ZINC12191711
REMARK  7 active torsions:
REMARK  status: ('A' for Active; 'I' for Inactive)
REMARK    1  A    between atoms: C_9  and  C_12
REMARK    2  A    between atoms: C_17  and  C_18
REMARK    3  A    between atoms: C_17  and  N_62
REMARK    4  A    between atoms: C_18  and  N_19
REMARK    5  A    between atoms: C_20  and  C_22
REMARK    6  A    between atoms: C_22  and  C_23
REMARK    7  A    between atoms: C_26  and  N_29
REMARK                            x       y       z     vdW  Elec       q    Type
REMARK                         _______ _______ _______ _____ _____    ______ ____
ROOT
ATOM      1  C   UNL     1      -6.083   8.831  -4.321  0.00  0.00    +0.085 C 
ENDROOT
BRANCH   1   2
ATOM      2  N   UNL     1      -6.450   7.420  -4.183  0.00  0.00    -0.317 N 
ATOM      3  C   UNL     1      -5.625   6.568  -3.543  0.00  0.00    +0.217 C 
ATOM      4  O   UNL     1      -4.578   6.970  -3.081  0.00  0.00    -0.275 OA
ATOM      5  H   UNL     1      -7.287   7.098  -4.553  0.00  0.00    +0.149 HD
BRANCH   3   6
ATOM      6  C   UNL     1      -6.003   5.116  -3.401  0.00  0.00    +0.130 C 
BRANCH   6   7
ATOM      7  C   UNL     1      -4.918   4.386  -2.652  0.00  0.00    -0.039 A 
ATOM      8  C   UNL     1      -4.973   4.296  -1.273  0.00  0.00    +0.006 A 
ATOM      9  C   UNL     1      -3.980   3.627  -0.583  0.00  0.00    +0.024 A 
ATOM     10  C   UNL     1      -2.927   3.045  -1.276  0.00  0.00    +0.038 A 
ATOM     11  C   UNL     1      -2.872   3.142  -2.660  0.00  0.00    +0.024 A 
ATOM     12  C   UNL     1      -3.871   3.807  -3.344  0.00  0.00    +0.006 A 
BRANCH  10  13
ATOM     13  N   UNL     1      -1.919   2.368  -0.580  0.00  0.00    -0.254 N 
ATOM     14  C   UNL     1      -1.791   2.301   0.884  0.00  0.00    +0.134 C 
ATOM     15  C   UNL     1      -0.530   1.444   1.105  0.00  0.00    +0.125 C 
ATOM     16  N   UNL     1      -0.080   1.115  -0.255  0.00  0.00    -0.297 N 
ATOM     17  C   UNL     1      -0.918   1.677  -1.141  0.00  0.00    +0.307 C 
ATOM     18  O   UNL     1      -0.781   1.567  -2.344  0.00  0.00    -0.252 OA
ATOM     19  H   UNL     1       0.699   0.580  -0.476  0.00  0.00    +0.150 HD
ENDBRANCH  10  13
ENDBRANCH   6   7
ENDBRANCH   3   6
ENDBRANCH   1   2
BRANCH   1  20
ATOM     20  C   UNL     1      -7.184   9.572  -5.082  0.00  0.00    -0.059 C 
BRANCH  20  31
ATOM     21  C   UNL     1      -2.940  13.398  -4.677  0.00  0.00    +0.000 A 
ATOM     22  C   UNL     1      -3.491  14.648  -4.893  0.00  0.00    +0.004 A 
ATOM     23  C   UNL     1      -4.737  14.768  -5.477  0.00  0.00    +0.046 A 
ATOM     24  C   UNL     1      -5.436  13.626  -5.846  0.00  0.00    +0.123 A 
ATOM     25  C   UNL     1      -4.874  12.380  -5.642  0.00  0.00    -0.022 A 
ATOM     26  C   UNL     1      -3.632  12.260  -5.053  0.00  0.00    +0.005 A 
ATOM     27  C   UNL     1      -5.634  11.142  -6.077  0.00  0.00    -0.039 C 
ATOM     28  C   UNL     1      -7.951  11.781  -5.683  0.00  0.00    -0.028 C 
ATOM     29  C   UNL     1      -7.749  13.274  -5.532  0.00  0.00    +0.188 C 
ATOM     30  O   UNL     1      -6.685  13.730  -6.376  0.00  0.00    -0.486 OA
ATOM     31  N   UNL     1      -6.805  10.991  -5.182  0.00  0.00    +0.386 N 
ATOM     32  H   UNL     1      -6.552  11.334  -4.247  0.00  0.00    -0.081 HD
BRANCH  29  33
ATOM     33  C   UNL     1      -9.022  13.986  -5.909  0.00  0.00    -0.002 A 
ATOM     34  C   UNL     1      -9.902  14.414  -4.933  0.00  0.00    +0.015 A 
ATOM     35  C   UNL     1     -11.039  15.052  -5.306  0.00  0.00    +0.045 A 
ATOM     36  S   UNL     1     -10.888  15.063  -7.085  0.00  0.00    -0.105 S 
ATOM     37  C   UNL     1      -9.318  14.222  -7.211  0.00  0.00    +0.052 A 
ENDBRANCH  29  33
ENDBRANCH  20  31
ENDBRANCH   1  20
TORSDOF 7
