REMARK  Name = ZINC39934807
REMARK  7 active torsions:
REMARK  status: ('A' for Active; 'I' for Inactive)
REMARK    1  A    between atoms: C_1  and  C_2
REMARK    2  A    between atoms: C_5  and  C_19
REMARK    3  A    between atoms: C_6  and  C_18
REMARK    4  A    between atoms: N_8  and  N_9
REMARK    5  A    between atoms: C_10  and  C_12
REMARK    6  A    between atoms: C_20  and  C_21
REMARK    7  A    between atoms: C_20  and  C_23
REMARK                            x       y       z     vdW  Elec       q    Type
REMARK                         _______ _______ _______ _____ _____    ______ ____
ROOT
ATOM      1  C   UNL     1      -0.023   1.560  -0.008  0.00  0.00    +0.030 C 
ATOM      2  C   UNL     1       0.006   0.030  -0.020  0.00  0.00    +0.097 C 
ATOM      3  C   UNL     1       0.734  -0.469  -1.247  0.00  0.00    -0.002 C 
ATOM      4  C   UNL     1       1.554  -1.462  -0.893  0.00  0.00    -0.030 C 
ATOM      5  C   UNL     1       1.431  -1.695   0.595  0.00  0.00    +0.103 C 
ATOM      6  N   UNL     1       0.781  -0.477   1.136  0.00  0.00    -0.213 NA
ATOM      7  C   UNL     1       2.817  -1.880   1.218  0.00  0.00    +0.031 C 
ENDROOT
BRANCH   6   8
ATOM      8  N   UNL     1       1.713   0.436   1.540  0.00  0.00    -0.243 N 
ATOM      9  C   UNL     1       1.671   0.934   2.791  0.00  0.00    +0.258 C 
ATOM     10  O   UNL     1       0.803   0.570   3.561  0.00  0.00    -0.269 OA
ATOM     11  H   UNL     1       2.405   0.727   0.925  0.00  0.00    +0.170 HD
BRANCH   9  12
ATOM     12  C   UNL     1       2.679   1.923   3.228  0.00  0.00    +0.038 A 
ATOM     13  C   UNL     1       3.673   2.347   2.345  0.00  0.00    +0.013 A 
ATOM     14  C   UNL     1       4.611   3.271   2.759  0.00  0.00    +0.001 A 
ATOM     15  C   UNL     1       4.568   3.775   4.046  0.00  0.00    +0.000 A 
ATOM     16  C   UNL     1       3.586   3.358   4.927  0.00  0.00    +0.001 A 
ATOM     17  C   UNL     1       2.638   2.440   4.524  0.00  0.00    +0.013 A 
ENDBRANCH   9  12
ENDBRANCH   6   8
BRANCH   4  18
ATOM     18  C   UNL     1       2.430  -2.204  -1.800  0.00  0.00    +0.023 C 
ATOM     19  C   UNL     1       3.209  -1.538  -2.682  0.00  0.00    +0.072 C 
BRANCH  19  20
ATOM     20  C   UNL     1       3.998  -2.300  -3.715  0.00  0.00    +0.216 C 
ATOM     21  N   UNL     1       5.426  -1.979  -3.596  0.00  0.00    -0.359 N 
ATOM     22  C   UNL     1       5.803  -1.451  -4.725  0.00  0.00    +0.060 A 
ATOM     23  C   UNL     1       7.092  -0.936  -5.206  0.00  0.00    +0.027 A 
ATOM     24  C   UNL     1       7.184  -0.435  -6.454  0.00  0.00    +0.002 A 
ATOM     25  C   UNL     1       6.087  -0.381  -7.332  0.00  0.00    +0.002 A 
ATOM     26  C   UNL     1       4.861  -0.825  -6.992  0.00  0.00    +0.027 A 
ATOM     27  C   UNL     1       4.642  -1.394  -5.654  0.00  0.00    +0.060 A 
ATOM     28  N   UNL     1       3.592  -1.889  -5.065  0.00  0.00    -0.359 N 
ATOM     29  H   UNL     1       5.986  -2.132  -2.819  0.00  0.00    +0.162 HD
ATOM     30  H   UNL     1       2.704  -1.971  -5.447  0.00  0.00    +0.162 HD
ENDBRANCH  19  20
BRANCH  19  31
ATOM     31  C   UNL     1       3.284  -0.109  -2.635  0.00  0.00    +0.099 C 
ATOM     32  N   UNL     1       3.343   1.025  -2.598  0.00  0.00    -0.191 NA
ENDBRANCH  19  31
ENDBRANCH   4  18
TORSDOF 5
