REMARK  Name = ZINC41792232
REMARK  10 active torsions:
REMARK  status: ('A' for Active; 'I' for Inactive)
REMARK    1  A    between atoms: C_1  and  C_2
REMARK    2  A    between atoms: C_5  and  C_29
REMARK    3  A    between atoms: N_8  and  C_10
REMARK    4  A    between atoms: C_10  and  C_11
REMARK    5  A    between atoms: C_11  and  C_12
REMARK    6  A    between atoms: C_12  and  C_13
REMARK    7  A    between atoms: C_13  and  N_14
REMARK    8  A    between atoms: C_15  and  C_17
REMARK    9  A    between atoms: N_19  and  C_20
REMARK   10  A    between atoms: C_23  and  C_27
REMARK                            x       y       z     vdW  Elec       q    Type
REMARK                         _______ _______ _______ _____ _____    ______ ____
ROOT
ATOM      1  N   UNL     1       6.034  -2.579   4.433  0.00  0.00    -0.308 N 
ATOM      2  C   UNL     1       7.353  -2.317   4.515  0.00  0.00    +0.299 C 
ATOM      3  O   UNL     1       7.903  -1.689   3.634  0.00  0.00    -0.265 OA
ATOM      4  H   UNL     1       5.595  -3.081   5.138  0.00  0.00    +0.149 HD
ENDROOT
BRANCH   2   5
ATOM      5  C   UNL     1       8.139  -2.799   5.690  0.00  0.00    +0.303 C 
ATOM      6  O   UNL     1       7.590  -3.427   6.571  0.00  0.00    -0.265 OA
ATOM      7  N   UNL     1       9.459  -2.536   5.772  0.00  0.00    -0.278 N 
ATOM      8  H   UNL     1       9.912  -2.093   5.037  0.00  0.00    +0.155 HD
BRANCH   7   9
ATOM      9  C   UNL     1      10.173  -2.901   6.911  0.00  0.00    +0.035 A 
ATOM     10  C   UNL     1       9.849  -4.075   7.587  0.00  0.00    +0.024 A 
ATOM     11  C   UNL     1      10.551  -4.439   8.713  0.00  0.00    +0.022 A 
ATOM     12  C   UNL     1      11.592  -3.630   9.179  0.00  0.00    +0.070 A 
ATOM     13  C   UNL     1      11.916  -2.452   8.497  0.00  0.00    +0.060 A 
ATOM     14  C   UNL     1      11.211  -2.096   7.367  0.00  0.00    +0.044 A 
ATOM     15 CL   UNL     1      13.207  -1.442   9.071  0.00  0.00    -0.082 Cl
BRANCH  12  16
ATOM     16  C   UNL     1      12.325  -4.006  10.350  0.00  0.00    +0.101 C 
ATOM     17  N   UNL     1      12.906  -4.304  11.280  0.00  0.00    -0.191 NA
ENDBRANCH  12  16
ENDBRANCH   7   9
ENDBRANCH   2   5
BRANCH   1  18
ATOM     18  C   UNL     1       5.263  -2.107   3.281  0.00  0.00    +0.104 C 
BRANCH  18  19
ATOM     19  C   UNL     1       3.802  -2.535   3.434  0.00  0.00    +0.017 C 
BRANCH  19  20
ATOM     20  C   UNL     1       2.997  -2.042   2.230  0.00  0.00    -0.017 C 
BRANCH  20  21
ATOM     21  C   UNL     1       1.536  -2.470   2.383  0.00  0.00    -0.079 C 
BRANCH  21  27
ATOM     22  C   UNL     1      -0.005   1.501  -0.029  0.00  0.00    +0.005 C 
ATOM     23  C   UNL     1       0.012  -0.029  -0.025  0.00  0.00    -0.031 C 
ATOM     24  C   UNL     1      -1.425  -0.557  -0.009  0.00  0.00    +0.003 C 
ATOM     25  C   UNL     1      -1.397  -2.086   0.073  0.00  0.00    -0.031 C 
ATOM     26  C   UNL     1      -0.609  -2.509   1.315  0.00  0.00    -0.076 C 
ATOM     27  N   UNL     1       0.763  -1.996   1.228  0.00  0.00    +0.380 N 
ATOM     28  C   UNL     1       0.748  -0.529   1.220  0.00  0.00    -0.076 C 
ATOM     29  C   UNL     1      -0.722  -2.652  -1.178  0.00  0.00    +0.005 C 
ATOM     30  H   UNL     1       1.192  -2.331   0.378  0.00  0.00    -0.082 HD
ENDBRANCH  21  27
ENDBRANCH  20  21
ENDBRANCH  19  20
ENDBRANCH  18  19
ENDBRANCH   1  18
TORSDOF 8
