REMARK  Name = ZINC08610656
REMARK  12 active torsions:
REMARK  status: ('A' for Active; 'I' for Inactive)
REMARK    1  A    between atoms: C_1  and  C_2
REMARK    2  A    between atoms: C_4  and  C_37
REMARK    3  A    between atoms: C_5  and  C_9
REMARK    4  A    between atoms: C_6  and  C_8
REMARK    5  A    between atoms: C_10  and  C_11
REMARK    6  A    between atoms: C_12  and  S_17
REMARK    7  A    between atoms: C_13  and  C_16
REMARK    8  A    between atoms: S_17  and  N_20
REMARK    9  A    between atoms: C_23  and  C_26
REMARK   10  A    between atoms: N_28  and  C_29
REMARK   11  A    between atoms: N_28  and  C_30
REMARK   12  A    between atoms: C_30  and  C_31
REMARK                            x       y       z     vdW  Elec       q    Type
REMARK                         _______ _______ _______ _____ _____    ______ ____
ROOT
ATOM      1  S   UNL     1       3.119  -6.628   2.497  0.00  0.00    +0.066 S 
ATOM      2  O   UNL     1       4.074  -7.678   2.562  0.00  0.00    -0.153 OA
ATOM      3  O   UNL     1       3.461  -5.312   2.086  0.00  0.00    -0.153 OA
ENDROOT
BRANCH   1   5
ATOM      4  C   UNL     1       0.985  -6.377   0.712  0.00  0.00    +0.187 A 
ATOM      5  C   UNL     1       1.840  -7.177   1.417  0.00  0.00    +0.174 A 
ATOM      6  C   UNL     1       1.521  -8.510   1.128  0.00  0.00    +0.107 A 
ATOM      7  N   UNL     1       0.521  -8.521   0.289  0.00  0.00    -0.081 NA
ATOM      8  O   UNL     1       0.158  -7.181   0.013  0.00  0.00    -0.353 OA
ATOM      9  C   UNL     1       2.214  -9.724   1.690  0.00  0.00    +0.071 C 
BRANCH   4  11
ATOM     10  C   UNL     1       0.059  -4.246  -0.021  0.00  0.00    +0.012 C 
ATOM     11  C   UNL     1       0.965  -4.912   0.720  0.00  0.00    +0.051 C 
BRANCH  10  16
ATOM     12  C   UNL     1      -0.018   1.503   0.010  0.00  0.00    +0.044 C 
ATOM     13  C   UNL     1       0.002  -0.004   0.002  0.00  0.00    -0.050 A 
ATOM     14  C   UNL     1       0.006  -0.686  -1.202  0.00  0.00    +0.007 A 
ATOM     15  C   UNL     1       0.024  -2.065  -1.218  0.00  0.00    -0.043 A 
ATOM     16  C   UNL     1       0.040  -2.774  -0.013  0.00  0.00    -0.019 A 
ATOM     17  C   UNL     1       0.036  -2.078   1.199  0.00  0.00    -0.043 A 
ATOM     18  C   UNL     1       0.023  -0.699   1.199  0.00  0.00    +0.007 A 
ATOM     19  C   UNL     1       0.052  -2.833   2.504  0.00  0.00    +0.044 C 
ATOM     20  C   UNL     1       0.028  -2.805  -2.530  0.00  0.00    +0.044 C 
ENDBRANCH  10  16
ENDBRANCH   4  11
ENDBRANCH   1   5
BRANCH   1  21
ATOM     21  N   UNL     1       2.458  -6.495   4.010  0.00  0.00    -0.176 NA
ATOM     22  C   UNL     1       1.843  -5.235   4.449  0.00  0.00    +0.110 C 
ATOM     23  C   UNL     1       2.481  -4.812   5.776  0.00  0.00    +0.030 C 
ATOM     24  C   UNL     1       2.358  -5.956   6.785  0.00  0.00    +0.078 C 
ATOM     25  C   UNL     1       3.106  -7.184   6.259  0.00  0.00    +0.030 C 
ATOM     26  C   UNL     1       2.470  -7.635   4.935  0.00  0.00    +0.110 C 
BRANCH  24  27
ATOM     27  C   UNL     1       2.954  -5.531   8.102  0.00  0.00    +0.219 C 
ATOM     28  O   UNL     1       3.429  -4.422   8.223  0.00  0.00    -0.275 OA
ATOM     29  N   UNL     1       2.958  -6.383   9.146  0.00  0.00    -0.300 N 
ATOM     30  C   UNL     1       2.383  -7.723   9.000  0.00  0.00    +0.132 C 
BRANCH  29  31
ATOM     31  C   UNL     1       3.537  -5.970  10.427  0.00  0.00    +0.142 C 
BRANCH  31  32
ATOM     32  C   UNL     1       2.470  -5.330  11.277  0.00  0.00    -0.030 A 
ATOM     33  C   UNL     1       2.246  -3.969  11.197  0.00  0.00    +0.005 A 
ATOM     34  C   UNL     1       1.267  -3.382  11.977  0.00  0.00    +0.000 A 
ATOM     35  C   UNL     1       0.513  -4.156  12.838  0.00  0.00    +0.000 A 
ATOM     36  C   UNL     1       0.736  -5.518  12.918  0.00  0.00    +0.000 A 
ATOM     37  C   UNL     1       1.712  -6.106  12.134  0.00  0.00    +0.005 A 
ENDBRANCH  31  32
ENDBRANCH  29  31
ENDBRANCH  24  27
ENDBRANCH   1  21
TORSDOF 7
