REMARK  Name = ZINC36347488
REMARK  4 active torsions:
REMARK  status: ('A' for Active; 'I' for Inactive)
REMARK    1  A    between atoms: C_1  and  C_2
REMARK    2  A    between atoms: C_6  and  C_8
REMARK    3  A    between atoms: C_8  and  N_9
REMARK    4  A    between atoms: C_18  and  C_20
REMARK                            x       y       z     vdW  Elec       q    Type
REMARK                         _______ _______ _______ _____ _____    ______ ____
ROOT
ATOM      1  N   UNL     1       1.528  -3.196   2.842  0.00  0.00    +0.391 N 
ATOM      2  C   UNL     1       2.189  -1.891   2.930  0.00  0.00    -0.075 C 
ATOM      3  C   UNL     1       3.627  -2.036   3.411  0.00  0.00    +0.003 C 
ATOM      4  C   UNL     1       4.219  -3.347   2.884  0.00  0.00    +0.119 C 
ATOM      5  N   UNL     1       3.920  -4.422   3.837  0.00  0.00    -0.352 N 
ATOM      6  C   UNL     1       4.794  -5.358   4.300  0.00  0.00    +0.086 A 
ATOM      7  C   UNL     1       4.129  -6.176   5.142  0.00  0.00    +0.019 A 
ATOM      8  C   UNL     1       2.795  -5.723   5.204  0.00  0.00    +0.021 A 
ATOM      9  C   UNL     1       2.697  -4.645   4.402  0.00  0.00    +0.009 A 
ATOM     10  C   UNL     1       1.458  -3.815   4.173  0.00  0.00    +0.011 C 
ATOM     11  H   UNL     1       2.054  -3.794   2.222  0.00  0.00    -0.080 HD
ENDROOT
BRANCH  10  12
ATOM     12  C   UNL     1       0.239  -4.698   4.252  0.00  0.00    -0.054 A 
ATOM     13  C   UNL     1       0.085  -5.745   3.362  0.00  0.00    +0.004 A 
ATOM     14  C   UNL     1      -1.033  -6.555   3.434  0.00  0.00    +0.021 A 
ATOM     15  C   UNL     1      -1.998  -6.319   4.397  0.00  0.00    +0.059 A 
ATOM     16  C   UNL     1      -1.843  -5.271   5.289  0.00  0.00    +0.059 A 
ATOM     17  C   UNL     1      -0.721  -4.465   5.219  0.00  0.00    +0.023 A 
ATOM     18 CL   UNL     1      -3.053  -4.974   6.497  0.00  0.00    -0.082 Cl
ATOM     19 CL   UNL     1      -3.401  -7.336   4.487  0.00  0.00    -0.082 Cl
ENDBRANCH  10  12
BRANCH   1  20
ATOM     20  C   UNL     1       0.169  -3.020   2.313  0.00  0.00    -0.042 C 
BRANCH  20  26
ATOM     21  C   UNL     1       0.326   0.888  -0.809  0.00  0.00    +0.044 C 
ATOM     22  C   UNL     1       0.317  -0.602  -0.582  0.00  0.00    -0.050 A 
ATOM     23  C   UNL     1       0.376  -1.466  -1.660  0.00  0.00    +0.003 A 
ATOM     24  C   UNL     1       0.367  -2.832  -1.452  0.00  0.00    +0.000 A 
ATOM     25  C   UNL     1       0.301  -3.335  -0.166  0.00  0.00    +0.002 A 
ATOM     26  C   UNL     1       0.242  -2.471   0.912  0.00  0.00    -0.064 A 
ATOM     27  C   UNL     1       0.255  -1.105   0.704  0.00  0.00    +0.005 A 
ENDBRANCH  20  26
ENDBRANCH   1  20
TORSDOF 3
