REMARK  Name = ZINC37608262
REMARK  10 active torsions:
REMARK  status: ('A' for Active; 'I' for Inactive)
REMARK    1  A    between atoms: C_1  and  O_2
REMARK    2  A    between atoms: O_2  and  C_3
REMARK    3  A    between atoms: C_3  and  C_4
REMARK    4  A    between atoms: C_10  and  C_13
REMARK    5  A    between atoms: C_13  and  N_14
REMARK    6  A    between atoms: N_14  and  C_15
REMARK    7  A    between atoms: C_15  and  C_16
REMARK    8  A    between atoms: C_22  and  C_24
REMARK    9  A    between atoms: C_27  and  O_30
REMARK   10  A    between atoms: O_30  and  C_31
REMARK                            x       y       z     vdW  Elec       q    Type
REMARK                         _______ _______ _______ _____ _____    ______ ____
ROOT
ATOM      1  N   UNL     1       3.972  -7.079   2.227  0.00  0.00    -0.293 N 
ATOM      2  C   UNL     1       4.728  -6.869   1.131  0.00  0.00    +0.247 C 
ATOM      3  O   UNL     1       5.939  -6.811   1.229  0.00  0.00    -0.270 OA
ENDROOT
BRANCH   2   4
ATOM      4  C   UNL     1       4.086  -6.710  -0.189  0.00  0.00    +0.037 A 
ATOM      5  C   UNL     1       2.976  -5.873  -0.332  0.00  0.00    +0.016 A 
ATOM      6  C   UNL     1       2.381  -5.727  -1.564  0.00  0.00    +0.046 A 
ATOM      7  C   UNL     1       2.882  -6.411  -2.666  0.00  0.00    +0.120 A 
ATOM      8  C   UNL     1       3.986  -7.245  -2.528  0.00  0.00    +0.046 A 
ATOM      9  C   UNL     1       4.590  -7.391  -1.300  0.00  0.00    +0.016 A 
BRANCH   7  10
ATOM     10  O   UNL     1       2.291  -6.265  -3.879  0.00  0.00    -0.495 OA
ATOM     11  C   UNL     1       2.857  -6.997  -4.968  0.00  0.00    +0.277 C 
ENDBRANCH   7  10
ENDBRANCH   2   4
BRANCH   1  12
ATOM     12  C   UNL     1       2.511  -7.054   2.125  0.00  0.00    +0.141 C 
BRANCH  12  19
ATOM     13  C   UNL     1      -0.775  -3.495   2.254  0.00  0.00    +0.241 C 
ATOM     14  O   UNL     1      -1.047  -3.719   1.093  0.00  0.00    -0.273 OA
ATOM     15  N   UNL     1      -0.023  -4.369   2.951  0.00  0.00    -0.295 N 
ATOM     16  C   UNL     1       0.314  -4.122   4.362  0.00  0.00    +0.136 C 
ATOM     17  C   UNL     1       1.828  -4.288   4.534  0.00  0.00    +0.179 C 
ATOM     18  O   UNL     1       2.226  -5.553   3.999  0.00  0.00    -0.372 OA
ATOM     19  C   UNL     1       1.990  -5.695   2.596  0.00  0.00    +0.153 C 
ATOM     20  C   UNL     1       0.480  -5.603   2.326  0.00  0.00    +0.141 C 
BRANCH  13  21
ATOM     21  C   UNL     1      -1.279  -2.239   2.916  0.00  0.00    +0.255 C 
BRANCH  21  23
ATOM     22  C   UNL     1      -2.574  -0.263   2.509  0.00  0.00    +0.194 C 
ATOM     23  O   UNL     1      -2.047  -1.481   1.979  0.00  0.00    -0.374 OA
ENDBRANCH  21  23
ENDBRANCH  13  21
ENDBRANCH  12  19
ENDBRANCH   1  12
BRANCH   1  24
ATOM     24  C   UNL     1       4.612  -7.333   3.520  0.00  0.00    +0.139 C 
BRANCH  24  25
ATOM     25  C   UNL     1       4.707  -8.842   3.755  0.00  0.00    +0.136 C 
ATOM     26  C   UNL     1       5.269  -9.118   5.167  0.00  0.00    +0.035 C 
ATOM     27  C   UNL     1       6.201 -10.335   4.918  0.00  0.00    +0.031 C 
ATOM     28  C   UNL     1       6.723 -10.019   3.494  0.00  0.00    +0.160 C 
ATOM     29  O   UNL     1       5.607  -9.426   2.807  0.00  0.00    -0.375 OA
ENDBRANCH  24  25
ENDBRANCH   1  24
TORSDOF 8
