REMARK  Name = ZINC63438875
REMARK  6 active torsions:
REMARK  status: ('A' for Active; 'I' for Inactive)
REMARK    1  A    between atoms: C_1  and  C_2
REMARK    2  A    between atoms: N_4  and  C_5
REMARK    3  A    between atoms: C_8  and  C_11
REMARK    4  A    between atoms: C_16  and  C_18
REMARK    5  A    between atoms: C_23  and  O_24
REMARK    6  A    between atoms: O_24  and  C_25
REMARK                            x       y       z     vdW  Elec       q    Type
REMARK                         _______ _______ _______ _____ _____    ______ ____
ROOT
ATOM      1  C   UNL     1      -2.917  -5.509  -0.606  0.00  0.00    +0.063 C 
ATOM      2  C   UNL     1      -4.253  -5.158  -0.539  0.00  0.00    +0.154 C 
ATOM      3  C   UNL     1      -5.412  -6.063  -0.525  0.00  0.00    +0.364 C 
ATOM      4  O   UNL     1      -5.400  -7.279  -0.570  0.00  0.00    -0.243 OA
ATOM      5  O   UNL     1      -6.493  -5.257  -0.451  0.00  0.00    -0.402 OA
ATOM      6  C   UNL     1      -6.075  -3.977  -0.421  0.00  0.00    +0.236 C 
ATOM      7  N   UNL     1      -4.774  -3.898  -0.466  0.00  0.00    -0.205 NA
ENDROOT
BRANCH   1  15
ATOM      8  C   UNL     1       3.865  -2.921  -1.337  0.00  0.00    +0.110 C 
ATOM      9  C   UNL     1       2.374  -2.827  -1.136  0.00  0.00    +0.218 C 
ATOM     10  O   UNL     1       1.855  -1.748  -0.941  0.00  0.00    -0.276 OA
ATOM     11  N   UNL     1       1.618  -3.942  -1.173  0.00  0.00    -0.254 N 
ATOM     12  C   UNL     1       2.245  -5.245  -1.409  0.00  0.00    +0.140 C 
ATOM     13  C   UNL     1       0.245  -3.856  -0.987  0.00  0.00    +0.167 A 
ATOM     14  N   UNL     1      -0.639  -4.826  -0.893  0.00  0.00    -0.225 NA
ATOM     15  C   UNL     1      -1.925  -4.503  -0.713  0.00  0.00    +0.075 A 
ATOM     16  C   UNL     1      -2.262  -3.163  -0.636  0.00  0.00    +0.076 A 
ATOM     17  S   UNL     1      -0.772  -2.401  -0.808  0.00  0.00    -0.060 S 
ENDBRANCH   1  15
BRANCH   6  18
ATOM     18  C   UNL     1      -6.976  -2.811  -0.342  0.00  0.00    +0.079 A 
ATOM     19  C   UNL     1      -8.354  -2.995  -0.207  0.00  0.00    +0.017 A 
ATOM     20  C   UNL     1      -9.190  -1.902  -0.133  0.00  0.00    +0.001 A 
ATOM     21  C   UNL     1      -8.669  -0.620  -0.191  0.00  0.00    +0.004 A 
ATOM     22  C   UNL     1      -7.308  -0.423  -0.325  0.00  0.00    +0.046 A 
ATOM     23  C   UNL     1      -6.453  -1.512  -0.395  0.00  0.00    +0.139 A 
BRANCH  23  24
ATOM     24  O   UNL     1      -5.115  -1.320  -0.520  0.00  0.00    -0.433 OA
BRANCH  24  25
ATOM     25  C   UNL     1      -4.652   0.032  -0.543  0.00  0.00    +0.541 C 
ATOM     26  F   UNL     1      -5.219   0.701  -1.633  0.00  0.00    -0.166 F 
ATOM     27  F   UNL     1      -5.027   0.673   0.643  0.00  0.00    -0.166 F 
ENDBRANCH  24  25
ENDBRANCH  23  24
ENDBRANCH   6  18
TORSDOF 4
