REMARK  Name = ZINC65423131
REMARK  7 active torsions:
REMARK  status: ('A' for Active; 'I' for Inactive)
REMARK    1  A    between atoms: C_1  and  C_2
REMARK    2  A    between atoms: N_4  and  C_10
REMARK    3  A    between atoms: C_6  and  C_8
REMARK    4  A    between atoms: C_6  and  C_9
REMARK    5  A    between atoms: C_10  and  C_11
REMARK    6  A    between atoms: C_10  and  C_12
REMARK    7  A    between atoms: C_14  and  C_17
REMARK                            x       y       z     vdW  Elec       q    Type
REMARK                         _______ _______ _______ _____ _____    ______ ____
ROOT
ATOM      1  C   UNL     1      -2.767  -2.557   0.049  0.00  0.00    +0.143 C 
ATOM      2  C   UNL     1      -3.614  -1.909   1.147  0.00  0.00    +0.034 C 
ENDROOT
BRANCH   1   6
ATOM      3  C   UNL     1      -0.019   1.526   0.010  0.00  0.00    +0.039 C 
ATOM      4  C   UNL     1       0.002  -0.004   0.002  0.00  0.00    +0.130 C 
ATOM      5  C   UNL     1      -1.434  -0.535   0.018  0.00  0.00    +0.116 C 
ATOM      6  N   UNL     1      -1.407  -2.003   0.088  0.00  0.00    -0.286 NA
ATOM      7  C   UNL     1      -0.689  -2.455   1.289  0.00  0.00    +0.119 C 
ATOM      8  C   UNL     1       0.739  -1.905   1.260  0.00  0.00    +0.077 C 
ATOM      9  O   UNL     1       0.694  -0.479   1.160  0.00  0.00    -0.368 OA
ATOM     10  C   UNL     1       1.483  -2.477   0.051  0.00  0.00    +0.042 C 
ATOM     11  C   UNL     1       1.467  -2.304   2.545  0.00  0.00    +0.042 C 
ENDBRANCH   1   6
BRANCH   1  12
ATOM     12  C   UNL     1      -3.386  -2.273  -1.296  0.00  0.00    +0.245 A 
ATOM     13  N   UNL     1      -4.058  -3.123  -2.018  0.00  0.00    -0.190 NA
ATOM     14  C   UNL     1      -4.467  -2.536  -3.159  0.00  0.00    +0.209 A 
ATOM     15  N   UNL     1      -4.048  -1.292  -3.163  0.00  0.00    -0.055 NA
ATOM     16  O   UNL     1      -3.343  -1.102  -1.945  0.00  0.00    -0.336 OA
BRANCH  14  17
ATOM     17  C   UNL     1      -5.255  -3.184  -4.228  0.00  0.00    +0.060 A 
ATOM     18  C   UNL     1      -5.700  -2.658  -5.412  0.00  0.00    +0.019 A 
ATOM     19  C   UNL     1      -6.425  -3.462  -6.262  0.00  0.00    +0.008 A 
ATOM     20  C   UNL     1      -6.676  -4.748  -5.904  0.00  0.00    +0.046 A 
ATOM     21  S   UNL     1      -5.867  -4.859  -4.316  0.00  0.00    -0.093 S 
ENDBRANCH  14  17
ENDBRANCH   1  12
TORSDOF 3
