REMARK  Name = ZINC40049757
REMARK  9 active torsions:
REMARK  status: ('A' for Active; 'I' for Inactive)
REMARK    1  A    between atoms: C_1  and  N_2
REMARK    2  A    between atoms: N_2  and  S_3
REMARK    3  A    between atoms: S_3  and  C_6
REMARK    4  A    between atoms: C_10  and  C_12
REMARK    5  A    between atoms: C_12  and  O_14
REMARK    6  A    between atoms: O_14  and  C_15
REMARK    7  A    between atoms: C_15  and  C_17
REMARK    8  A    between atoms: C_15  and  C_23
REMARK    9  A    between atoms: C_23  and  C_25
REMARK                            x       y       z     vdW  Elec       q    Type
REMARK                         _______ _______ _______ _____ _____    ______ ____
ROOT
ATOM      1  C   UNL     1       7.738  -2.347   1.153  0.00  0.00    +0.277 C 
ENDROOT
BRANCH   1   2
ATOM      2  C   UNL     1       7.819  -1.832   2.567  0.00  0.00    +0.000 A 
ATOM      3  C   UNL     1       7.808  -0.471   2.808  0.00  0.00    +0.008 A 
ATOM      4  C   UNL     1       7.883   0.001   4.105  0.00  0.00    +0.000 A 
ATOM      5  C   UNL     1       7.969  -0.887   5.161  0.00  0.00    +0.000 A 
ATOM      6  C   UNL     1       7.980  -2.248   4.919  0.00  0.00    +0.000 A 
ATOM      7  C   UNL     1       7.901  -2.721   3.622  0.00  0.00    +0.008 A 
ENDBRANCH   1   2
BRANCH   1   8
ATOM      8  C   UNL     1       9.118  -2.380   0.549  0.00  0.00    +0.206 C 
ATOM      9  O   UNL     1       9.477  -1.490  -0.195  0.00  0.00    -0.288 OA
BRANCH   8  10
ATOM     10  C   UNL     1       9.994  -3.445   0.849  0.00  0.00    +0.027 C 
ATOM     11  C   UNL     1      11.286  -3.621   0.387  0.00  0.00    +0.006 A 
ATOM     12  C   UNL     1      12.112  -2.861  -0.475  0.00  0.00    +0.010 A 
ATOM     13  C   UNL     1      13.364  -3.280  -0.763  0.00  0.00    +0.001 A 
ATOM     14  C   UNL     1      13.903  -4.465  -0.234  0.00  0.00    +0.002 A 
ATOM     15  C   UNL     1      13.198  -5.262   0.597  0.00  0.00    +0.026 A 
ATOM     16  C   UNL     1      11.824  -4.878   0.963  0.00  0.00    +0.043 A 
ATOM     17  N   UNL     1      10.937  -5.447   1.728  0.00  0.00    -0.380 N 
ATOM     18  C   UNL     1       9.719  -4.630   1.749  0.00  0.00    +0.152 C 
ATOM     19  H   UNL     1      11.063  -6.278   2.211  0.00  0.00    +0.160 HD
ENDBRANCH   8  10
ENDBRANCH   1   8
BRANCH   1  20
ATOM     20  O   UNL     1       6.901  -1.485   0.380  0.00  0.00    -0.445 OA
BRANCH  20  21
ATOM     21  C   UNL     1       5.586  -1.778   0.345  0.00  0.00    +0.340 C 
ATOM     22  O   UNL     1       5.162  -2.740   0.955  0.00  0.00    -0.245 OA
BRANCH  21  27
ATOM     23  C   UNL     1       2.438  -0.437  -1.202  0.00  0.00    +0.106 A 
ATOM     24  C   UNL     1       2.925   0.658  -1.895  0.00  0.00    +0.028 A 
ATOM     25  C   UNL     1       4.274   0.962  -1.861  0.00  0.00    +0.003 A 
ATOM     26  C   UNL     1       5.144   0.175  -1.136  0.00  0.00    +0.015 A 
ATOM     27  C   UNL     1       4.660  -0.931  -0.434  0.00  0.00    +0.061 A 
ATOM     28  C   UNL     1       3.296  -1.229  -0.467  0.00  0.00    +0.043 A 
BRANCH  23  29
ATOM     29  S   UNL     1       0.718  -0.816  -1.251  0.00  0.00    +0.058 S 
ATOM     30  O   UNL     1       0.599  -2.201  -0.959  0.00  0.00    -0.153 OA
ATOM     31  O   UNL     1       0.211  -0.243  -2.449  0.00  0.00    -0.153 OA
BRANCH  29  33
ATOM     32  C   UNL     1      -0.018   1.461   0.010  0.00  0.00    +0.127 C 
ATOM     33  N   UNL     1       0.002  -0.004   0.002  0.00  0.00    -0.193 NA
ATOM     34  H   UNL     1      -0.404  -0.499   0.731  0.00  0.00    +0.148 HD
ENDBRANCH  29  33
ENDBRANCH  23  29
ENDBRANCH  21  27
ENDBRANCH  20  21
ENDBRANCH   1  20
TORSDOF 8
