REMARK  Name = ZINC40321717
REMARK  7 active torsions:
REMARK  status: ('A' for Active; 'I' for Inactive)
REMARK    1  A    between atoms: C_4  and  S_7
REMARK    2  A    between atoms: S_7  and  C_10
REMARK    3  A    between atoms: C_13  and  C_15
REMARK    4  A    between atoms: N_17  and  C_18
REMARK    5  A    between atoms: C_18  and  C_19
REMARK    6  A    between atoms: C_19  and  C_21
REMARK    7  A    between atoms: C_19  and  N_26
REMARK                            x       y       z     vdW  Elec       q    Type
REMARK                         _______ _______ _______ _____ _____    ______ ____
ROOT
ATOM      1  C   UNL     1       5.518   0.330   4.400  0.00  0.00    +0.279 C 
ATOM      2  O   UNL     1       5.523  -0.396   5.377  0.00  0.00    -0.267 OA
ATOM      3  N   UNL     1       6.314   1.417   4.364  0.00  0.00    -0.310 N 
ATOM      4  H   UNL     1       6.311   1.995   3.586  0.00  0.00    +0.149 HD
ENDROOT
BRANCH   1   8
ATOM      5  C   UNL     1       3.651   0.161   1.312  0.00  0.00    +0.246 A 
ATOM      6  C   UNL     1       3.163  -0.943   1.919  0.00  0.00    +0.070 A 
ATOM      7  C   UNL     1       3.795  -1.041   3.168  0.00  0.00    +0.056 A 
ATOM      8  C   UNL     1       4.646   0.022   3.262  0.00  0.00    +0.192 A 
ATOM      9  O   UNL     1       4.548   0.738   2.123  0.00  0.00    -0.433 OA
BRANCH   5  10
ATOM     10  S   UNL     1       3.188   0.744  -0.285  0.00  0.00    +0.058 S 
ATOM     11  O   UNL     1       2.690  -0.380  -0.999  0.00  0.00    -0.161 OA
ATOM     12  O   UNL     1       4.273   1.528  -0.762  0.00  0.00    -0.161 OA
BRANCH  10  16
ATOM     13  C   UNL     1      -0.303   3.569   0.277  0.00  0.00    +0.000 A 
ATOM     14  C   UNL     1       0.991   4.055   0.306  0.00  0.00    +0.002 A 
ATOM     15  C   UNL     1       2.057   3.192   0.134  0.00  0.00    +0.027 A 
ATOM     16  C   UNL     1       1.829   1.843  -0.066  0.00  0.00    +0.097 A 
ATOM     17  C   UNL     1       0.535   1.357  -0.094  0.00  0.00    +0.027 A 
ATOM     18  C   UNL     1      -0.531   2.221   0.076  0.00  0.00    +0.002 A 
ENDBRANCH  10  16
ENDBRANCH   5  10
ENDBRANCH   1   8
BRANCH   3  19
ATOM     19  C   UNL     1       7.186   1.724   5.501  0.00  0.00    +0.097 C 
BRANCH  19  20
ATOM     20  C   UNL     1       8.075   2.920   5.154  0.00  0.00    +0.016 C 
BRANCH  20  21
ATOM     21  N   UNL     1       8.811   2.639   3.914  0.00  0.00    +0.387 N 
ATOM     22  C   UNL     1       9.678   1.465   4.135  0.00  0.00    -0.078 C 
ATOM     23  C   UNL     1       9.948   0.818   2.800  0.00  0.00    -0.019 C 
ATOM     24  C   UNL     1      11.286   1.294   2.203  0.00  0.00    -0.002 C 
ATOM     25  C   UNL     1      11.502   2.806   2.418  0.00  0.00    -0.002 C 
ATOM     26  C   UNL     1      10.244   3.604   2.194  0.00  0.00    -0.019 C 
ATOM     27  C   UNL     1       9.515   3.785   3.542  0.00  0.00    -0.078 C 
ATOM     28  H   UNL     1       8.147   2.416   3.188  0.00  0.00    -0.081 HD
ENDBRANCH  20  21
BRANCH  20  29
ATOM     29  C   UNL     1       9.052   3.162   6.275  0.00  0.00    +0.093 A 
ATOM     30  C   UNL     1       8.929   4.091   7.239  0.00  0.00    +0.043 A 
ATOM     31  C   UNL     1      10.063   3.968   8.075  0.00  0.00    +0.041 A 
ATOM     32  C   UNL     1      10.811   2.970   7.571  0.00  0.00    +0.195 A 
ATOM     33  O   UNL     1      10.191   2.482   6.484  0.00  0.00    -0.469 OA
ENDBRANCH  20  29
ENDBRANCH  19  20
ENDBRANCH   3  19
TORSDOF 7
