REMARK  Name = ZINC19635328
REMARK  10 active torsions:
REMARK  status: ('A' for Active; 'I' for Inactive)
REMARK    1  A    between atoms: C_1  and  C_2
REMARK    2  A    between atoms: C_2  and  C_3
REMARK    3  A    between atoms: C_2  and  N_4
REMARK    4  A    between atoms: C_7  and  N_10
REMARK    5  A    between atoms: N_13  and  C_20
REMARK    6  A    between atoms: C_15  and  C_17
REMARK    7  A    between atoms: C_17  and  C_18
REMARK    8  A    between atoms: C_18  and  O_19
REMARK    9  A    between atoms: C_20  and  C_21
REMARK   10  A    between atoms: C_26  and  C_27
REMARK                            x       y       z     vdW  Elec       q    Type
REMARK                         _______ _______ _______ _____ _____    ______ ____
ROOT
ATOM      1  N   UNL     1       3.361  -2.319  -3.932  0.00  0.00    -0.294 NA
ATOM      2  C   UNL     1       4.657  -1.640  -4.066  0.00  0.00    +0.100 C 
ATOM      3  C   UNL     1       5.364  -2.139  -5.328  0.00  0.00    +0.100 C 
ATOM      4  N   UNL     1       5.541  -3.595  -5.243  0.00  0.00    -0.295 NA
ATOM      5  C   UNL     1       4.245  -4.274  -5.109  0.00  0.00    +0.103 C 
ATOM      6  C   UNL     1       3.539  -3.775  -3.847  0.00  0.00    +0.073 C 
ENDROOT
BRANCH   1  10
ATOM      7  N   UNL     1       2.470   0.061  -0.564  0.00  0.00    +0.381 N 
ATOM      8  C   UNL     1       2.724  -1.363  -0.317  0.00  0.00    -0.077 C 
ATOM      9  C   UNL     1       3.471  -1.967  -1.508  0.00  0.00    +0.000 C 
ATOM     10  C   UNL     1       2.618  -1.810  -2.771  0.00  0.00    +0.054 C 
ATOM     11  C   UNL     1       2.297  -0.328  -2.977  0.00  0.00    +0.000 C 
ATOM     12  C   UNL     1       1.594   0.215  -1.731  0.00  0.00    -0.077 C 
ATOM     13  H   UNL     1       3.346   0.532  -0.738  0.00  0.00    -0.081 HD
BRANCH   7  15
ATOM     14  C   UNL     1       2.736   0.493   1.832  0.00  0.00    -0.014 C 
ATOM     15  C   UNL     1       1.823   0.653   0.614  0.00  0.00    -0.075 C 
ATOM     16  C   UNL     1       1.566   2.140   0.361  0.00  0.00    -0.014 C 
ENDBRANCH   7  15
ENDBRANCH   1  10
BRANCH   6  17
ATOM     17  C   UNL     1       2.171  -4.450  -3.726  0.00  0.00    +0.048 C 
BRANCH  17  18
ATOM     18  C   UNL     1       2.360  -5.957  -3.543  0.00  0.00    +0.157 C 
BRANCH  18  19
ATOM     19  O   UNL     1       1.083  -6.591  -3.460  0.00  0.00    -0.395 OA
ATOM     20  H   UNL     1       1.126  -7.550  -3.344  0.00  0.00    +0.209 HD
ENDBRANCH  18  19
ENDBRANCH  17  18
ENDBRANCH   6  17
BRANCH   4  21
ATOM     21  C   UNL     1       6.284  -4.104  -6.404  0.00  0.00    +0.123 C 
BRANCH  21  22
ATOM     22  C   UNL     1       7.692  -3.568  -6.373  0.00  0.00    +0.007 A 
ATOM     23  C   UNL     1       8.161  -2.519  -7.088  0.00  0.00    +0.110 A 
ATOM     24  N   UNL     1       9.465  -2.361  -6.779  0.00  0.00    -0.284 N 
ATOM     25  H   UNL     1      10.059  -1.685  -7.140  0.00  0.00    +0.188 HD
ATOM     26  N   UNL     1       9.809  -3.345  -5.843  0.00  0.00    -0.178 NA
ATOM     27  C   UNL     1       8.744  -4.064  -5.596  0.00  0.00    +0.070 A 
BRANCH  27  28
ATOM     28  C   UNL     1       8.666  -5.228  -4.643  0.00  0.00    +0.040 C 
ATOM     29  C   UNL     1       9.020  -4.756  -3.231  0.00  0.00    +0.010 C 
ATOM     30  C   UNL     1       8.941  -5.938  -2.263  0.00  0.00    +0.001 C 
ATOM     31  C   UNL     1       9.927  -7.023  -2.700  0.00  0.00    +0.000 C 
ATOM     32  C   UNL     1       9.573  -7.495  -4.112  0.00  0.00    +0.001 C 
ATOM     33  C   UNL     1       9.653  -6.313  -5.080  0.00  0.00    +0.010 C 
ENDBRANCH  27  28
ENDBRANCH  21  22
ENDBRANCH   4  21
TORSDOF 8
