REMARK  Name = ZINC21309232
REMARK  12 active torsions:
REMARK  status: ('A' for Active; 'I' for Inactive)
REMARK    1  A    between atoms: C_1  and  C_2
REMARK    2  A    between atoms: C_2  and  C_3
REMARK    3  A    between atoms: C_2  and  S_16
REMARK    4  A    between atoms: N_5  and  C_6
REMARK    5  A    between atoms: C_6  and  C_7
REMARK    6  A    between atoms: C_7  and  C_8
REMARK    7  A    between atoms: C_7  and  N_13
REMARK    8  A    between atoms: N_13  and  C_14
REMARK    9  A    between atoms: N_13  and  C_15
REMARK   10  A    between atoms: S_16  and  C_17
REMARK   11  A    between atoms: C_17  and  C_18
REMARK   12  A    between atoms: C_24  and  C_29
REMARK                            x       y       z     vdW  Elec       q    Type
REMARK                         _______ _______ _______ _____ _____    ______ ____
ROOT
ATOM      1  S   UNL     1       1.137  -1.956  -1.121  0.00  0.00    -0.141 S 
ENDROOT
BRANCH   1   3
ATOM      2  C   UNL     1       0.086   0.387  -0.177  0.00  0.00    +0.029 C 
ATOM      3  C   UNL     1       0.184  -1.101   0.164  0.00  0.00    +0.129 C 
BRANCH   3   4
ATOM      4  C   UNL     1       0.872  -1.267   1.494  0.00  0.00    +0.226 C 
ATOM      5  O   UNL     1       2.066  -1.476   1.538  0.00  0.00    -0.275 OA
ATOM      6  N   UNL     1       0.161  -1.184   2.636  0.00  0.00    -0.316 N 
ATOM      7  H   UNL     1      -0.794  -1.018   2.602  0.00  0.00    +0.149 HD
BRANCH   6   8
ATOM      8  C   UNL     1       0.830  -1.345   3.929  0.00  0.00    +0.096 C 
BRANCH   8   9
ATOM      9  C   UNL     1      -0.170  -1.081   5.057  0.00  0.00    +0.016 C 
BRANCH   9  10
ATOM     10  C   UNL     1      -1.241  -2.141   5.039  0.00  0.00    +0.093 A 
ATOM     11  C   UNL     1      -1.298  -3.215   5.846  0.00  0.00    +0.043 A 
ATOM     12  C   UNL     1      -2.459  -3.937   5.486  0.00  0.00    +0.041 A 
ATOM     13  C   UNL     1      -3.042  -3.260   4.481  0.00  0.00    +0.195 A 
ATOM     14  O   UNL     1      -2.303  -2.170   4.218  0.00  0.00    -0.469 OA
ENDBRANCH   9  10
BRANCH   9  15
ATOM     15  N   UNL     1      -0.785   0.240   4.867  0.00  0.00    +0.384 N 
ATOM     16  C   UNL     1      -1.751   0.490   5.944  0.00  0.00    -0.096 C 
ATOM     17  C   UNL     1       0.258   1.274   4.894  0.00  0.00    -0.096 C 
ATOM     18  H   UNL     1      -1.259   0.265   3.977  0.00  0.00    -0.082 HD
ENDBRANCH   9  15
ENDBRANCH   8   9
ENDBRANCH   6   8
ENDBRANCH   3   4
ENDBRANCH   1   3
BRANCH   1  19
ATOM     19  C   UNL     1       0.113  -1.794  -2.609  0.00  0.00    +0.144 C 
BRANCH  19  20
ATOM     20  C   UNL     1       0.799  -2.470  -3.768  0.00  0.00    +0.121 A 
ATOM     21  N   UNL     1       0.206  -2.465  -4.989  0.00  0.00    -0.310 N 
ATOM     22  H   UNL     1      -0.652  -2.026  -5.100  0.00  0.00    +0.170 HD
ATOM     23  C   UNL     1       0.786  -3.057  -6.050  0.00  0.00    +0.260 A 
ATOM     24  O   UNL     1       0.241  -3.043  -7.140  0.00  0.00    -0.267 OA
ATOM     25  C   UNL     1       2.052  -3.703  -5.878  0.00  0.00    +0.080 A 
ATOM     26  C   UNL     1       2.871  -4.404  -6.859  0.00  0.00    +0.004 A 
ATOM     27  C   UNL     1       4.048  -4.942  -6.460  0.00  0.00    +0.056 A 
ATOM     28  S   UNL     1       4.123  -4.532  -4.727  0.00  0.00    -0.076 S 
ATOM     29  C   UNL     1       2.587  -3.657  -4.580  0.00  0.00    +0.116 A 
ATOM     30  N   UNL     1       1.956  -3.046  -3.581  0.00  0.00    -0.226 NA
BRANCH  26  31
ATOM     31  C   UNL     1       2.423  -4.527  -8.267  0.00  0.00    -0.017 A 
ATOM     32  C   UNL     1       1.134  -4.974  -8.555  0.00  0.00    +0.008 A 
ATOM     33  C   UNL     1       0.723  -5.086  -9.868  0.00  0.00    +0.001 A 
ATOM     34  C   UNL     1       1.586  -4.755 -10.896  0.00  0.00    +0.000 A 
ATOM     35  C   UNL     1       2.866  -4.310 -10.617  0.00  0.00    +0.001 A 
ATOM     36  C   UNL     1       3.287  -4.189  -9.308  0.00  0.00    +0.008 A 
ENDBRANCH  26  31
ENDBRANCH  19  20
ENDBRANCH   1  19
TORSDOF 9
