REMARK  Name = ZINC56044815
REMARK  6 active torsions:
REMARK  status: ('A' for Active; 'I' for Inactive)
REMARK    1  A    between atoms: C_1  and  N_2
REMARK    2  A    between atoms: C_3  and  C_5
REMARK    3  A    between atoms: C_5  and  N_6
REMARK    4  A    between atoms: C_9  and  N_12
REMARK    5  A    between atoms: N_12  and  S_13
REMARK    6  A    between atoms: S_13  and  C_16
REMARK                            x       y       z     vdW  Elec       q    Type
REMARK                         _______ _______ _______ _____ _____    ______ ____
ROOT
ATOM      1  N   UNL     1      -2.928  -2.367   0.288  0.00  0.00    +0.385 N 
ATOM      2  C   UNL     1      -3.222  -2.453  -1.147  0.00  0.00    -0.077 C 
ATOM      3  C   UNL     1      -4.661  -2.933  -1.349  0.00  0.00    +0.002 C 
ATOM      4  C   UNL     1      -4.827  -4.314  -0.709  0.00  0.00    +0.073 C 
ATOM      5  C   UNL     1      -4.446  -4.229   0.772  0.00  0.00    +0.002 C 
ATOM      6  C   UNL     1      -3.015  -3.701   0.895  0.00  0.00    -0.077 C 
ATOM      7  H   UNL     1      -3.596  -1.754   0.731  0.00  0.00    -0.081 HD
ENDROOT
BRANCH   4   8
ATOM      8  N   UNL     1      -6.221  -4.747  -0.832  0.00  0.00    -0.187 NA
ATOM      9  H   UNL     1      -6.927  -4.235  -0.407  0.00  0.00    +0.148 HD
BRANCH   8  10
ATOM     10  S   UNL     1      -6.592  -6.110  -1.696  0.00  0.00    +0.060 S 
ATOM     11  O   UNL     1      -7.998  -6.290  -1.588  0.00  0.00    -0.153 OA
ATOM     12  O   UNL     1      -5.934  -5.988  -2.950  0.00  0.00    -0.153 OA
BRANCH  10  13
ATOM     13  C   UNL     1      -5.845  -7.473  -0.865  0.00  0.00    +0.119 A 
ATOM     14  C   UNL     1      -4.851  -8.202  -1.491  0.00  0.00    +0.032 A 
ATOM     15  C   UNL     1      -4.264  -9.271  -0.840  0.00  0.00    +0.040 A 
ATOM     16  C   UNL     1      -4.672  -9.611   0.439  0.00  0.00    +0.125 A 
ATOM     17  C   UNL     1      -5.667  -8.881   1.065  0.00  0.00    +0.055 A 
ATOM     18  C   UNL     1      -6.250  -7.809   0.414  0.00  0.00    +0.047 A 
ATOM     19 BR   UNL     1      -7.605  -6.806   1.270  0.00  0.00    -0.048 Br
ATOM     20  F   UNL     1      -4.099 -10.656   1.075  0.00  0.00    -0.205 F 
ENDBRANCH  10  13
ENDBRANCH   8  10
ENDBRANCH   4   8
BRANCH   1  21
ATOM     21  C   UNL     1      -1.573  -1.832   0.478  0.00  0.00    +0.019 C 
BRANCH  21  24
ATOM     22  C   UNL     1      -0.308   1.657  -0.462  0.00  0.00    +0.128 C 
ATOM     23  N   UNL     1      -0.364   0.280   0.036  0.00  0.00    -0.320 N 
ATOM     24  C   UNL     1      -1.516  -0.416  -0.035  0.00  0.00    +0.196 C 
ATOM     25  O   UNL     1      -2.506   0.097  -0.511  0.00  0.00    -0.278 OA
ATOM     26  H   UNL     1       0.428  -0.130   0.417  0.00  0.00    +0.148 HD
ENDBRANCH  21  24
ENDBRANCH   1  21
TORSDOF 5
