REMARK  Name = ZINC40680693
REMARK  6 active torsions:
REMARK  status: ('A' for Active; 'I' for Inactive)
REMARK    1  A    between atoms: C_1  and  C_2
REMARK    2  A    between atoms: C_2  and  C_3
REMARK    3  A    between atoms: C_2  and  C_4
REMARK    4  A    between atoms: C_2  and  N_5
REMARK    5  A    between atoms: C_7  and  N_24
REMARK    6  A    between atoms: C_8  and  N_12
REMARK                            x       y       z     vdW  Elec       q    Type
REMARK                         _______ _______ _______ _____ _____    ______ ____
ROOT
ATOM      1  N   UNL     1       3.303  -1.174   0.722  0.00  0.00    -0.323 N 
ATOM      2  C   UNL     1       3.317  -0.461  -0.470  0.00  0.00    +0.145 A 
ATOM      3  C   UNL     1       4.046  -0.926  -1.566  0.00  0.00    +0.105 A 
ATOM      4  C   UNL     1       4.025  -0.172  -2.740  0.00  0.00    +0.147 A 
ATOM      5  N   UNL     1       3.316   0.954  -2.771  0.00  0.00    -0.219 NA
ATOM      6  C   UNL     1       2.641   1.357  -1.714  0.00  0.00    +0.225 A 
ATOM      7  N   UNL     1       2.630   0.673  -0.588  0.00  0.00    -0.219 NA
ATOM      8  H   UNL     1       3.807  -2.000   0.800  0.00  0.00    +0.148 HD
ENDROOT
BRANCH   4   9
ATOM      9  N   UNL     1       4.735  -0.590  -3.860  0.00  0.00    -0.311 N 
ATOM     10  C   UNL     1       4.073  -1.368  -4.917  0.00  0.00    +0.125 C 
ATOM     11  C   UNL     1       4.272  -0.645  -6.255  0.00  0.00    +0.125 C 
ATOM     12  N   UNL     1       5.697  -0.316  -6.404  0.00  0.00    -0.314 N 
ATOM     13  C   UNL     1       6.358   0.462  -5.347  0.00  0.00    +0.125 C 
ATOM     14  C   UNL     1       6.158  -0.256  -4.011  0.00  0.00    +0.125 C 
ATOM     15  C   UNL     1       6.407  -0.734  -7.524  0.00  0.00    +0.099 A 
ATOM     16  C   UNL     1       5.735  -1.349  -8.576  0.00  0.00    +0.042 A 
ATOM     17  C   UNL     1       6.453  -1.759  -9.684  0.00  0.00    +0.005 A 
ATOM     18  C   UNL     1       7.824  -1.540  -9.704  0.00  0.00    +0.018 A 
ATOM     19  C   UNL     1       8.426  -0.924  -8.625  0.00  0.00    +0.084 A 
ATOM     20  N   UNL     1       7.715  -0.538  -7.582  0.00  0.00    -0.350 N 
ATOM     21  H   UNL     1       8.162  -0.104  -6.839  0.00  0.00    +0.166 HD
ENDBRANCH   4   9
BRANCH   1  23
ATOM     22  C   UNL     1       1.052  -0.582   1.474  0.00  0.00    +0.031 C 
ATOM     23  C   UNL     1       2.529  -0.679   1.863  0.00  0.00    +0.025 C 
ATOM     24  C   UNL     1       3.042   0.705   2.265  0.00  0.00    +0.031 C 
ATOM     25  C   UNL     1       2.683  -1.642   3.041  0.00  0.00    +0.031 C 
ENDBRANCH   1  23
BRANCH   3  26
ATOM     26  N   UNL     1       4.782  -2.121  -1.489  0.00  0.00    -0.353 N 
ATOM     27  H   UNL     1       4.848  -2.596  -0.646  0.00  0.00    +0.143 HD
ATOM     28  H   UNL     1       5.224  -2.470  -2.278  0.00  0.00    +0.143 HD
ENDBRANCH   3  26
TORSDOF 3
