REMARK  Name = ZINC20487021
REMARK  11 active torsions:
REMARK  status: ('A' for Active; 'I' for Inactive)
REMARK    1  A    between atoms: C_1  and  C_2
REMARK    2  A    between atoms: C_5  and  C_30
REMARK    3  A    between atoms: C_6  and  N_8
REMARK    4  A    between atoms: C_9  and  C_11
REMARK    5  A    between atoms: C_11  and  N_12
REMARK    6  A    between atoms: N_12  and  C_13
REMARK    7  A    between atoms: N_12  and  S_14
REMARK    8  A    between atoms: S_14  and  C_17
REMARK    9  A    between atoms: C_23  and  C_28
REMARK   10  A    between atoms: C_23  and  C_29
REMARK   11  A    between atoms: N_26  and  C_27
REMARK                            x       y       z     vdW  Elec       q    Type
REMARK                         _______ _______ _______ _____ _____    ______ ____
ROOT
ATOM      1  S   UNL     1      -1.246   7.490   0.066  0.00  0.00    +0.061 S 
ATOM      2  O   UNL     1      -0.298   8.395  -0.483  0.00  0.00    -0.153 OA
ATOM      3  O   UNL     1      -2.551   7.333  -0.474  0.00  0.00    -0.153 OA
ENDROOT
BRANCH   1   4
ATOM      4  C   UNL     1      -0.495   5.896   0.040  0.00  0.00    +0.106 A 
ATOM      5  C   UNL     1       0.883   5.779   0.026  0.00  0.00    +0.030 A 
ATOM      6  C   UNL     1       1.477   4.534   0.006  0.00  0.00    +0.026 A 
ATOM      7  C   UNL     1       0.691   3.384  -0.000  0.00  0.00    +0.040 A 
ATOM      8  C   UNL     1      -0.692   3.515   0.014  0.00  0.00    -0.010 A 
ATOM      9  C   UNL     1      -1.283   4.758   0.034  0.00  0.00    +0.035 A 
ATOM     10  C   UNL     1      -1.252   2.111  -0.005  0.00  0.00    +0.068 C 
ATOM     11  C   UNL     1      -0.025   1.225  -0.020  0.00  0.00    +0.230 C 
ATOM     12  O   UNL     1      -0.011   0.012  -0.035  0.00  0.00    -0.274 OA
ATOM     13  N   UNL     1       1.048   2.035  -0.020  0.00  0.00    -0.273 N 
ATOM     14  C   UNL     1       2.432   1.557  -0.039  0.00  0.00    +0.138 C 
ATOM     15  C   UNL     1      -2.094   1.883  -1.262  0.00  0.00    +0.025 C 
ATOM     16  C   UNL     1      -2.084   1.852   1.253  0.00  0.00    +0.025 C 
ENDBRANCH   1   4
BRANCH   1  17
ATOM     17  N   UNL     1      -1.440   7.914   1.655  0.00  0.00    -0.171 NA
ATOM     18  C   UNL     1      -0.378   8.642   2.354  0.00  0.00    +0.132 C 
BRANCH  17  19
ATOM     19  C   UNL     1      -2.673   7.561   2.362  0.00  0.00    +0.205 C 
BRANCH  19  21
ATOM     20  N   UNL     1      -3.480   5.742   3.833  0.00  0.00    -0.284 N 
ATOM     21  C   UNL     1      -2.472   6.265   3.106  0.00  0.00    +0.233 C 
ATOM     22  O   UNL     1      -1.404   5.693   3.051  0.00  0.00    -0.274 OA
ATOM     23  H   UNL     1      -4.423   6.297   3.944  0.00  0.00    +0.155 HD
BRANCH  20  29
ATOM     24  C   UNL     1      -0.599   2.470   6.104  0.00  0.00    +0.044 C 
ATOM     25  C   UNL     1      -1.940   2.882   5.555  0.00  0.00    -0.049 A 
ATOM     26  C   UNL     1      -3.021   2.025   5.657  0.00  0.00    +0.004 A 
ATOM     27  C   UNL     1      -4.253   2.399   5.154  0.00  0.00    +0.005 A 
ATOM     28  C   UNL     1      -4.409   3.631   4.548  0.00  0.00    -0.029 A 
ATOM     29  C   UNL     1      -3.326   4.494   4.445  0.00  0.00    +0.037 A 
ATOM     30  C   UNL     1      -2.088   4.113   4.947  0.00  0.00    +0.027 A 
ATOM     31  C   UNL     1      -5.752   4.038   4.000  0.00  0.00    +0.045 C 
ENDBRANCH  20  29
ENDBRANCH  19  21
ENDBRANCH  17  19
ENDBRANCH   1  17
TORSDOF 5
