REMARK  Name = ZINC28115895
REMARK  2 active torsions:
REMARK  status: ('A' for Active; 'I' for Inactive)
REMARK    1  A    between atoms: N_8  and  N_11
REMARK    2  A    between atoms: C_12  and  C_14
REMARK                            x       y       z     vdW  Elec       q    Type
REMARK                         _______ _______ _______ _____ _____    ______ ____
ROOT
ATOM      1  N   UNL     1      -2.222   8.132   0.364  0.00  0.00    -0.229 N 
ATOM      2  C   UNL     1      -1.210   7.309   0.025  0.00  0.00    +0.273 C 
ATOM      3  O   UNL     1      -0.256   7.742  -0.587  0.00  0.00    -0.270 OA
ATOM      4  H   UNL     1      -3.087   7.740   0.919  0.00  0.00    +0.173 HD
ENDROOT
BRANCH   1  12
ATOM      5  C   UNL     1      -2.413  13.905  -1.606  0.00  0.00    +0.000 A 
ATOM      6  C   UNL     1      -1.483  14.088  -0.597  0.00  0.00    +0.001 A 
ATOM      7  C   UNL     1      -1.085  13.022   0.182  0.00  0.00    +0.011 A 
ATOM      8  C   UNL     1      -1.621  11.754  -0.047  0.00  0.00    +0.019 A 
ATOM      9  C   UNL     1      -2.558  11.580  -1.066  0.00  0.00    -0.018 A 
ATOM     10  C   UNL     1      -2.949  12.651  -1.839  0.00  0.00    +0.006 A 
ATOM     11  C   UNL     1      -2.943  10.122  -1.065  0.00  0.00    +0.165 C 
ATOM     12  N   UNL     1      -2.173   9.486   0.009  0.00  0.00    -0.231 N 
ATOM     13  C   UNL     1      -1.399  10.450   0.613  0.00  0.00    +0.117 C 
ATOM     14  N   UNL     1      -0.590  10.244   1.613  0.00  0.00    -0.385 N 
ATOM     15  H   UNL     1      -0.490   9.235   2.040  0.00  0.00    +0.157 HD
ATOM     16  H   UNL     1      -0.007  11.078   2.030  0.00  0.00    +0.157 HD
ENDBRANCH   1  12
BRANCH   2  17
ATOM     17  C   UNL     1      -1.263   5.852   0.407  0.00  0.00    +0.297 C 
ATOM     18  C   UNL     1      -2.424   5.167  -0.326  0.00  0.00    +0.283 C 
ATOM     19  O   UNL     1      -2.437   3.785   0.048  0.00  0.00    -0.484 OA
ATOM     20  C   UNL     1      -1.241   3.136   0.030  0.00  0.00    +0.162 A 
ATOM     21  C   UNL     1      -1.219   1.749   0.017  0.00  0.00    +0.049 A 
ATOM     22  C   UNL     1      -0.013   1.076   0.008  0.00  0.00    +0.004 A 
ATOM     23  C   UNL     1       1.176   1.782   0.000  0.00  0.00    +0.004 A 
ATOM     24  C   UNL     1       1.161   3.164   0.007  0.00  0.00    +0.049 A 
ATOM     25  C   UNL     1      -0.046   3.846   0.020  0.00  0.00    +0.163 A 
ATOM     26  O   UNL     1      -0.045   5.207   0.019  0.00  0.00    -0.472 OA
ENDBRANCH   2  17
TORSDOF 2
