REMARK  Name = ZINC12040136
REMARK  10 active torsions:
REMARK  status: ('A' for Active; 'I' for Inactive)
REMARK    1  A    between atoms: C_1  and  C_2
REMARK    2  A    between atoms: C_2  and  C_4
REMARK    3  A    between atoms: C_2  and  N_17
REMARK    4  A    between atoms: C_4  and  N_5
REMARK    5  A    between atoms: C_6  and  C_8
REMARK    6  A    between atoms: C_8  and  O_9
REMARK    7  A    between atoms: O_9  and  C_10
REMARK    8  A    between atoms: C_18  and  C_20
REMARK    9  A    between atoms: C_20  and  O_21
REMARK   10  A    between atoms: O_21  and  C_22
REMARK                            x       y       z     vdW  Elec       q    Type
REMARK                         _______ _______ _______ _____ _____    ______ ____
ROOT
ATOM      1  C   UNL     1       1.731   2.254  -1.440  0.00  0.00    +0.029 C 
ATOM      2  C   UNL     1       1.242   2.093   0.001  0.00  0.00    +0.087 C 
ENDROOT
BRANCH   2   3
ATOM      3  N   UNL     1      -0.016   1.344   0.009  0.00  0.00    -0.308 N 
ATOM      4  C   UNL     1       0.002  -0.004   0.002  0.00  0.00    +0.251 C 
ATOM      5  O   UNL     1       1.060  -0.596  -0.011  0.00  0.00    -0.272 OA
ATOM      6  H   UNL     1      -0.863   1.817   0.016  0.00  0.00    +0.149 HD
BRANCH   4   7
ATOM      7  C   UNL     1      -1.293  -0.775   0.010  0.00  0.00    +0.324 C 
BRANCH   7   8
ATOM      8  O   UNL     1      -1.012  -2.176   0.000  0.00  0.00    -0.483 OA
BRANCH   8   9
ATOM      9  C   UNL     1      -2.079  -3.019   0.006  0.00  0.00    +0.121 A 
ATOM     10  C   UNL     1      -3.368  -2.507   0.026  0.00  0.00    +0.047 A 
ATOM     11  C   UNL     1      -4.451  -3.365   0.026  0.00  0.00    +0.019 A 
ATOM     12  C   UNL     1      -4.250  -4.734   0.017  0.00  0.00    +0.018 A 
ATOM     13  C   UNL     1      -2.965  -5.246   0.002  0.00  0.00    +0.019 A 
ATOM     14  C   UNL     1      -1.880  -4.392  -0.004  0.00  0.00    +0.047 A 
ATOM     15 BR   UNL     1      -5.734  -5.906   0.023  0.00  0.00    -0.050 Br
ENDBRANCH   8   9
ENDBRANCH   7   8
ENDBRANCH   4   7
ENDBRANCH   2   3
BRANCH   2  16
ATOM     16  C   UNL     1       1.018   3.474   0.621  0.00  0.00    +0.126 C 
BRANCH  16  17
ATOM     17  N   UNL     1       0.437   3.321   1.957  0.00  0.00    -0.311 N 
ATOM     18  C   UNL     1       0.151   4.412   2.696  0.00  0.00    +0.251 C 
ATOM     19  O   UNL     1       0.375   5.519   2.255  0.00  0.00    -0.272 OA
ATOM     20  H   UNL     1       0.258   2.436   2.310  0.00  0.00    +0.149 HD
BRANCH  18  21
ATOM     21  C   UNL     1      -0.446   4.254   4.071  0.00  0.00    +0.324 C 
BRANCH  21  22
ATOM     22  O   UNL     1      -0.656   5.544   4.649  0.00  0.00    -0.483 OA
BRANCH  22  23
ATOM     23  C   UNL     1      -1.192   5.581   5.898  0.00  0.00    +0.121 A 
ATOM     24  C   UNL     1      -1.515   4.399   6.550  0.00  0.00    +0.047 A 
ATOM     25  C   UNL     1      -2.055   4.439   7.821  0.00  0.00    +0.019 A 
ATOM     26  C   UNL     1      -2.284   5.655   8.439  0.00  0.00    +0.018 A 
ATOM     27  C   UNL     1      -1.969   6.834   7.788  0.00  0.00    +0.019 A 
ATOM     28  C   UNL     1      -1.423   6.799   6.519  0.00  0.00    +0.047 A 
ATOM     29 BR   UNL     1      -3.030   5.706  10.176  0.00  0.00    -0.050 Br
ENDBRANCH  22  23
ENDBRANCH  21  22
ENDBRANCH  18  21
ENDBRANCH  16  17
ENDBRANCH   2  16
TORSDOF 9
