REMARK  Name = ZINC12247564
REMARK  7 active torsions:
REMARK  status: ('A' for Active; 'I' for Inactive)
REMARK    1  A    between atoms: C_4  and  C_7
REMARK    2  A    between atoms: C_7  and  C_8
REMARK    3  A    between atoms: C_7  and  C_29
REMARK    4  A    between atoms: C_8  and  C_9
REMARK    5  A    between atoms: C_9  and  N_10
REMARK    6  A    between atoms: C_22  and  C_23
REMARK    7  A    between atoms: C_22  and  N_66
REMARK                            x       y       z     vdW  Elec       q    Type
REMARK                         _______ _______ _______ _____ _____    ______ ____
ROOT
ATOM      1  N   UNL     1       0.155  -1.350  -3.610  0.00  0.00    -0.298 N 
ATOM      2  C   UNL     1      -0.929  -0.997  -4.514  0.00  0.00    +0.076 C 
ATOM      3  C   UNL     1      -0.987   0.515  -4.721  0.00  0.00    +0.004 C 
ATOM      4  C   UNL     1       0.260   0.979  -5.476  0.00  0.00    -0.076 C 
ATOM      5  C   UNL     1       0.462  -1.163  -6.585  0.00  0.00    -0.073 C 
ATOM      6  C   UNL     1      -0.756  -1.688  -5.865  0.00  0.00    -0.007 C 
ATOM      7  C   UNL     1      -0.533  -3.187  -5.618  0.00  0.00    +0.013 C 
ATOM      8  C   UNL     1       0.822  -3.365  -4.929  0.00  0.00    +0.096 C 
ATOM      9  C   UNL     1       0.927  -2.429  -3.759  0.00  0.00    +0.216 C 
ATOM     10  O   UNL     1       1.778  -2.646  -2.923  0.00  0.00    -0.276 OA
ATOM     11  N   UNL     1       0.304   0.292  -6.784  0.00  0.00    +0.384 N 
ATOM     12  H   UNL     1      -0.577   0.467  -7.282  0.00  0.00    -0.081 HD
ENDROOT
BRANCH   1  13
ATOM     13  C   UNL     1       0.419  -0.467  -2.472  0.00  0.00    +0.109 C 
BRANCH  13  14
ATOM     14  C   UNL     1      -0.516  -0.830  -1.317  0.00  0.00    +0.032 C 
BRANCH  14  15
ATOM     15  C   UNL     1      -0.241   0.093  -0.128  0.00  0.00    +0.050 C 
BRANCH  15  19
ATOM     16  C   UNL     1      -1.251   4.108  -1.179  0.00  0.00    +0.000 A 
ATOM     17  C   UNL     1      -0.004   3.824  -0.654  0.00  0.00    +0.000 A 
ATOM     18  C   UNL     1       0.323   2.525  -0.314  0.00  0.00    +0.004 A 
ATOM     19  C   UNL     1      -0.598   1.510  -0.498  0.00  0.00    -0.040 A 
ATOM     20  C   UNL     1      -1.843   1.793  -1.028  0.00  0.00    +0.004 A 
ATOM     21  C   UNL     1      -2.171   3.093  -1.364  0.00  0.00    +0.000 A 
ENDBRANCH  15  19
BRANCH  15  22
ATOM     22  C   UNL     1      -1.074  -0.343   1.050  0.00  0.00    -0.040 A 
ATOM     23  C   UNL     1      -0.474  -0.573   2.274  0.00  0.00    +0.004 A 
ATOM     24  C   UNL     1      -1.239  -0.969   3.355  0.00  0.00    +0.000 A 
ATOM     25  C   UNL     1      -2.603  -1.143   3.210  0.00  0.00    +0.000 A 
ATOM     26  C   UNL     1      -3.202  -0.917   1.986  0.00  0.00    +0.000 A 
ATOM     27  C   UNL     1      -2.438  -0.517   0.905  0.00  0.00    +0.004 A 
ENDBRANCH  15  22
ENDBRANCH  14  15
ENDBRANCH  13  14
ENDBRANCH   1  13
BRANCH  11  28
ATOM     28  C   UNL     1       1.425   0.816  -7.593  0.00  0.00    -0.022 C 
BRANCH  28  29
ATOM     29  C   UNL     1       2.744   0.489  -6.942  0.00  0.00    +0.025 A 
ATOM     30  C   UNL     1       3.433  -0.646  -7.327  0.00  0.00    +0.021 A 
ATOM     31  C   UNL     1       4.648  -0.935  -6.726  0.00  0.00    +0.003 A 
ATOM     32  C   UNL     1       5.122  -0.073  -5.748  0.00  0.00    +0.020 A 
ATOM     33  C   UNL     1       4.375   1.039  -5.411  0.00  0.00    +0.111 A 
ATOM     34  N   UNL     1       3.225   1.286  -6.008  0.00  0.00    -0.262 NA
ENDBRANCH  28  29
ENDBRANCH  11  28
TORSDOF 7
