REMARK  Name = ZINC28462474
REMARK  9 active torsions:
REMARK  status: ('A' for Active; 'I' for Inactive)
REMARK    1  A    between atoms: C_1  and  C_2
REMARK    2  A    between atoms: C_2  and  C_3
REMARK    3  A    between atoms: C_5  and  C_19
REMARK    4  A    between atoms: C_6  and  O_18
REMARK    5  A    between atoms: C_8  and  O_9
REMARK    6  A    between atoms: O_9  and  C_10
REMARK    7  A    between atoms: C_10  and  C_11
REMARK    8  A    between atoms: C_20  and  C_25
REMARK    9  A    between atoms: C_28  and  C_30
REMARK                            x       y       z     vdW  Elec       q    Type
REMARK                         _______ _______ _______ _____ _____    ______ ____
ROOT
ATOM      1  C   UNL     1      -1.740  -0.961  -0.819  0.00  0.00    -0.005 A 
ATOM      2  C   UNL     1      -1.560  -2.318  -0.649  0.00  0.00    +0.021 A 
ATOM      3  C   UNL     1      -0.291  -2.823  -0.374  0.00  0.00    +0.045 A 
ATOM      4  C   UNL     1       0.798  -1.950  -0.276  0.00  0.00    +0.130 A 
ATOM      5  C   UNL     1       0.609  -0.591  -0.453  0.00  0.00    +0.092 A 
ATOM      6  C   UNL     1      -0.658  -0.096  -0.727  0.00  0.00    +0.128 A 
ENDROOT
BRANCH   3   7
ATOM      7  C   UNL     1      -0.095  -4.280  -0.185  0.00  0.00    +0.105 A 
ATOM      8  C   UNL     1      -0.812  -5.109   0.714  0.00  0.00    +0.046 A 
ATOM      9  C   UNL     1      -0.329  -6.375   0.578  0.00  0.00    +0.115 A 
ATOM     10  N   UNL     1       0.644  -6.348  -0.358  0.00  0.00    -0.283 N 
ATOM     11  H   UNL     1       1.177  -7.273  -0.624  0.00  0.00    +0.188 HD
ATOM     12  N   UNL     1       0.770  -5.035  -0.826  0.00  0.00    -0.173 NA
BRANCH   8  13
ATOM     13  C   UNL     1      -1.893  -4.676   1.635  0.00  0.00    +0.082 A 
ATOM     14  C   UNL     1      -2.600  -5.588   2.370  0.00  0.00    +0.075 A 
ATOM     15  S   UNL     1      -3.715  -4.505   3.252  0.00  0.00    -0.080 S 
ATOM     16  C   UNL     1      -3.158  -3.005   2.578  0.00  0.00    +0.076 A 
ATOM     17  N   UNL     1      -2.205  -3.397   1.767  0.00  0.00    -0.244 NA
ATOM     18  C   UNL     1      -3.647  -1.607   2.855  0.00  0.00    +0.073 C 
ENDBRANCH   8  13
ENDBRANCH   3   7
BRANCH   1  20
ATOM     19  C   UNL     1      -3.293  -0.266  -2.623  0.00  0.00    +0.009 C 
ATOM     20  C   UNL     1      -3.115  -0.416  -1.111  0.00  0.00    +0.035 C 
ENDBRANCH   1  20
BRANCH   4  21
ATOM     21  O   UNL     1       2.038  -2.436  -0.008  0.00  0.00    -0.506 OA
ATOM     22  H   UNL     1       2.894  -1.749   0.068  0.00  0.00    +0.292 HD
ENDBRANCH   4  21
BRANCH   6  23
ATOM     23  O   UNL     1      -0.841   1.239  -0.900  0.00  0.00    -0.487 OA
BRANCH  23  24
ATOM     24  C   UNL     1       0.314   2.072  -0.786  0.00  0.00    +0.264 C 
BRANCH  24  25
ATOM     25  C   UNL     1      -0.080   3.510  -1.007  0.00  0.00    -0.010 A 
ATOM     26  C   UNL     1      -0.050   4.047  -2.281  0.00  0.00    +0.008 A 
ATOM     27  C   UNL     1      -0.417   5.364  -2.485  0.00  0.00    +0.020 A 
ATOM     28  C   UNL     1      -0.803   6.148  -1.413  0.00  0.00    +0.041 A 
ATOM     29  C   UNL     1      -0.828   5.612  -0.137  0.00  0.00    +0.020 A 
ATOM     30  C   UNL     1      -0.466   4.293   0.065  0.00  0.00    +0.008 A 
ATOM     31 CL   UNL     1      -1.258   7.804  -1.667  0.00  0.00    -0.084 Cl
ENDBRANCH  24  25
ENDBRANCH  23  24
ENDBRANCH   6  23
TORSDOF 7
