REMARK  Name = ZINC02684722
REMARK  7 active torsions:
REMARK  status: ('A' for Active; 'I' for Inactive)
REMARK    1  A    between atoms: C_1  and  C_2
REMARK    2  A    between atoms: C_4  and  C_30
REMARK    3  A    between atoms: C_10  and  S_11
REMARK    4  A    between atoms: S_11  and  C_12
REMARK    5  A    between atoms: C_18  and  N_20
REMARK    6  A    between atoms: N_20  and  S_21
REMARK    7  A    between atoms: S_21  and  C_24
REMARK                            x       y       z     vdW  Elec       q    Type
REMARK                         _______ _______ _______ _____ _____    ______ ____
ROOT
ATOM      1  C   UNL     1       1.423   1.615  -0.003  0.00  0.00    +0.073 C 
ATOM      2  C   UNL     1       2.139   1.122  -1.262  0.00  0.00    +0.016 C 
ATOM      3  C   UNL     1       1.399   1.629  -2.501  0.00  0.00    +0.001 C 
ATOM      4  C   UNL     1      -0.037   1.099  -2.490  0.00  0.00    +0.002 C 
ATOM      5  C   UNL     1      -0.753   1.593  -1.232  0.00  0.00    +0.021 C 
ATOM      6  C   UNL     1      -0.013   1.086   0.008  0.00  0.00    +0.090 C 
ENDROOT
BRANCH   6   7
ATOM      7  N   UNL     1      -0.698   1.558   1.213  0.00  0.00    -0.186 NA
ATOM      8  H   UNL     1      -0.501   2.438   1.570  0.00  0.00    +0.148 HD
BRANCH   7   9
ATOM      9  S   UNL     1      -1.810   0.590   1.967  0.00  0.00    +0.059 S 
ATOM     10  O   UNL     1      -2.271   1.308   3.103  0.00  0.00    -0.153 OA
ATOM     11  O   UNL     1      -2.689   0.117   0.956  0.00  0.00    -0.153 OA
BRANCH   9  12
ATOM     12  C   UNL     1      -0.945  -0.818   2.579  0.00  0.00    +0.105 A 
ATOM     13  C   UNL     1      -0.811  -1.945   1.789  0.00  0.00    +0.028 A 
ATOM     14  C   UNL     1      -0.129  -3.047   2.268  0.00  0.00    +0.002 A 
ATOM     15  C   UNL     1       0.412  -3.027   3.539  0.00  0.00    +0.000 A 
ATOM     16  C   UNL     1       0.275  -1.902   4.331  0.00  0.00    +0.002 A 
ATOM     17  C   UNL     1      -0.404  -0.798   3.851  0.00  0.00    +0.028 A 
ENDBRANCH   9  12
ENDBRANCH   7   9
ENDBRANCH   6   7
BRANCH   1  18
ATOM     18  S   UNL     1       2.300   1.014   1.467  0.00  0.00    -0.081 S 
BRANCH  18  28
ATOM     19  C   UNL     1       8.554   2.019   4.330  0.00  0.00    +0.066 C 
ATOM     20  C   UNL     1       7.245   1.904   3.593  0.00  0.00    +0.044 A 
ATOM     21  C   UNL     1       6.233   1.070   4.097  0.00  0.00    +0.044 A 
ATOM     22  C   UNL     1       5.058   0.971   3.430  0.00  0.00    +0.028 A 
ATOM     23  N   UNL     1       4.887   1.692   2.282  0.00  0.00    -0.259 N 
ATOM     24  C   UNL     1       5.904   2.498   1.813  0.00  0.00    +0.257 A 
ATOM     25  N   UNL     1       7.060   2.584   2.487  0.00  0.00    -0.216 NA
ATOM     26  N   UNL     1       5.462   3.058   0.703  0.00  0.00    -0.108 NA
ATOM     27  N   UNL     1       4.265   2.656   0.457  0.00  0.00    -0.120 NA
ATOM     28  C   UNL     1       3.866   1.819   1.387  0.00  0.00    +0.198 A 
ATOM     29  C   UNL     1       3.956   0.083   3.948  0.00  0.00    +0.064 C 
ENDBRANCH  18  28
ENDBRANCH   1  18
TORSDOF 5
