REMARK  Name = ZINC63709426
REMARK  12 active torsions:
REMARK  status: ('A' for Active; 'I' for Inactive)
REMARK    1  A    between atoms: C_1  and  C_2
REMARK    2  A    between atoms: C_2  and  O_3
REMARK    3  A    between atoms: O_3  and  C_4
REMARK    4  A    between atoms: C_7  and  N_10
REMARK    5  A    between atoms: C_13  and  S_22
REMARK    6  A    between atoms: S_22  and  C_23
REMARK    7  A    between atoms: C_23  and  C_24
REMARK    8  A    between atoms: C_24  and  C_26
REMARK    9  A    between atoms: C_26  and  C_27
REMARK   10  A    between atoms: C_27  and  O_29
REMARK   11  A    between atoms: O_29  and  C_30
REMARK   12  A    between atoms: C_30  and  C_31
REMARK                            x       y       z     vdW  Elec       q    Type
REMARK                         _______ _______ _______ _____ _____    ______ ____
ROOT
ATOM      1  N   UNL     1      -1.989  -5.991  -0.013  0.00  0.00    -0.244 N 
ATOM      2  C   UNL     1      -3.225  -6.522   0.088  0.00  0.00    +0.132 C 
ATOM      3  N   UNL     1      -4.319  -6.227   0.743  0.00  0.00    -0.211 NA
ATOM      4  C   UNL     1      -5.284  -7.124   0.952  0.00  0.00    +0.182 C 
ATOM      5  N   UNL     1      -5.261  -8.382   0.538  0.00  0.00    -0.154 NA
ATOM      6  C   UNL     1      -4.310  -8.828  -0.288  0.00  0.00    +0.259 C 
ATOM      7  O   UNL     1      -4.252  -9.993  -0.630  0.00  0.00    -0.272 OA
ATOM      8  C   UNL     1      -3.314  -7.805  -0.774  0.00  0.00    +0.205 C 
ATOM      9  S   UNL     1      -1.624  -8.426  -0.377  0.00  0.00    -0.081 S 
ATOM     10  C   UNL     1      -0.901  -6.802  -0.126  0.00  0.00    +0.120 C 
ATOM     11  S   UNL     1       0.755  -6.377  -0.047  0.00  0.00    -0.027 S 
ENDROOT
BRANCH   1  15
ATOM     12  C   UNL     1      -1.497  -1.849   0.008  0.00  0.00    +0.121 A 
ATOM     13  C   UNL     1      -1.931  -2.501   1.153  0.00  0.00    +0.047 A 
ATOM     14  C   UNL     1      -2.094  -3.873   1.147  0.00  0.00    +0.027 A 
ATOM     15  C   UNL     1      -1.824  -4.598  -0.006  0.00  0.00    +0.041 A 
ATOM     16  C   UNL     1      -1.390  -3.945  -1.151  0.00  0.00    +0.027 A 
ATOM     17  C   UNL     1      -1.232  -2.573  -1.145  0.00  0.00    +0.047 A 
BRANCH  12  18
ATOM     18  O   UNL     1      -1.336  -0.499   0.015  0.00  0.00    -0.492 OA
BRANCH  18  20
ATOM     19  C   UNL     1      -1.390   1.683   1.053  0.00  0.00    +0.048 C 
ATOM     20  C   UNL     1      -1.627   0.183   1.237  0.00  0.00    +0.225 C 
ENDBRANCH  18  20
ENDBRANCH  12  18
ENDBRANCH   1  15
BRANCH   4  21
ATOM     21  S   UNL     1      -6.704  -6.593   1.851  0.00  0.00    -0.081 S 
BRANCH  21  22
ATOM     22  C   UNL     1      -7.756  -8.069   1.920  0.00  0.00    +0.152 C 
BRANCH  22  23
ATOM     23  C   UNL     1      -9.022  -7.748   2.673  0.00  0.00    +0.154 C 
ATOM     24  O   UNL     1      -9.195  -6.638   3.117  0.00  0.00    -0.296 OA
BRANCH  23  25
ATOM     25  C   UNL     1     -10.071  -8.812   2.872  0.00  0.00    +0.195 C 
BRANCH  25  26
ATOM     26  C   UNL     1     -11.227  -8.238   3.650  0.00  0.00    +0.314 C 
ATOM     27  O   UNL     1     -11.202  -7.083   4.006  0.00  0.00    -0.250 OA
BRANCH  26  28
ATOM     28  O   UNL     1     -12.285  -9.009   3.947  0.00  0.00    -0.465 OA
BRANCH  28  29
ATOM     29  C   UNL     1     -13.345  -8.399   4.686  0.00  0.00    +0.229 C 
ATOM     30  C   UNL     1     -14.454  -9.425   4.928  0.00  0.00    +0.048 C 
ENDBRANCH  28  29
ENDBRANCH  26  28
ENDBRANCH  25  26
ENDBRANCH  23  25
ENDBRANCH  22  23
ENDBRANCH  21  22
ENDBRANCH   4  21
TORSDOF 10
