REMARK  Name = ZINC25858020
REMARK  9 active torsions:
REMARK  status: ('A' for Active; 'I' for Inactive)
REMARK    1  A    between atoms: C_1  and  C_2
REMARK    2  A    between atoms: C_4  and  C_29
REMARK    3  A    between atoms: C_5  and  N_9
REMARK    4  A    between atoms: C_13  and  S_15
REMARK    5  A    between atoms: S_15  and  C_16
REMARK    6  A    between atoms: C_16  and  C_18
REMARK    7  A    between atoms: C_16  and  C_19
REMARK    8  A    between atoms: N_25  and  C_26
REMARK    9  A    between atoms: N_25  and  C_27
REMARK                            x       y       z     vdW  Elec       q    Type
REMARK                         _______ _______ _______ _____ _____    ______ ____
ROOT
ATOM      1  N   UNL     1       0.002  -0.004   0.002  0.00  0.00    -0.291 N 
ATOM      2  C   UNL     1       1.199  -0.684   0.196  0.00  0.00    +0.187 A 
ATOM      3  N   UNL     1       2.394  -0.207   0.483  0.00  0.00    -0.125 NA
ATOM      4  N   UNL     1       3.457  -1.067   0.638  0.00  0.00    -0.133 NA
ATOM      5  C   UNL     1       3.276  -2.366   0.488  0.00  0.00    +0.161 A 
ATOM      6  S   UNL     1       1.531  -2.438   0.116  0.00  0.00    -0.024 S 
ATOM      7  H   UNL     1      -0.931  -0.566  -0.151  0.00  0.00    +0.154 HD
ENDROOT
BRANCH   1  12
ATOM      8  C   UNL     1      -0.070   5.668  -0.002  0.00  0.00    +0.044 C 
ATOM      9  C   UNL     1      -0.050   4.161  -0.001  0.00  0.00    -0.049 A 
ATOM     10  C   UNL     1       0.065   3.471  -1.194  0.00  0.00    +0.008 A 
ATOM     11  C   UNL     1       0.088   2.091  -1.196  0.00  0.00    -0.028 A 
ATOM     12  C   UNL     1      -0.015   1.394   0.001  0.00  0.00    +0.054 A 
ATOM     13  C   UNL     1      -0.131   2.090   1.199  0.00  0.00    +0.063 A 
ATOM     14  C   UNL     1      -0.148   3.471   1.194  0.00  0.00    +0.025 A 
ATOM     15 CL   UNL     1      -0.254   1.224   2.699  0.00  0.00    -0.082 Cl
ATOM     16  C   UNL     1       0.220   1.341  -2.496  0.00  0.00    +0.046 C 
ENDBRANCH   1  12
BRANCH   5  17
ATOM     17  S   UNL     1       4.444  -3.678   0.621  0.00  0.00    -0.086 S 
BRANCH  17  18
ATOM     18  C   UNL     1       6.003  -2.840   1.021  0.00  0.00    +0.118 C 
ATOM     19  C   UNL     1       5.887  -2.176   2.394  0.00  0.00    +0.027 C 
BRANCH  18  20
ATOM     20  C   UNL     1       7.124  -3.846   1.042  0.00  0.00    +0.149 A 
ATOM     21  N   UNL     1       6.959  -5.003   1.660  0.00  0.00    -0.198 NA
ATOM     22  C   UNL     1       7.945  -5.897   1.677  0.00  0.00    +0.217 A 
ATOM     23  N   UNL     1       9.100  -5.621   1.081  0.00  0.00    -0.181 NA
ATOM     24  C   UNL     1       9.264  -4.455   0.466  0.00  0.00    +0.222 A 
ATOM     25  N   UNL     1       8.271  -3.568   0.449  0.00  0.00    -0.198 NA
ATOM     26  N   UNL     1      10.461  -4.163  -0.155  0.00  0.00    -0.306 N 
ATOM     27  C   UNL     1      10.641  -2.878  -0.833  0.00  0.00    +0.132 C 
ATOM     28  C   UNL     1      11.553  -5.140  -0.135  0.00  0.00    +0.132 C 
ATOM     29  N   UNL     1       7.770  -7.107   2.318  0.00  0.00    -0.327 N 
ATOM     30  H   UNL     1       8.585  -7.845   2.332  0.00  0.00    +0.145 HD
ATOM     31  H   UNL     1       6.815  -7.333   2.814  0.00  0.00    +0.145 HD
ENDBRANCH  18  20
ENDBRANCH  17  18
ENDBRANCH   5  17
TORSDOF 4
