REMARK  Name = ZINC20751902
REMARK  7 active torsions:
REMARK  status: ('A' for Active; 'I' for Inactive)
REMARK    1  A    between atoms: C_1  and  C_2
REMARK    2  A    between atoms: C_6  and  C_39
REMARK    3  A    between atoms: C_7  and  N_8
REMARK    4  A    between atoms: N_8  and  S_9
REMARK    5  A    between atoms: S_9  and  C_12
REMARK    6  A    between atoms: C_25  and  C_28
REMARK    7  A    between atoms: C_37  and  O_38
REMARK                            x       y       z     vdW  Elec       q    Type
REMARK                         _______ _______ _______ _____ _____    ______ ____
ROOT
ATOM      1  C   UNL     1       7.179  -0.695  -0.242  0.00  0.00    +0.109 A 
ATOM      2  C   UNL     1       6.472  -1.232  -1.302  0.00  0.00    +0.030 A 
ATOM      3  C   UNL     1       5.267  -1.865  -1.071  0.00  0.00    +0.025 A 
ATOM      4  C   UNL     1       4.769  -1.960   0.222  0.00  0.00    +0.031 A 
ATOM      5  C   UNL     1       5.474  -1.425   1.289  0.00  0.00    -0.018 A 
ATOM      6  C   UNL     1       6.685  -0.790   1.043  0.00  0.00    +0.034 A 
ATOM      7  C   UNL     1       4.980  -1.507   2.698  0.00  0.00    +0.049 C 
ATOM      8  C   UNL     1       4.443  -0.177   3.172  0.00  0.00    -0.023 C 
ATOM      9  C   UNL     1       3.406  -0.358   3.952  0.00  0.00    -0.030 C 
ATOM     10  C   UNL     1       3.112  -1.837   4.110  0.00  0.00    +0.033 C 
ATOM     11  C   UNL     1       3.793  -2.475   2.864  0.00  0.00    +0.029 C 
ATOM     12  C   UNL     1       2.825  -2.322   1.687  0.00  0.00    +0.109 C 
ATOM     13  N   UNL     1       3.545  -2.603   0.440  0.00  0.00    -0.336 N 
ATOM     14  H   UNL     1       3.121  -3.302  -0.295  0.00  0.00    +0.147 HD
ENDROOT
BRANCH  12  15
ATOM     15  C   UNL     1       2.289  -0.914   1.654  0.00  0.00    +0.022 A 
ATOM     16  C   UNL     1       1.161  -0.570   2.418  0.00  0.00    -0.009 A 
ATOM     17  C   UNL     1       0.510  -1.519   3.225  0.00  0.00    +0.009 A 
ATOM     18  C   UNL     1      -0.584  -1.152   3.947  0.00  0.00    +0.001 A 
ATOM     19  C   UNL     1      -1.063   0.156   3.909  0.00  0.00    +0.001 A 
ATOM     20  C   UNL     1      -0.458   1.102   3.139  0.00  0.00    +0.008 A 
ATOM     21  C   UNL     1       0.671   0.759   2.374  0.00  0.00    -0.017 A 
ATOM     22  C   UNL     1       1.320   1.709   1.568  0.00  0.00    +0.012 A 
ATOM     23  C   UNL     1       2.409   1.345   0.840  0.00  0.00    +0.046 A 
ATOM     24  C   UNL     1       2.896   0.034   0.881  0.00  0.00    +0.122 A 
BRANCH  24  25
ATOM     25  O   UNL     1       3.986  -0.300   0.143  0.00  0.00    -0.506 OA
ATOM     26  H   UNL     1       4.481   0.458  -0.482  0.00  0.00    +0.292 HD
ENDBRANCH  24  25
ENDBRANCH  12  15
BRANCH   1  27
ATOM     27  S   UNL     1       8.716   0.115  -0.532  0.00  0.00    +0.072 S 
ATOM     28  O   UNL     1       8.651   0.651  -1.846  0.00  0.00    -0.150 OA
ATOM     29  O   UNL     1       8.972   0.923   0.609  0.00  0.00    -0.150 OA
BRANCH  27  30
ATOM     30  N   UNL     1       9.889  -1.054  -0.556  0.00  0.00    -0.216 N 
ATOM     31  H   UNL     1      10.583  -1.155   0.291  0.00  0.00    +0.174 HD
BRANCH  30  38
ATOM     32  C   UNL     1       8.983  -3.734  -0.255  0.00  0.00    +0.046 C 
ATOM     33  C   UNL     1       9.566  -3.230  -1.550  0.00  0.00    -0.028 A 
ATOM     34  C   UNL     1       9.670  -4.075  -2.637  0.00  0.00    +0.005 A 
ATOM     35  C   UNL     1      10.210  -3.615  -3.824  0.00  0.00    +0.001 A 
ATOM     36  C   UNL     1      10.644  -2.306  -3.928  0.00  0.00    +0.005 A 
ATOM     37  C   UNL     1      10.539  -1.454  -2.846  0.00  0.00    -0.028 A 
ATOM     38  C   UNL     1       9.996  -1.913  -1.652  0.00  0.00    +0.054 A 
ATOM     39  C   UNL     1      11.012  -0.028  -2.960  0.00  0.00    +0.046 C 
ENDBRANCH  30  38
ENDBRANCH  27  30
ENDBRANCH   1  27
TORSDOF 5
