REMARK  Name = ZINC63737471
REMARK  6 active torsions:
REMARK  status: ('A' for Active; 'I' for Inactive)
REMARK    1  A    between atoms: C_1  and  C_2
REMARK    2  A    between atoms: C_8  and  S_13
REMARK    3  A    between atoms: S_13  and  N_16
REMARK    4  A    between atoms: N_16  and  C_17
REMARK    5  A    between atoms: C_21  and  C_23
REMARK    6  A    between atoms: C_33  and  C_35
REMARK                            x       y       z     vdW  Elec       q    Type
REMARK                         _______ _______ _______ _____ _____    ______ ____
ROOT
ATOM      1  N   UNL     1       3.532  -6.599   1.069  0.00  0.00    -0.216 N 
ATOM      2  H   UNL     1       4.091  -6.994   1.756  0.00  0.00    +0.174 HD
ENDROOT
BRANCH   1   3
ATOM      3  C   UNL     1       4.098  -6.183  -0.139  0.00  0.00    +0.048 A 
ATOM      4  C   UNL     1       3.493  -6.520  -1.343  0.00  0.00    +0.024 A 
ATOM      5  C   UNL     1       4.055  -6.107  -2.535  0.00  0.00    +0.002 A 
ATOM      6  C   UNL     1       5.219  -5.360  -2.531  0.00  0.00    +0.006 A 
ATOM      7  C   UNL     1       5.823  -5.023  -1.334  0.00  0.00    -0.020 A 
ATOM      8  C   UNL     1       5.263  -5.428  -0.138  0.00  0.00    +0.030 A 
BRANCH   7   9
ATOM      9  C   UNL     1       7.092  -4.209  -1.334  0.00  0.00    +0.133 C 
ATOM     10  C   UNL     1       6.776  -2.752  -1.589  0.00  0.00    +0.012 C 
ATOM     11  C   UNL     1       7.423  -2.423  -2.730  0.00  0.00    -0.004 A 
ATOM     12  C   UNL     1       7.516  -1.174  -3.496  0.00  0.00    +0.010 A 
ATOM     13  C   UNL     1       8.257  -1.151  -4.626  0.00  0.00    +0.001 A 
ATOM     14  C   UNL     1       8.939  -2.288  -5.084  0.00  0.00    +0.002 A 
ATOM     15  C   UNL     1       8.902  -3.470  -4.435  0.00  0.00    +0.026 A 
ATOM     16  C   UNL     1       8.152  -3.609  -3.234  0.00  0.00    +0.043 A 
ATOM     17  N   UNL     1       7.964  -4.633  -2.435  0.00  0.00    -0.374 N 
ATOM     18  H   UNL     1       8.338  -5.520  -2.552  0.00  0.00    +0.161 HD
ENDBRANCH   7   9
ENDBRANCH   1   3
BRANCH   1  19
ATOM     19  S   UNL     1       1.907  -6.415   1.328  0.00  0.00    +0.072 S 
ATOM     20  O   UNL     1       1.645  -6.910   2.634  0.00  0.00    -0.150 OA
ATOM     21  O   UNL     1       1.252  -6.926   0.175  0.00  0.00    -0.150 OA
BRANCH  19  28
ATOM     22  C   UNL     1       0.053   1.465   0.542  0.00  0.00    +0.053 C 
ATOM     23  C   UNL     1      -0.015  -0.062   0.476  0.00  0.00    +0.188 C 
ATOM     24  C   UNL     1       0.480  -0.540  -0.896  0.00  0.00    +0.158 C 
ATOM     25  N   UNL     1       0.443  -2.013  -0.895  0.00  0.00    -0.265 N 
ATOM     26  C   UNL     1       0.886  -2.676   0.263  0.00  0.00    +0.080 A 
ATOM     27  C   UNL     1       1.145  -4.037   0.228  0.00  0.00    +0.056 A 
ATOM     28  C   UNL     1       1.577  -4.685   1.369  0.00  0.00    +0.110 A 
ATOM     29  C   UNL     1       1.752  -3.977   2.544  0.00  0.00    +0.032 A 
ATOM     30  C   UNL     1       1.496  -2.619   2.584  0.00  0.00    +0.049 A 
ATOM     31  C   UNL     1       1.064  -1.960   1.443  0.00  0.00    +0.142 A 
ATOM     32  O   UNL     1       0.820  -0.623   1.491  0.00  0.00    -0.486 OA
ATOM     33  C   UNL     1      -0.002  -2.700  -1.965  0.00  0.00    +0.217 C 
ATOM     34  O   UNL     1       0.049  -3.912  -1.972  0.00  0.00    -0.276 OA
ATOM     35  C   UNL     1      -0.561  -1.964  -3.155  0.00  0.00    +0.109 C 
ENDBRANCH  19  28
ENDBRANCH   1  19
TORSDOF 4
