REMARK  Name = ZINC02857880
REMARK  11 active torsions:
REMARK  status: ('A' for Active; 'I' for Inactive)
REMARK    1  A    between atoms: C_1  and  C_2
REMARK    2  A    between atoms: C_2  and  C_3
REMARK    3  A    between atoms: C_4  and  C_33
REMARK    4  A    between atoms: C_6  and  N_12
REMARK    5  A    between atoms: C_7  and  C_8
REMARK    6  A    between atoms: C_8  and  O_10
REMARK    7  A    between atoms: O_10  and  C_11
REMARK    8  A    between atoms: N_12  and  C_13
REMARK    9  A    between atoms: C_13  and  N_15
REMARK   10  A    between atoms: N_19  and  C_21
REMARK   11  A    between atoms: C_21  and  C_22
REMARK                            x       y       z     vdW  Elec       q    Type
REMARK                         _______ _______ _______ _____ _____    ______ ____
ROOT
ATOM      1  N   UNL     1       1.211   4.231  -4.772  0.00  0.00    -0.280 N 
ATOM      2  C   UNL     1       1.129   5.138  -5.837  0.00  0.00    +0.146 A 
ATOM      3  C   UNL     1       0.991   4.806  -7.194  0.00  0.00    +0.065 A 
ATOM      4  C   UNL     1       0.946   5.958  -7.901  0.00  0.00    +0.110 A 
ATOM      5  N   UNL     1       1.060   6.983  -7.030  0.00  0.00    -0.265 N 
ATOM      6  N   UNL     1       1.175   6.446  -5.741  0.00  0.00    -0.156 NA
ATOM      7  H   UNL     1       1.246   3.278  -4.948  0.00  0.00    +0.155 HD
ENDROOT
BRANCH   1   8
ATOM      8  C   UNL     1       1.240   4.683  -3.502  0.00  0.00    +0.140 C 
ATOM      9  S   UNL     1       1.309   6.366  -3.195  0.00  0.00    -0.018 S 
BRANCH   8  10
ATOM     10  N   UNL     1       1.214   3.811  -2.476  0.00  0.00    -0.291 N 
ATOM     11  H   UNL     1       1.175   2.857  -2.650  0.00  0.00    +0.154 HD
BRANCH  10  15
ATOM     12  C   UNL     1       1.259   4.290   1.242  0.00  0.00    -0.022 A 
ATOM     13  C   UNL     1       1.316   5.630   1.144  0.00  0.00    -0.008 A 
ATOM     14  S   UNL     1       1.312   5.913  -0.614  0.00  0.00    -0.078 S 
ATOM     15  C   UNL     1       1.243   4.275  -1.171  0.00  0.00    +0.086 A 
ATOM     16  C   UNL     1       1.224   3.539   0.009  0.00  0.00    +0.091 A 
ATOM     17  C   UNL     1       1.366   6.647   2.255  0.00  0.00    +0.052 C 
BRANCH  12  19
ATOM     18  C   UNL     1       2.670   3.311   3.031  0.00  0.00    +0.009 C 
ATOM     19  C   UNL     1       1.236   3.601   2.583  0.00  0.00    +0.033 C 
ENDBRANCH  12  19
BRANCH  16  20
ATOM     20  C   UNL     1       1.166   2.076   0.002  0.00  0.00    +0.342 C 
ATOM     21  O   UNL     1       2.195   1.427  -0.010  0.00  0.00    -0.245 OA
BRANCH  20  22
ATOM     22  O   UNL     1      -0.028   1.449   0.008  0.00  0.00    -0.464 OA
ATOM     23  C   UNL     1      -0.009  -0.003  -0.000  0.00  0.00    +0.280 C 
ENDBRANCH  20  22
ENDBRANCH  16  20
ENDBRANCH  10  15
ENDBRANCH   8  10
ENDBRANCH   1   8
BRANCH   5  24
ATOM     24  C   UNL     1       1.065   8.407  -7.372  0.00  0.00    +0.184 C 
BRANCH  24  25
ATOM     25  C   UNL     1      -0.007   9.116  -6.585  0.00  0.00    +0.050 A 
ATOM     26  C   UNL     1      -1.283   9.238  -7.108  0.00  0.00    +0.169 A 
ATOM     27  C   UNL     1      -2.271   9.885  -6.383  0.00  0.00    +0.197 A 
ATOM     28  C   UNL     1      -1.978  10.420  -5.138  0.00  0.00    +0.199 A 
ATOM     29  C   UNL     1      -0.699  10.303  -4.618  0.00  0.00    +0.197 A 
ATOM     30  C   UNL     1       0.287   9.651  -5.343  0.00  0.00    +0.169 A 
ATOM     31  F   UNL     1       1.534   9.537  -4.836  0.00  0.00    -0.202 F 
ATOM     32  F   UNL     1      -0.412  10.825  -3.406  0.00  0.00    -0.199 F 
ATOM     33  F   UNL     1      -2.939  11.055  -4.433  0.00  0.00    -0.199 F 
ATOM     34  F   UNL     1      -3.517   9.998  -6.891  0.00  0.00    -0.199 F 
ATOM     35  F   UNL     1      -1.567   8.720  -8.323  0.00  0.00    -0.202 F 
ENDBRANCH  24  25
ENDBRANCH   5  24
TORSDOF 8
