REMARK  Name = ZINC13513522
REMARK  10 active torsions:
REMARK  status: ('A' for Active; 'I' for Inactive)
REMARK    1  A    between atoms: C_1  and  C_2
REMARK    2  A    between atoms: C_2  and  C_3
REMARK    3  A    between atoms: C_3  and  C_4
REMARK    4  A    between atoms: C_4  and  C_5
REMARK    5  A    between atoms: N_10  and  C_13
REMARK    6  A    between atoms: C_13  and  C_14
REMARK    7  A    between atoms: C_26  and  C_30
REMARK    8  A    between atoms: C_30  and  C_31
REMARK    9  A    between atoms: C_30  and  C_32
REMARK   10  A    between atoms: C_30  and  C_33
REMARK                            x       y       z     vdW  Elec       q    Type
REMARK                         _______ _______ _______ _____ _____    ______ ____
ROOT
ATOM      1  C   UNL     1      -1.954   5.013  -2.131  0.00  0.00    +0.125 A 
ATOM      2  N   UNL     1      -2.597   5.680  -3.123  0.00  0.00    -0.309 N 
ATOM      3  H   UNL     1      -2.759   5.196  -4.097  0.00  0.00    +0.170 HD
ATOM      4  C   UNL     1      -3.050   6.936  -2.943  0.00  0.00    +0.260 A 
ATOM      5  O   UNL     1      -3.629   7.520  -3.842  0.00  0.00    -0.267 OA
ATOM      6  C   UNL     1      -2.832   7.576  -1.679  0.00  0.00    +0.075 A 
ATOM      7  C   UNL     1      -3.226   8.921  -1.263  0.00  0.00    -0.023 A 
ATOM      8  C   UNL     1      -2.901   9.293  -0.006  0.00  0.00    -0.004 A 
ATOM      9  S   UNL     1      -2.063   7.892   0.685  0.00  0.00    -0.073 S 
ATOM     10  C   UNL     1      -2.153   6.809  -0.719  0.00  0.00    +0.116 A 
ATOM     11  N   UNL     1      -1.740   5.570  -0.969  0.00  0.00    -0.225 NA
ATOM     12  C   UNL     1      -3.189  10.606   0.655  0.00  0.00    +0.046 C 
ATOM     13  C   UNL     1      -4.243  11.348  -0.180  0.00  0.00    -0.000 C 
ATOM     14  C   UNL     1      -3.824  11.301  -1.653  0.00  0.00    +0.009 C 
ATOM     15  C   UNL     1      -3.970   9.877  -2.190  0.00  0.00    +0.037 C 
ENDROOT
BRANCH  13  16
ATOM     16  C   UNL     1      -4.332  12.803   0.282  0.00  0.00    -0.035 C 
ATOM     17  C   UNL     1      -2.972  13.480   0.102  0.00  0.00    +0.011 C 
ATOM     18  C   UNL     1      -5.383  13.540  -0.552  0.00  0.00    +0.011 C 
ATOM     19  C   UNL     1      -4.732  12.846   1.759  0.00  0.00    +0.011 C 
ENDBRANCH  13  16
BRANCH   1  20
ATOM     20  C   UNL     1      -1.472   3.606  -2.377  0.00  0.00    +0.158 C 
BRANCH  20  26
ATOM     21  C   UNL     1       2.646   1.538   0.494  0.00  0.00    +0.216 C 
ATOM     22  O   UNL     1       3.607   2.250   0.697  0.00  0.00    -0.276 OA
ATOM     23  N   UNL     1       1.443   2.088   0.238  0.00  0.00    -0.299 N 
ATOM     24  C   UNL     1       1.273   3.548   0.198  0.00  0.00    +0.123 C 
ATOM     25  C   UNL     1       0.565   3.925  -1.107  0.00  0.00    +0.104 C 
ATOM     26  N   UNL     1      -0.678   3.152  -1.227  0.00  0.00    -0.292 NA
ATOM     27  C   UNL     1      -0.404   1.712  -1.313  0.00  0.00    +0.104 C 
ATOM     28  C   UNL     1       0.265   1.244  -0.016  0.00  0.00    +0.123 C 
BRANCH  21  29
ATOM     29  C   UNL     1       2.798   0.039   0.530  0.00  0.00    +0.096 C 
BRANCH  29  30
ATOM     30  C   UNL     1       4.253  -0.319   0.840  0.00  0.00    +0.009 C 
BRANCH  30  32
ATOM     31  C   UNL     1       5.861  -2.199   1.185  0.00  0.00    +0.004 C 
ATOM     32  C   UNL     1       4.406  -1.841   0.876  0.00  0.00    -0.003 C 
ENDBRANCH  30  32
ENDBRANCH  29  30
ENDBRANCH  21  29
ENDBRANCH  20  26
ENDBRANCH   1  20
TORSDOF 6
