REMARK  Name = ZINC09041690
REMARK  12 active torsions:
REMARK  status: ('A' for Active; 'I' for Inactive)
REMARK    1  A    between atoms: C_1  and  C_2
REMARK    2  A    between atoms: C_2  and  N_60
REMARK    3  A    between atoms: C_3  and  C_4
REMARK    4  A    between atoms: C_3  and  N_60
REMARK    5  A    between atoms: C_5  and  C_6
REMARK    6  A    between atoms: C_5  and  N_60
REMARK    7  A    between atoms: C_6  and  C_7
REMARK    8  A    between atoms: C_7  and  N_8
REMARK    9  A    between atoms: C_9  and  C_27
REMARK   10  A    between atoms: C_12  and  C_13
REMARK   11  A    between atoms: C_12  and  O_22
REMARK   12  A    between atoms: C_30  and  C_32
REMARK                            x       y       z     vdW  Elec       q    Type
REMARK                         _______ _______ _______ _____ _____    ______ ____
ROOT
ATOM      1  N   UNL     1      -0.951   2.636   0.007  0.00  0.00    -0.281 N 
ATOM      2  C   UNL     1      -1.041   4.075   0.272  0.00  0.00    +0.180 C 
ATOM      3  C   UNL     1       0.368   4.555   0.531  0.00  0.00    +0.077 C 
ATOM      4  C   UNL     1       0.766   5.850   0.822  0.00  0.00    +0.168 C 
ATOM      5  C   UNL     1       1.192   3.428   0.418  0.00  0.00    +0.249 C 
ATOM      6  O   UNL     1       2.402   3.410   0.560  0.00  0.00    -0.282 OA
ATOM      7  C   UNL     1       0.335   2.256   0.096  0.00  0.00    +0.288 C 
ATOM      8  O   UNL     1       0.738   1.123  -0.069  0.00  0.00    -0.266 OA
ENDROOT
BRANCH   4   9
ATOM      9  C   UNL     1       2.162   6.129   1.156  0.00  0.00    +0.171 A 
ATOM     10  C   UNL     1       2.910   7.141   0.632  0.00  0.00    +0.061 A 
ATOM     11  C   UNL     1       4.195   7.049   1.223  0.00  0.00    +0.021 A 
ATOM     12  C   UNL     1       5.375   7.790   1.093  0.00  0.00    +0.011 A 
ATOM     13  C   UNL     1       6.478   7.442   1.819  0.00  0.00    +0.001 A 
ATOM     14  C   UNL     1       6.438   6.358   2.686  0.00  0.00    +0.004 A 
ATOM     15  C   UNL     1       5.286   5.614   2.829  0.00  0.00    +0.047 A 
ATOM     16  C   UNL     1       4.151   5.949   2.100  0.00  0.00    +0.136 A 
ATOM     17  O   UNL     1       2.910   5.427   2.035  0.00  0.00    -0.452 OA
ENDBRANCH   4   9
BRANCH   2  18
ATOM     18  C   UNL     1      -1.904   4.330   1.480  0.00  0.00    +0.130 A 
ATOM     19  C   UNL     1      -2.781   5.340   1.622  0.00  0.00    +0.047 A 
ATOM     20  C   UNL     1      -3.367   5.198   2.900  0.00  0.00    +0.045 A 
ATOM     21  C   UNL     1      -2.813   4.109   3.464  0.00  0.00    +0.102 A 
ATOM     22  O   UNL     1      -1.932   3.585   2.597  0.00  0.00    -0.463 OA
ATOM     23  C   UNL     1      -3.133   3.567   4.833  0.00  0.00    +0.086 C 
ENDBRANCH   2  18
BRANCH   4  24
ATOM     24  O   UNL     1      -0.137   6.856   0.797  0.00  0.00    -0.503 OA
ATOM     25  H   UNL     1       0.317   7.716   1.030  0.00  0.00    +0.292 HD
ENDBRANCH   4  24
BRANCH   1  26
ATOM     26  C   UNL     1      -2.080   1.755  -0.300  0.00  0.00    +0.107 C 
BRANCH  26  27
ATOM     27  C   UNL     1      -2.649   1.182   0.999  0.00  0.00    +0.000 C 
BRANCH  27  28
ATOM     28  C   UNL     1      -3.828   0.262   0.678  0.00  0.00    -0.077 C 
BRANCH  28  29
ATOM     29  N   UNL     1      -4.380  -0.266   1.944  0.00  0.00    +0.379 N 
ATOM     30  H   UNL     1      -4.565   0.518   2.579  0.00  0.00    -0.082 HD
BRANCH  29  32
ATOM     31  C   UNL     1      -6.758   0.046   1.477  0.00  0.00    -0.017 C 
ATOM     32  C   UNL     1      -5.646  -0.983   1.683  0.00  0.00    -0.082 C 
ENDBRANCH  29  32
BRANCH  29  33
ATOM     33  C   UNL     1      -3.404  -1.178   2.578  0.00  0.00    -0.082 C 
ATOM     34  C   UNL     1      -3.825  -1.414   4.030  0.00  0.00    -0.017 C 
ENDBRANCH  29  33
ENDBRANCH  28  29
ENDBRANCH  27  28
ENDBRANCH  26  27
ENDBRANCH   1  26
TORSDOF 9
