REMARK  Name = ZINC39638582
REMARK  7 active torsions:
REMARK  status: ('A' for Active; 'I' for Inactive)
REMARK    1  A    between atoms: C_1  and  C_2
REMARK    2  A    between atoms: C_2  and  O_3
REMARK    3  A    between atoms: O_3  and  C_4
REMARK    4  A    between atoms: C_9  and  C_10
REMARK    5  A    between atoms: C_10  and  N_11
REMARK    6  A    between atoms: C_12  and  C_14
REMARK    7  A    between atoms: C_25  and  C_27
REMARK                            x       y       z     vdW  Elec       q    Type
REMARK                         _______ _______ _______ _____ _____    ______ ____
ROOT
ATOM      1  C   UNL     1       5.862   0.569  -2.896  0.00  0.00    +0.100 C 
ATOM      2  C   UNL     1       6.597  -0.789  -2.834  0.00  0.00    +0.121 C 
ATOM      3  N   UNL     1       7.306  -0.889  -4.131  0.00  0.00    -0.296 N 
ATOM      4  C   UNL     1       7.800   0.484  -4.389  0.00  0.00    +0.115 C 
ATOM      5  C   UNL     1       6.656   1.403  -3.915  0.00  0.00    -0.004 C 
ATOM      6  C   UNL     1       5.765   1.786  -5.093  0.00  0.00    -0.010 C 
ATOM      7  C   UNL     1       6.561   2.661  -6.065  0.00  0.00    -0.082 C 
ATOM      8  N   UNL     1       7.031   3.865  -5.369  0.00  0.00    +0.379 N 
ATOM      9  C   UNL     1       7.960   3.493  -4.295  0.00  0.00    -0.082 C 
ATOM     10  C   UNL     1       7.223   2.652  -3.248  0.00  0.00    -0.010 C 
ATOM     11  C   UNL     1       7.467  -1.983  -4.902  0.00  0.00    +0.247 C 
ATOM     12  O   UNL     1       6.894  -3.017  -4.618  0.00  0.00    -0.270 OA
ATOM     13  H   UNL     1       7.503   4.469  -6.025  0.00  0.00    -0.086 HD
ATOM     14  H   UNL     1       6.241   4.354  -4.974  0.00  0.00    -0.086 HD
ENDROOT
BRANCH  11  15
ATOM     15  C   UNL     1       8.339  -1.926  -6.094  0.00  0.00    +0.042 A 
ATOM     16  C   UNL     1       9.318  -0.937  -6.199  0.00  0.00    +0.051 A 
ATOM     17  C   UNL     1      10.131  -0.888  -7.316  0.00  0.00    +0.127 A 
ATOM     18  C   UNL     1       9.976  -1.819  -8.330  0.00  0.00    +0.076 A 
ATOM     19  C   UNL     1       9.006  -2.803  -8.231  0.00  0.00    +0.127 A 
ATOM     20  C   UNL     1       8.191  -2.865  -7.116  0.00  0.00    +0.051 A 
ATOM     21  F   UNL     1       8.860  -3.708  -9.224  0.00  0.00    -0.205 F 
ATOM     22  F   UNL     1      11.078   0.070  -7.418  0.00  0.00    -0.205 F 
ENDBRANCH  11  15
BRANCH   1  24
ATOM     23  N   UNL     1       3.498   1.282  -3.048  0.00  0.00    -0.311 N 
ATOM     24  C   UNL     1       4.443   0.376  -3.367  0.00  0.00    +0.218 C 
ATOM     25  O   UNL     1       4.152  -0.595  -4.034  0.00  0.00    -0.275 OA
ATOM     26  H   UNL     1       3.731   2.058  -2.515  0.00  0.00    +0.149 HD
BRANCH  23  27
ATOM     27  C   UNL     1       2.119   1.095  -3.506  0.00  0.00    +0.143 C 
BRANCH  27  33
ATOM     28  C   UNL     1       1.288   3.454  -3.687  0.00  0.00    +0.125 A 
ATOM     29  C   UNL     1       0.499   4.503  -3.239  0.00  0.00    +0.046 A 
ATOM     30  C   UNL     1      -0.300   4.337  -2.124  0.00  0.00    +0.004 A 
ATOM     31  C   UNL     1      -0.315   3.127  -1.456  0.00  0.00    +0.001 A 
ATOM     32  C   UNL     1       0.471   2.080  -1.901  0.00  0.00    +0.009 A 
ATOM     33  C   UNL     1       1.268   2.239  -3.018  0.00  0.00    +0.011 A 
BRANCH  28  34
ATOM     34  O   UNL     1       2.075   3.614  -4.784  0.00  0.00    -0.492 OA
BRANCH  34  36
ATOM     35  C   UNL     1       2.988   4.882  -6.627  0.00  0.00    +0.048 C 
ATOM     36  C   UNL     1       2.046   4.892  -5.422  0.00  0.00    +0.225 C 
ENDBRANCH  34  36
ENDBRANCH  28  34
ENDBRANCH  27  33
ENDBRANCH  23  27
ENDBRANCH   1  24
TORSDOF 6
