REMARK  Name = ZINC27574493
REMARK  10 active torsions:
REMARK  status: ('A' for Active; 'I' for Inactive)
REMARK    1  A    between atoms: C_1  and  C_2
REMARK    2  A    between atoms: N_5  and  C_8
REMARK    3  A    between atoms: C_8  and  C_10
REMARK    4  A    between atoms: C_8  and  C_30
REMARK    5  A    between atoms: C_10  and  N_11
REMARK    6  A    between atoms: C_12  and  C_14
REMARK    7  A    between atoms: C_14  and  C_15
REMARK    8  A    between atoms: C_15  and  C_16
REMARK    9  A    between atoms: C_19  and  S_22
REMARK   10  A    between atoms: S_22  and  N_25
REMARK                            x       y       z     vdW  Elec       q    Type
REMARK                         _______ _______ _______ _____ _____    ______ ____
ROOT
ATOM      1  N   UNL     1       0.023   1.201   0.006  0.00  0.00    -0.317 N 
ATOM      2  C   UNL     1      -1.086   1.966  -0.047  0.00  0.00    +0.213 C 
ATOM      3  O   UNL     1      -0.987   3.168  -0.176  0.00  0.00    -0.276 OA
ATOM      4  H   UNL     1      -0.067   0.111   0.128  0.00  0.00    +0.149 HD
ENDROOT
BRANCH   1   5
ATOM      5  C   UNL     1       1.346   1.820  -0.099  0.00  0.00    +0.094 C 
BRANCH   5   6
ATOM      6  C   UNL     1       2.424   0.737  -0.017  0.00  0.00    -0.013 C 
BRANCH   6  11
ATOM      7  C   UNL     1       2.214  -2.875  -4.442  0.00  0.00    +0.007 C 
ATOM      8  C   UNL     1       2.631  -1.759  -3.483  0.00  0.00    -0.018 C 
ATOM      9  C   UNL     1       2.935  -2.354  -2.105  0.00  0.00    -0.015 C 
ATOM     10  C   UNL     1       3.293  -1.226  -1.135  0.00  0.00    -0.078 C 
ATOM     11  N   UNL     1       2.171  -0.283  -1.043  0.00  0.00    +0.386 N 
ATOM     12  C   UNL     1       1.892   0.337  -2.345  0.00  0.00    -0.078 C 
ATOM     13  C   UNL     1       1.492  -0.744  -3.351  0.00  0.00    -0.015 C 
ATOM     14  H   UNL     1       1.279  -0.852  -0.744  0.00  0.00    -0.081 HD
ENDBRANCH   6  11
BRANCH   6  15
ATOM     15  C   UNL     1       3.778   1.357  -0.248  0.00  0.00    -0.022 A 
ATOM     16  C   UNL     1       4.773   1.589   0.642  0.00  0.00    +0.009 A 
ATOM     17  C   UNL     1       5.944   2.176   0.201  0.00  0.00    +0.008 A 
ATOM     18  C   UNL     1       6.062   2.502  -1.110  0.00  0.00    +0.045 A 
ATOM     19  S   UNL     1       4.490   1.970  -1.766  0.00  0.00    -0.103 S 
ENDBRANCH   6  15
ENDBRANCH   5   6
ENDBRANCH   1   5
BRANCH   2  20
ATOM     20  C   UNL     1      -2.447   1.329   0.055  0.00  0.00    +0.100 C 
BRANCH  20  21
ATOM     21  C   UNL     1      -3.525   2.411  -0.032  0.00  0.00    +0.044 C 
BRANCH  21  22
ATOM     22  C   UNL     1      -4.887   1.773   0.070  0.00  0.00    -0.047 A 
ATOM     23  C   UNL     1      -5.544   1.360  -1.074  0.00  0.00    +0.005 A 
ATOM     24  C   UNL     1      -6.791   0.771  -0.980  0.00  0.00    +0.029 A 
ATOM     25  C   UNL     1      -7.385   0.604   0.257  0.00  0.00    +0.105 A 
ATOM     26  C   UNL     1      -6.730   1.022   1.400  0.00  0.00    +0.029 A 
ATOM     27  C   UNL     1      -5.481   1.607   1.307  0.00  0.00    +0.005 A 
BRANCH  25  28
ATOM     28  S   UNL     1      -8.976  -0.143   0.376  0.00  0.00    +0.061 S 
ATOM     29  O   UNL     1      -9.139  -0.940  -0.789  0.00  0.00    -0.153 OA
ATOM     30  O   UNL     1      -9.076  -0.680   1.687  0.00  0.00    -0.153 OA
BRANCH  28  31
ATOM     31  N   UNL     1     -10.096   1.073   0.277  0.00  0.00    -0.177 NA
ATOM     32  C   UNL     1     -10.650   1.823   1.414  0.00  0.00    +0.109 C 
ATOM     33  C   UNL     1     -11.669   2.832   0.844  0.00  0.00    +0.018 C 
ATOM     34  C   UNL     1     -12.054   2.202  -0.520  0.00  0.00    +0.018 C 
ATOM     35  C   UNL     1     -10.708   1.579  -0.966  0.00  0.00    +0.109 C 
ENDBRANCH  28  31
ENDBRANCH  25  28
ENDBRANCH  21  22
ENDBRANCH  20  21
ENDBRANCH   2  20
TORSDOF 9
