REMARK  Name = ZINC24986988
REMARK  9 active torsions:
REMARK  status: ('A' for Active; 'I' for Inactive)
REMARK    1  A    between atoms: C_1  and  O_2
REMARK    2  A    between atoms: O_2  and  C_3
REMARK    3  A    between atoms: C_6  and  C_9
REMARK    4  A    between atoms: C_14  and  C_15
REMARK    5  A    between atoms: C_18  and  O_22
REMARK    6  A    between atoms: C_20  and  O_21
REMARK    7  A    between atoms: O_22  and  C_23
REMARK    8  A    between atoms: C_23  and  C_24
REMARK    9  A    between atoms: C_24  and  N_25
REMARK                            x       y       z     vdW  Elec       q    Type
REMARK                         _______ _______ _______ _____ _____    ______ ____
ROOT
ATOM      1  C   UNL     1       1.625  -1.005  -8.531  0.00  0.00    +0.042 A 
ATOM      2  C   UNL     1       1.670   0.284  -7.998  0.00  0.00    +0.017 A 
ATOM      3  C   UNL     1       1.023   0.563  -6.814  0.00  0.00    +0.046 A 
ATOM      4  C   UNL     1       0.323  -0.436  -6.148  0.00  0.00    +0.124 A 
ATOM      5  C   UNL     1       0.277  -1.722  -6.667  0.00  0.00    +0.091 A 
ATOM      6  C   UNL     1       0.919  -2.011  -7.858  0.00  0.00    +0.129 A 
ENDROOT
BRANCH   1  12
ATOM      7  C   UNL     1       1.722  -1.659 -11.003  0.00  0.00    +0.027 A 
ATOM      8  C   UNL     1       2.753  -1.855 -11.938  0.00  0.00    +0.143 A 
ATOM      9  N   UNL     1       3.898  -1.638 -11.347  0.00  0.00    -0.181 NA
ATOM     10  N   UNL     1       3.664  -1.289 -10.012  0.00  0.00    -0.276 N 
ATOM     11  H   UNL     1       4.510  -1.060  -9.347  0.00  0.00    +0.189 HD
ATOM     12  C   UNL     1       2.318  -1.307  -9.799  0.00  0.00    +0.077 A 
BRANCH   7  16
ATOM     13  C   UNL     1      -2.450  -2.066 -11.728  0.00  0.00    +0.120 A 
ATOM     14  C   UNL     1      -1.948  -0.877 -11.217  0.00  0.00    +0.046 A 
ATOM     15  C   UNL     1      -0.596  -0.741 -10.981  0.00  0.00    +0.012 A 
ATOM     16  C   UNL     1       0.268  -1.801 -11.255  0.00  0.00    -0.014 A 
ATOM     17  C   UNL     1      -0.239  -2.993 -11.773  0.00  0.00    +0.012 A 
ATOM     18  C   UNL     1      -1.592  -3.123 -12.002  0.00  0.00    +0.046 A 
BRANCH  13  20
ATOM     19  C   UNL     1      -4.230  -3.447 -12.486  0.00  0.00    +0.277 C 
ATOM     20  O   UNL     1      -3.782  -2.196 -11.960  0.00  0.00    -0.495 OA
ENDBRANCH  13  20
ENDBRANCH   7  16
ENDBRANCH   1  12
BRANCH   6  21
ATOM     21  O   UNL     1       0.870  -3.268  -8.370  0.00  0.00    -0.506 OA
ATOM     22  H   UNL     1       0.316  -4.057  -7.841  0.00  0.00    +0.292 HD
ENDBRANCH   6  21
BRANCH   4  23
ATOM     23  O   UNL     1      -0.314  -0.154  -4.981  0.00  0.00    -0.494 OA
BRANCH  23  24
ATOM     24  C   UNL     1      -0.221   1.188  -4.499  0.00  0.00    +0.210 C 
BRANCH  24  25
ATOM     25  C   UNL     1      -0.994   1.313  -3.185  0.00  0.00    -0.037 C 
BRANCH  25  26
ATOM     26  N   UNL     1      -0.366   0.463  -2.165  0.00  0.00    +0.383 N 
ATOM     27  C   UNL     1       0.916   1.025  -1.728  0.00  0.00    -0.073 C 
ATOM     28  C   UNL     1       1.596   0.116  -0.716  0.00  0.00    -0.007 C 
ATOM     29  C   UNL     1       0.670  -0.166   0.470  0.00  0.00    +0.011 C 
ATOM     30  C   UNL     1      -0.621  -0.778  -0.086  0.00  0.00    +0.020 C 
ATOM     31  C   UNL     1      -1.270   0.253  -1.024  0.00  0.00    -0.069 C 
ATOM     32  C   UNL     1      -0.277  -1.994  -0.915  0.00  0.00    +0.023 A 
ATOM     33  C   UNL     1      -1.207  -2.982  -0.997  0.00  0.00    +0.022 A 
ATOM     34  C   UNL     1      -0.981  -4.106  -1.799  0.00  0.00    +0.007 A 
ATOM     35  C   UNL     1       0.177  -4.182  -2.516  0.00  0.00    +0.070 A 
ATOM     36  C   UNL     1       1.113  -3.145  -2.412  0.00  0.00    +0.251 A 
ATOM     37  O   UNL     1       2.123  -3.171  -3.097  0.00  0.00    -0.268 OA
ATOM     38  N   UNL     1       0.908  -2.111  -1.559  0.00  0.00    -0.312 N 
ATOM     39  C   UNL     1       2.031  -1.199  -1.341  0.00  0.00    +0.126 C 
ATOM     40  H   UNL     1      -0.162  -0.518  -2.619  0.00  0.00    -0.082 HD
ENDBRANCH  25  26
ENDBRANCH  24  25
ENDBRANCH  23  24
ENDBRANCH   4  23
TORSDOF 8
