REMARK  Name = ZINC66861145
REMARK  9 active torsions:
REMARK  status: ('A' for Active; 'I' for Inactive)
REMARK    1  A    between atoms: C_1  and  C_2
REMARK    2  A    between atoms: C_2  and  C_4
REMARK    3  A    between atoms: C_2  and  S_7
REMARK    4  A    between atoms: C_4  and  C_5
REMARK    5  A    between atoms: S_7  and  C_8
REMARK    6  A    between atoms: C_13  and  N_14
REMARK    7  A    between atoms: N_14  and  C_15
REMARK    8  A    between atoms: C_15  and  C_16
REMARK    9  A    between atoms: N_18  and  C_19
REMARK                            x       y       z     vdW  Elec       q    Type
REMARK                         _______ _______ _______ _____ _____    ______ ____
ROOT
ATOM      1  N   UNL     1      -4.577  -1.025  -0.546  0.00  0.00    -0.335 N 
ATOM      2  H   UNL     1      -4.163  -1.257   0.300  0.00  0.00    +0.147 HD
ENDROOT
BRANCH   1   8
ATOM      3  C   UNL     1      -2.452  -0.201  -1.365  0.00  0.00    +0.029 A 
ATOM      4  C   UNL     1      -1.698   0.369  -2.380  0.00  0.00    +0.016 A 
ATOM      5  C   UNL     1      -2.294   0.697  -3.583  0.00  0.00    +0.001 A 
ATOM      6  C   UNL     1      -3.642   0.460  -3.779  0.00  0.00    +0.002 A 
ATOM      7  C   UNL     1      -4.402  -0.107  -2.772  0.00  0.00    +0.024 A 
ATOM      8  C   UNL     1      -3.811  -0.445  -1.564  0.00  0.00    +0.041 A 
BRANCH   3   9
ATOM      9  S   UNL     1      -1.695  -0.621   0.170  0.00  0.00    -0.119 S 
BRANCH   9  11
ATOM     10  C   UNL     1      -0.037   1.552   0.045  0.00  0.00    +0.020 C 
ATOM     11  C   UNL     1      -0.005   0.023   0.016  0.00  0.00    +0.062 C 
BRANCH  11  12
ATOM     12  C   UNL     1       0.844  -0.492   1.179  0.00  0.00    +0.132 C 
BRANCH  12  13
ATOM     13  C   UNL     1       0.974  -1.955   1.082  0.00  0.00    +0.064 C 
ATOM     14  N   UNL     1       1.075  -3.084   1.006  0.00  0.00    -0.197 NA
ENDBRANCH  12  13
ENDBRANCH  11  12
ENDBRANCH   9  11
ENDBRANCH   3   9
ENDBRANCH   1   8
BRANCH   1  15
ATOM     15  C   UNL     1      -6.004  -1.281  -0.758  0.00  0.00    +0.198 C 
BRANCH  15  16
ATOM     16  C   UNL     1      -6.592  -1.905   0.482  0.00  0.00    +0.234 C 
ATOM     17  O   UNL     1      -5.888  -2.115   1.447  0.00  0.00    -0.274 OA
ATOM     18  N   UNL     1      -7.900  -2.229   0.517  0.00  0.00    -0.282 N 
ATOM     19  H   UNL     1      -8.476  -2.003  -0.229  0.00  0.00    +0.155 HD
BRANCH  18  20
ATOM     20  C   UNL     1      -8.425  -2.891   1.629  0.00  0.00    +0.062 A 
ATOM     21  C   UNL     1      -7.947  -2.616   2.873  0.00  0.00    +0.025 A 
ATOM     22  C   UNL     1      -8.449  -3.259   4.003  0.00  0.00    +0.004 A 
ATOM     23  C   UNL     1      -9.433  -4.185   3.913  0.00  0.00    +0.031 A 
ATOM     24  C   UNL     1      -9.983  -4.526   2.647  0.00  0.00    +0.102 A 
ATOM     25  C   UNL     1      -9.466  -3.851   1.462  0.00  0.00    +0.121 A 
ATOM     26  N   UNL     1     -10.059  -4.244   0.334  0.00  0.00    -0.189 NA
ATOM     27  S   UNL     1     -11.149  -5.341   0.776  0.00  0.00    +0.117 S 
ATOM     28  N   UNL     1     -10.947  -5.405   2.371  0.00  0.00    -0.191 NA
ENDBRANCH  18  20
ENDBRANCH  15  16
ENDBRANCH   1  15
TORSDOF 8
