REMARK  Name = ZINC39631956
REMARK  11 active torsions:
REMARK  status: ('A' for Active; 'I' for Inactive)
REMARK    1  A    between atoms: C_1  and  C_2
REMARK    2  A    between atoms: C_2  and  C_4
REMARK    3  A    between atoms: C_2  and  N_11
REMARK    4  A    between atoms: C_4  and  C_5
REMARK    5  A    between atoms: C_5  and  C_6
REMARK    6  A    between atoms: C_6  and  C_7
REMARK    7  A    between atoms: C_7  and  C_8
REMARK    8  A    between atoms: C_7  and  C_9
REMARK    9  A    between atoms: C_7  and  O_10
REMARK   10  A    between atoms: C_12  and  C_14
REMARK   11  A    between atoms: C_25  and  C_27
REMARK                            x       y       z     vdW  Elec       q    Type
REMARK                         _______ _______ _______ _____ _____    ______ ____
ROOT
ATOM      1  C   UNL     1       0.279  -0.579   2.985  0.00  0.00    +0.100 C 
ATOM      2  C   UNL     1       1.585  -0.063   3.629  0.00  0.00    +0.121 C 
ATOM      3  N   UNL     1       1.138   0.880   4.680  0.00  0.00    -0.300 N 
ATOM      4  C   UNL     1      -0.059   0.235   5.270  0.00  0.00    +0.115 C 
ATOM      5  C   UNL     1      -0.797  -0.385   4.066  0.00  0.00    -0.004 C 
ATOM      6  C   UNL     1      -1.882   0.566   3.568  0.00  0.00    -0.010 C 
ATOM      7  C   UNL     1      -2.969   0.698   4.638  0.00  0.00    -0.082 C 
ATOM      8  N   UNL     1      -3.541  -0.623   4.923  0.00  0.00    +0.379 N 
ATOM      9  C   UNL     1      -2.512  -1.504   5.489  0.00  0.00    -0.082 C 
ATOM     10  C   UNL     1      -1.405  -1.729   4.455  0.00  0.00    -0.010 C 
ATOM     11  C   UNL     1       1.694   2.059   5.023  0.00  0.00    +0.219 C 
ATOM     12  O   UNL     1       2.634   2.493   4.390  0.00  0.00    -0.275 OA
ATOM     13  H   UNL     1      -4.298  -0.525   5.583  0.00  0.00    -0.086 HD
ATOM     14  H   UNL     1      -3.894  -1.027   4.068  0.00  0.00    -0.086 HD
ENDROOT
BRANCH  11  15
ATOM     15  C   UNL     1       1.148   2.838   6.191  0.00  0.00    +0.079 C 
ATOM     16  C   UNL     1       1.476   4.327   6.017  0.00  0.00    +0.017 C 
ATOM     17  C   UNL     1       0.760   5.112   7.119  0.00  0.00    +0.027 C 
ATOM     18  C   UNL     1       1.023   4.483   8.456  0.00  0.00    -0.031 C 
ATOM     19  C   UNL     1       1.471   3.280   8.616  0.00  0.00    -0.030 C 
ATOM     20  C   UNL     1       1.796   2.344   7.487  0.00  0.00    +0.039 C 
ENDBRANCH  11  15
BRANCH   1  22
ATOM     21  N   UNL     1      -0.738  -0.336   0.743  0.00  0.00    -0.312 N 
ATOM     22  C   UNL     1      -0.057   0.230   1.759  0.00  0.00    +0.218 C 
ATOM     23  O   UNL     1       0.285   1.392   1.686  0.00  0.00    -0.275 OA
ATOM     24  H   UNL     1      -1.012  -1.265   0.801  0.00  0.00    +0.149 HD
BRANCH  21  26
ATOM     25  C   UNL     1       0.118   0.421  -1.419  0.00  0.00    +0.028 C 
ATOM     26  C   UNL     1      -1.065   0.451  -0.449  0.00  0.00    +0.070 C 
BRANCH  26  27
ATOM     27  C   UNL     1      -2.299  -0.145  -1.130  0.00  0.00    +0.022 C 
BRANCH  27  28
ATOM     28  C   UNL     1      -3.510  -0.002  -0.207  0.00  0.00    +0.005 C 
BRANCH  28  29
ATOM     29  C   UNL     1      -4.744  -0.597  -0.888  0.00  0.00    +0.034 C 
BRANCH  29  30
ATOM     30  C   UNL     1      -5.955  -0.455   0.035  0.00  0.00    +0.061 C 
ATOM     31  C   UNL     1      -6.200   1.026   0.330  0.00  0.00    +0.041 C 
ATOM     32  C   UNL     1      -7.189  -1.050  -0.646  0.00  0.00    +0.041 C 
BRANCH  30  33
ATOM     33  O   UNL     1      -5.705  -1.149   1.259  0.00  0.00    -0.389 OA
ATOM     34  H   UNL     1      -5.541  -2.096   1.148  0.00  0.00    +0.210 HD
ENDBRANCH  30  33
ENDBRANCH  29  30
ENDBRANCH  28  29
ENDBRANCH  27  28
ENDBRANCH  26  27
ENDBRANCH  21  26
ENDBRANCH   1  22
TORSDOF 8
