REMARK  Name = ZINC62367228
REMARK  5 active torsions:
REMARK  status: ('A' for Active; 'I' for Inactive)
REMARK    1  A    between atoms: C_1  and  C_2
REMARK    2  A    between atoms: C_2  and  C_3
REMARK    3  A    between atoms: C_2  and  N_13
REMARK    4  A    between atoms: N_5  and  C_6
REMARK    5  A    between atoms: C_16  and  C_19
REMARK                            x       y       z     vdW  Elec       q    Type
REMARK                         _______ _______ _______ _____ _____    ______ ____
ROOT
ATOM      1  N   UNL     1      -1.094  -0.938  -0.287  0.00  0.00    +0.387 N 
ATOM      2  C   UNL     1      -0.559  -2.300  -0.395  0.00  0.00    -0.077 C 
ATOM      3  C   UNL     1      -1.707  -3.288  -0.616  0.00  0.00    -0.009 C 
ATOM      4  C   UNL     1      -2.445  -2.924  -1.907  0.00  0.00    +0.032 C 
ATOM      5  C   UNL     1      -2.934  -1.476  -1.813  0.00  0.00    -0.009 C 
ATOM      6  C   UNL     1      -1.741  -0.556  -1.548  0.00  0.00    -0.077 C 
ATOM      7  H   UNL     1      -1.771  -0.903   0.461  0.00  0.00    -0.081 HD
ENDROOT
BRANCH   4   8
ATOM      8  C   UNL     1      -3.624  -3.844  -2.090  0.00  0.00    +0.020 A 
ATOM      9  C   UNL     1      -4.384  -4.329  -1.096  0.00  0.00    +0.031 A 
ATOM     10  C   UNL     1      -5.410  -5.173  -1.714  0.00  0.00    -0.000 A 
ATOM     11  C   UNL     1      -6.470  -5.934  -1.216  0.00  0.00    +0.010 A 
ATOM     12  C   UNL     1      -7.269  -6.629  -2.079  0.00  0.00    +0.001 A 
ATOM     13  C   UNL     1      -7.038  -6.583  -3.447  0.00  0.00    +0.002 A 
ATOM     14  C   UNL     1      -5.999  -5.838  -3.959  0.00  0.00    +0.026 A 
ATOM     15  C   UNL     1      -5.171  -5.123  -3.099  0.00  0.00    +0.047 A 
ATOM     16  N   UNL     1      -4.083  -4.303  -3.295  0.00  0.00    -0.358 N 
ATOM     17  H   UNL     1      -3.697  -4.086  -4.158  0.00  0.00    +0.166 HD
ENDBRANCH   4   8
BRANCH   1  19
ATOM     18  C   UNL     1      -0.557   1.414   0.134  0.00  0.00    -0.004 C 
ATOM     19  C   UNL     1       0.002  -0.004   0.002  0.00  0.00    +0.016 C 
BRANCH  19  20
ATOM     20  C   UNL     1       0.673  -0.401   1.291  0.00  0.00    +0.199 C 
ATOM     21  O   UNL     1       0.041  -0.974   2.153  0.00  0.00    -0.278 OA
ATOM     22  N   UNL     1       1.977  -0.120   1.487  0.00  0.00    -0.312 N 
ATOM     23  H   UNL     1       2.483   0.338   0.797  0.00  0.00    +0.149 HD
BRANCH  22  24
ATOM     24  C   UNL     1       2.630  -0.506   2.740  0.00  0.00    +0.095 C 
ATOM     25  C   UNL     1       3.100  -1.967   2.642  0.00  0.00    +0.046 C 
ATOM     26  C   UNL     1       4.052  -2.251   3.839  0.00  0.00    +0.168 C 
ATOM     27  S   UNL     1       5.016  -0.682   3.883  0.00  0.00    -0.029 S 
ATOM     28  O   UNL     1       6.189  -0.838   3.096  0.00  0.00    -0.174 OA
ATOM     29  O   UNL     1       5.131  -0.247   5.231  0.00  0.00    -0.174 OA
ATOM     30  C   UNL     1       3.842   0.422   2.995  0.00  0.00    +0.188 C 
ENDBRANCH  22  24
ENDBRANCH  19  20
ENDBRANCH   1  19
TORSDOF 4
