REMARK  Name = ZINC21131231
REMARK  9 active torsions:
REMARK  status: ('A' for Active; 'I' for Inactive)
REMARK    1  A    between atoms: C_1  and  C_2
REMARK    2  A    between atoms: C_2  and  O_3
REMARK    3  A    between atoms: O_3  and  C_4
REMARK    4  A    between atoms: C_4  and  C_6
REMARK    5  A    between atoms: C_10  and  N_11
REMARK    6  A    between atoms: C_12  and  C_14
REMARK    7  A    between atoms: C_14  and  N_15
REMARK    8  A    between atoms: C_18  and  C_21
REMARK    9  A    between atoms: C_25  and  C_29
REMARK                            x       y       z     vdW  Elec       q    Type
REMARK                         _______ _______ _______ _____ _____    ______ ____
ROOT
ATOM      1  N   UNL     1       1.216   3.792  -2.476  0.00  0.00    -0.281 N 
ATOM      2  C   UNL     1       1.240   4.657  -3.509  0.00  0.00    +0.201 C 
ATOM      3  O   UNL     1       1.288   5.851  -3.300  0.00  0.00    -0.278 OA
ATOM      4  H   UNL     1       1.172   2.709  -2.667  0.00  0.00    +0.155 HD
ENDROOT
BRANCH   1   9
ATOM      5  C   UNL     1       1.232   3.540   0.009  0.00  0.00    +0.091 A 
ATOM      6  C   UNL     1       1.268   4.287   1.256  0.00  0.00    -0.021 A 
ATOM      7  C   UNL     1       1.325   5.629   1.120  0.00  0.00    -0.004 A 
ATOM      8  S   UNL     1       1.318   5.909  -0.628  0.00  0.00    -0.077 S 
ATOM      9  C   UNL     1       1.249   4.266  -1.174  0.00  0.00    +0.086 A 
ATOM     10  C   UNL     1       1.377   6.646   2.218  0.00  0.00    +0.046 C 
ATOM     11  C   UNL     1       1.724   5.929   3.528  0.00  0.00    -0.009 C 
ATOM     12  C   UNL     1       0.838   4.687   3.667  0.00  0.00    +0.008 C 
ATOM     13  C   UNL     1       1.249   3.637   2.634  0.00  0.00    +0.037 C 
ATOM     14  C   UNL     1       1.480   6.868   4.711  0.00  0.00    +0.008 C 
BRANCH   5  15
ATOM     15  C   UNL     1       1.176   2.076   0.002  0.00  0.00    +0.342 C 
ATOM     16  O   UNL     1       2.205   1.428  -0.011  0.00  0.00    -0.245 OA
BRANCH  15  17
ATOM     17  O   UNL     1      -0.018   1.448   0.010  0.00  0.00    -0.461 OA
BRANCH  17  19
ATOM     18  C   UNL     1      -1.433  -0.534   0.013  0.00  0.00    +0.048 C 
ATOM     19  C   UNL     1       0.002  -0.004   0.002  0.00  0.00    +0.229 C 
ENDBRANCH  17  19
ENDBRANCH  15  17
ENDBRANCH   5  15
ENDBRANCH   1   9
BRANCH   2  20
ATOM     20  C   UNL     1       1.205   4.142  -4.925  0.00  0.00    +0.019 C 
BRANCH  20  21
ATOM     21  N   UNL     1       1.239   5.274  -5.860  0.00  0.00    +0.385 N 
ATOM     22  C   UNL     1       0.021   6.086  -5.748  0.00  0.00    -0.077 C 
ATOM     23  C   UNL     1       0.154   7.333  -6.626  0.00  0.00    -0.006 C 
ATOM     24  C   UNL     1       0.374   6.905  -8.080  0.00  0.00    +0.071 C 
ATOM     25  C   UNL     1       1.621   6.021  -8.161  0.00  0.00    -0.006 C 
ATOM     26  C   UNL     1       1.445   4.813  -7.238  0.00  0.00    -0.077 C 
ATOM     27  H   UNL     1       2.094   5.912  -5.589  0.00  0.00    -0.081 HD
BRANCH  24  28
ATOM     28  C   UNL     1       0.565   8.127  -8.942  0.00  0.00    +0.213 C 
ATOM     29  O   UNL     1       1.597   8.277  -9.561  0.00  0.00    -0.276 OA
ATOM     30  N   UNL     1      -0.411   9.052  -9.025  0.00  0.00    -0.329 N 
ATOM     31  H   UNL     1      -0.271   9.944  -9.654  0.00  0.00    +0.145 HD
ATOM     32  H   UNL     1      -1.347   8.917  -8.463  0.00  0.00    +0.145 HD
ENDBRANCH  24  28
ENDBRANCH  20  21
ENDBRANCH   2  20
TORSDOF 7
