REMARK  Name = ZINC13941997
REMARK  9 active torsions:
REMARK  status: ('A' for Active; 'I' for Inactive)
REMARK    1  A    between atoms: C_1  and  C_2
REMARK    2  A    between atoms: C_2  and  N_3
REMARK    3  A    between atoms: C_4  and  C_21
REMARK    4  A    between atoms: C_7  and  S_8
REMARK    5  A    between atoms: S_8  and  C_9
REMARK    6  A    between atoms: C_9  and  C_10
REMARK    7  A    between atoms: N_12  and  C_13
REMARK    8  A    between atoms: C_18  and  O_19
REMARK    9  A    between atoms: C_26  and  O_27
REMARK                            x       y       z     vdW  Elec       q    Type
REMARK                         _______ _______ _______ _____ _____    ______ ____
ROOT
ATOM      1  N   UNL     1      -0.930  -0.621  -0.224  0.00  0.00    -0.302 N 
ATOM      2  C   UNL     1      -1.562  -1.076   0.911  0.00  0.00    +0.168 A 
ATOM      3  N   UNL     1      -2.753  -1.494   0.547  0.00  0.00    -0.128 NA
ATOM      4  N   UNL     1      -2.906  -1.335  -0.719  0.00  0.00    -0.122 NA
ATOM      5  C   UNL     1      -1.825  -0.800  -1.241  0.00  0.00    +0.192 A 
ENDROOT
BRANCH   2   6
ATOM      6  C   UNL     1      -1.007  -1.090   2.280  0.00  0.00    +0.062 A 
ATOM      7  C   UNL     1       0.279  -1.580   2.509  0.00  0.00    +0.030 A 
ATOM      8  C   UNL     1       0.793  -1.591   3.791  0.00  0.00    +0.019 A 
ATOM      9  C   UNL     1       0.036  -1.118   4.849  0.00  0.00    +0.019 A 
ATOM     10  C   UNL     1      -1.239  -0.630   4.633  0.00  0.00    +0.047 A 
ATOM     11  C   UNL     1      -1.766  -0.607   3.352  0.00  0.00    +0.128 A 
ATOM     12 BR   UNL     1       2.536  -2.256   4.101  0.00  0.00    -0.050 Br
BRANCH  11  13
ATOM     13  O   UNL     1      -3.017  -0.123   3.139  0.00  0.00    -0.506 OA
ATOM     14  H   UNL     1      -3.714  -0.791   3.204  0.00  0.00    +0.292 HD
ENDBRANCH  11  13
ENDBRANCH   2   6
BRANCH   1  16
ATOM     15  C   UNL     1       0.342   1.468  -0.231  0.00  0.00    +0.027 C 
ATOM     16  C   UNL     1       0.419  -0.058  -0.320  0.00  0.00    +0.122 C 
ENDBRANCH   1  16
BRANCH   5  17
ATOM     17  S   UNL     1      -1.574  -0.393  -2.937  0.00  0.00    -0.077 S 
BRANCH  17  18
ATOM     18  C   UNL     1      -3.128  -0.877  -3.738  0.00  0.00    +0.173 C 
BRANCH  18  19
ATOM     19  C   UNL     1      -3.047  -0.578  -5.213  0.00  0.00    +0.228 C 
ATOM     20  O   UNL     1      -2.040  -0.087  -5.678  0.00  0.00    -0.275 OA
ATOM     21  N   UNL     1      -4.093  -0.857  -6.016  0.00  0.00    -0.282 N 
ATOM     22  H   UNL     1      -4.925  -1.178  -5.635  0.00  0.00    +0.155 HD
BRANCH  21  23
ATOM     23  C   UNL     1      -3.979  -0.681  -7.402  0.00  0.00    +0.077 A 
ATOM     24  C   UNL     1      -2.726  -0.625  -7.995  0.00  0.00    +0.047 A 
ATOM     25  C   UNL     1      -2.617  -0.452  -9.362  0.00  0.00    +0.043 A 
ATOM     26  C   UNL     1      -3.754  -0.335 -10.141  0.00  0.00    +0.023 A 
ATOM     27  C   UNL     1      -5.006  -0.391  -9.556  0.00  0.00    +0.049 A 
ATOM     28  C   UNL     1      -5.124  -0.570  -8.188  0.00  0.00    +0.138 A 
ATOM     29 CL   UNL     1      -1.048  -0.381 -10.103  0.00  0.00    -0.083 Cl
BRANCH  28  30
ATOM     30  O   UNL     1      -6.354  -0.630  -7.612  0.00  0.00    -0.505 OA
ATOM     31  H   UNL     1      -6.701   0.229  -7.334  0.00  0.00    +0.292 HD
ENDBRANCH  28  30
ENDBRANCH  21  23
ENDBRANCH  18  19
ENDBRANCH  17  18
ENDBRANCH   5  17
TORSDOF 8
