REMARK  Name = ZINC58745217
REMARK  10 active torsions:
REMARK  status: ('A' for Active; 'I' for Inactive)
REMARK    1  A    between atoms: C_1  and  C_2
REMARK    2  A    between atoms: C_2  and  C_3
REMARK    3  A    between atoms: C_6  and  C_8
REMARK    4  A    between atoms: N_10  and  C_11
REMARK    5  A    between atoms: N_10  and  C_19
REMARK    6  A    between atoms: C_11  and  C_12
REMARK    7  A    between atoms: C_12  and  C_13
REMARK    8  A    between atoms: C_20  and  N_35
REMARK    9  A    between atoms: N_21  and  C_28
REMARK   10  A    between atoms: C_28  and  C_29
REMARK                            x       y       z     vdW  Elec       q    Type
REMARK                         _______ _______ _______ _____ _____    ______ ____
ROOT
ATOM      1  C   UNL     1      -1.809  -0.744  -4.284  0.00  0.00    +0.140 A 
ATOM      2  C   UNL     1      -2.596   0.280  -4.771  0.00  0.00    +0.128 A 
ATOM      3  N   UNL     1      -3.599   0.791  -3.980  0.00  0.00    -0.276 N 
ATOM      4  C   UNL     1      -3.810   0.299  -2.746  0.00  0.00    +0.331 A 
ATOM      5  O   UNL     1      -4.702   0.765  -2.063  0.00  0.00    -0.246 OA
ATOM      6  N   UNL     1      -3.054  -0.698  -2.254  0.00  0.00    -0.273 N 
ATOM      7  H   UNL     1      -3.227  -1.035  -1.361  0.00  0.00    +0.173 HD
ATOM      8  C   UNL     1      -2.062  -1.238  -2.990  0.00  0.00    +0.277 A 
ATOM      9  O   UNL     1      -1.385  -2.145  -2.536  0.00  0.00    -0.266 OA
ENDROOT
BRANCH   1  12
ATOM     10  C   UNL     1       0.504  -1.215  -4.647  0.00  0.00    +0.286 C 
ATOM     11  O   UNL     1       1.390  -1.748  -5.291  0.00  0.00    -0.266 OA
ATOM     12  N   UNL     1      -0.773  -1.290  -5.070  0.00  0.00    -0.257 N 
BRANCH  10  16
ATOM     13  C   UNL     1       0.612   0.745  -1.614  0.00  0.00    +0.106 A 
ATOM     14  C   UNL     1       1.905   0.357  -1.665  0.00  0.00    +0.045 A 
ATOM     15  C   UNL     1       2.053  -0.437  -2.813  0.00  0.00    +0.055 A 
ATOM     16  C   UNL     1       0.827  -0.494  -3.412  0.00  0.00    +0.190 A 
ATOM     17  O   UNL     1      -0.035   0.227  -2.666  0.00  0.00    -0.455 OA
BRANCH  13  19
ATOM     18  C   UNL     1       0.003   3.072  -1.011  0.00  0.00    +0.012 C 
ATOM     19  C   UNL     1      -0.002   1.614  -0.547  0.00  0.00    +0.071 C 
ENDBRANCH  13  19
ENDBRANCH  10  16
BRANCH  12  20
ATOM     20  C   UNL     1      -1.086  -1.937  -6.346  0.00  0.00    +0.118 C 
BRANCH  20  21
ATOM     21  C   UNL     1      -1.485  -3.393  -6.096  0.00  0.00    +0.050 C 
BRANCH  21  22
ATOM     22  C   UNL     1      -1.807  -4.058  -7.409  0.00  0.00    -0.072 C 
ATOM     23  C   UNL     1      -0.869  -4.733  -7.993  0.00  0.00    -0.028 C 
ATOM     24  C   UNL     1      -1.036  -5.440  -9.306  0.00  0.00    +0.027 C 
ATOM     25  C   UNL     1      -2.522  -5.613  -9.627  0.00  0.00    +0.004 C 
ATOM     26  C   UNL     1      -3.219  -4.258  -9.444  0.00  0.00    +0.005 C 
ATOM     27  C   UNL     1      -3.196  -3.904  -7.954  0.00  0.00    +0.030 C 
ENDBRANCH  21  22
ENDBRANCH  20  21
ENDBRANCH  12  20
ENDBRANCH   1  12
BRANCH   2  28
ATOM     28  N   UNL     1      -2.380   0.783  -6.032  0.00  0.00    -0.343 N 
ATOM     29  H   UNL     1      -1.772   0.330  -6.637  0.00  0.00    +0.144 HD
ATOM     30  H   UNL     1      -2.835   1.591  -6.316  0.00  0.00    +0.144 HD
ENDBRANCH   2  28
BRANCH   3  31
ATOM     31  C   UNL     1      -4.441   1.878  -4.485  0.00  0.00    +0.163 C 
BRANCH  31  32
ATOM     32  C   UNL     1      -5.648   1.299  -5.176  0.00  0.00    -0.028 A 
ATOM     33  C   UNL     1      -5.567   0.911  -6.501  0.00  0.00    +0.005 A 
ATOM     34  C   UNL     1      -6.674   0.380  -7.135  0.00  0.00    +0.000 A 
ATOM     35  C   UNL     1      -7.863   0.235  -6.444  0.00  0.00    +0.000 A 
ATOM     36  C   UNL     1      -7.944   0.622  -5.120  0.00  0.00    +0.000 A 
ATOM     37  C   UNL     1      -6.836   1.149  -4.484  0.00  0.00    +0.005 A 
ENDBRANCH  31  32
ENDBRANCH   3  31
TORSDOF 9
