REMARK  Name = ZINC36154935
REMARK  14 active torsions:
REMARK  status: ('A' for Active; 'I' for Inactive)
REMARK    1  A    between atoms: C_1  and  C_2
REMARK    2  A    between atoms: C_2  and  C_3
REMARK    3  A    between atoms: C_3  and  C_5
REMARK    4  A    between atoms: C_3  and  C_6
REMARK    5  A    between atoms: C_6  and  C_8
REMARK    6  A    between atoms: C_6  and  N_22
REMARK    7  A    between atoms: C_10  and  C_13
REMARK    8  A    between atoms: N_22  and  C_23
REMARK    9  A    between atoms: C_23  and  C_24
REMARK   10  A    between atoms: C_24  and  C_26
REMARK   11  A    between atoms: C_24  and  O_35
REMARK   12  A    between atoms: C_26  and  O_27
REMARK   13  A    between atoms: O_27  and  C_28
REMARK   14  A    between atoms: C_28  and  C_29
REMARK                            x       y       z     vdW  Elec       q    Type
REMARK                         _______ _______ _______ _____ _____    ______ ____
ROOT
ATOM      1  C   UNL     1       0.852  -2.058  -1.295  0.00  0.00    +0.022 C 
ENDROOT
BRANCH   1   2
ATOM      2  C   UNL     1       1.659  -2.218  -0.032  0.00  0.00    +0.214 A 
ATOM      3  N   UNL     1       2.898  -2.614   0.034  0.00  0.00    -0.193 NA
ATOM      4  C   UNL     1       3.305  -2.643   1.315  0.00  0.00    +0.202 A 
ATOM      5  N   UNL     1       2.311  -2.260   2.079  0.00  0.00    -0.056 NA
ATOM      6  O   UNL     1       1.225  -1.972   1.210  0.00  0.00    -0.339 OA
BRANCH   4   7
ATOM      7  C   UNL     1       4.653  -3.043   1.787  0.00  0.00    +0.026 A 
ATOM      8  C   UNL     1       5.628  -3.427   0.868  0.00  0.00    +0.015 A 
ATOM      9  C   UNL     1       6.882  -3.799   1.307  0.00  0.00    +0.050 A 
ATOM     10  C   UNL     1       7.177  -3.792   2.662  0.00  0.00    +0.166 A 
ATOM     11  C   UNL     1       6.205  -3.409   3.585  0.00  0.00    +0.167 A 
ATOM     12  C   UNL     1       4.949  -3.030   3.149  0.00  0.00    +0.061 A 
ATOM     13  O   UNL     1       6.740  -3.487   4.839  0.00  0.00    -0.453 OA
ATOM     14  C   UNL     1       7.913  -4.311   4.705  0.00  0.00    +0.466 C 
ATOM     15  O   UNL     1       8.319  -4.110   3.338  0.00  0.00    -0.453 OA
ENDBRANCH   4   7
ENDBRANCH   1   2
BRANCH   1  16
ATOM     16  N   UNL     1      -0.484  -2.637  -1.099  0.00  0.00    +0.389 N 
ATOM     17  H   UNL     1      -0.915  -2.221  -0.286  0.00  0.00    -0.085 HD
ATOM     18  H   UNL     1      -1.053  -2.453  -1.912  0.00  0.00    -0.085 HD
BRANCH  16  19
ATOM     19  C   UNL     1      -0.365  -4.087  -0.902  0.00  0.00    -0.048 C 
BRANCH  19  20
ATOM     20  C   UNL     1      -1.762  -4.708  -0.826  0.00  0.00    +0.123 C 
BRANCH  20  21
ATOM     21  O   UNL     1      -2.478  -4.136   0.270  0.00  0.00    -0.391 OA
ATOM     22  H   UNL     1      -2.058  -4.273   1.130  0.00  0.00    +0.210 HD
ENDBRANCH  20  21
BRANCH  20  23
ATOM     23  C   UNL     1      -1.637  -6.219  -0.620  0.00  0.00    +0.189 C 
BRANCH  23  24
ATOM     24  O   UNL     1      -2.936  -6.814  -0.666  0.00  0.00    -0.373 OA
BRANCH  24  25
ATOM     25  C   UNL     1      -2.932  -8.232  -0.484  0.00  0.00    +0.195 C 
BRANCH  25  26
ATOM     26  C   UNL     1      -4.346  -8.750  -0.550  0.00  0.00    -0.022 A 
ATOM     27  C   UNL     1      -5.107  -8.831   0.601  0.00  0.00    +0.006 A 
ATOM     28  C   UNL     1      -6.404  -9.306   0.541  0.00  0.00    +0.000 A 
ATOM     29  C   UNL     1      -6.939  -9.701  -0.671  0.00  0.00    +0.000 A 
ATOM     30  C   UNL     1      -6.178  -9.619  -1.823  0.00  0.00    +0.000 A 
ATOM     31  C   UNL     1      -4.883  -9.139  -1.762  0.00  0.00    +0.006 A 
ENDBRANCH  25  26
ENDBRANCH  24  25
ENDBRANCH  23  24
ENDBRANCH  20  23
ENDBRANCH  19  20
ENDBRANCH  16  19
ENDBRANCH   1  16
BRANCH   1  32
ATOM     32  C   UNL     1       0.719  -0.571  -1.630  0.00  0.00    -0.020 C 
ATOM     33  C   UNL     1       2.111   0.057  -1.724  0.00  0.00    +0.006 C 
BRANCH  32  35
ATOM     34  C   UNL     1      -0.247   1.073  -3.245  0.00  0.00    +0.004 C 
ATOM     35  C   UNL     1      -0.004  -0.412  -2.969  0.00  0.00    -0.001 C 
ENDBRANCH  32  35
ENDBRANCH   1  32
TORSDOF 12
