REMARK  Name = ZINC15084379
REMARK  10 active torsions:
REMARK  status: ('A' for Active; 'I' for Inactive)
REMARK    1  A    between atoms: C_1  and  C_2
REMARK    2  A    between atoms: C_2  and  N_3
REMARK    3  A    between atoms: N_3  and  C_4
REMARK    4  A    between atoms: N_3  and  S_6
REMARK    5  A    between atoms: C_4  and  C_5
REMARK    6  A    between atoms: S_6  and  N_9
REMARK    7  A    between atoms: C_12  and  C_15
REMARK    8  A    between atoms: N_18  and  C_21
REMARK    9  A    between atoms: N_26  and  C_29
REMARK   10  A    between atoms: C_29  and  C_30
REMARK                            x       y       z     vdW  Elec       q    Type
REMARK                         _______ _______ _______ _____ _____    ______ ____
ROOT
ATOM      1  C   UNL     1      -4.025   4.544   1.219  0.00  0.00    -0.011 C 
ATOM      2  C   UNL     1      -3.514   5.645   2.154  0.00  0.00    -0.015 C 
ATOM      3  C   UNL     1      -3.756   7.010   1.506  0.00  0.00    -0.077 C 
ATOM      4  N   UNL     1      -5.192   7.195   1.268  0.00  0.00    +0.388 N 
ATOM      5  C   UNL     1      -5.674   6.187   0.317  0.00  0.00    -0.077 C 
ATOM      6  C   UNL     1      -5.507   4.790   0.919  0.00  0.00    -0.015 C 
ATOM      7  H   UNL     1      -5.691   7.099   2.140  0.00  0.00    -0.081 HD
ENDROOT
BRANCH   4   8
ATOM      8  C   UNL     1      -5.427   8.537   0.718  0.00  0.00    +0.029 C 
ATOM      9  C   UNL     1      -6.935   8.781   0.507  0.00  0.00    +0.090 C 
ATOM     10  C   UNL     1      -7.234   9.957   1.413  0.00  0.00    +0.221 C 
ATOM     11  O   UNL     1      -8.319  10.478   1.552  0.00  0.00    -0.275 OA
ATOM     12  N   UNL     1      -6.109  10.329   2.035  0.00  0.00    -0.239 N 
ATOM     13  C   UNL     1      -5.028   9.600   1.718  0.00  0.00    +0.209 C 
ATOM     14  O   UNL     1      -3.911   9.763   2.161  0.00  0.00    -0.277 OA
BRANCH  12  15
ATOM     15  C   UNL     1      -6.061  11.444   2.985  0.00  0.00    +0.151 C 
BRANCH  15  16
ATOM     16  C   UNL     1      -6.337  10.932   4.375  0.00  0.00    -0.030 A 
ATOM     17  C   UNL     1      -7.635  10.881   4.848  0.00  0.00    +0.005 A 
ATOM     18  C   UNL     1      -7.888  10.412   6.123  0.00  0.00    +0.000 A 
ATOM     19  C   UNL     1      -6.844   9.992   6.925  0.00  0.00    +0.000 A 
ATOM     20  C   UNL     1      -5.546  10.042   6.452  0.00  0.00    +0.000 A 
ATOM     21  C   UNL     1      -5.293  10.508   5.176  0.00  0.00    +0.005 A 
ENDBRANCH  15  16
ENDBRANCH  12  15
ENDBRANCH   4   8
BRANCH   1  25
ATOM     22  N   UNL     1      -2.849   0.546   2.079  0.00  0.00    -0.166 NA
ATOM     23  C   UNL     1      -2.220   1.588   2.902  0.00  0.00    +0.111 C 
ATOM     24  C   UNL     1      -2.379   2.938   2.194  0.00  0.00    +0.021 C 
ATOM     25  C   UNL     1      -3.860   3.182   1.895  0.00  0.00    -0.005 C 
ATOM     26  C   UNL     1      -4.381   2.084   0.965  0.00  0.00    +0.021 C 
ATOM     27  C   UNL     1      -4.244   0.728   1.653  0.00  0.00    +0.111 C 
BRANCH  22  28
ATOM     28  S   UNL     1      -2.001  -0.805   1.634  0.00  0.00    +0.099 S 
ATOM     29  O   UNL     1      -2.958  -1.829   1.405  0.00  0.00    -0.141 OA
ATOM     30  O   UNL     1      -0.943  -0.947   2.572  0.00  0.00    -0.141 OA
BRANCH  28  31
ATOM     31  N   UNL     1      -1.295  -0.480   0.171  0.00  0.00    -0.167 NA
BRANCH  31  33
ATOM     32  C   UNL     1       0.180   1.468   0.064  0.00  0.00    +0.022 C 
ATOM     33  C   UNL     1       0.107  -0.060   0.112  0.00  0.00    +0.107 C 
ENDBRANCH  31  33
BRANCH  31  34
ATOM     34  C   UNL     1      -2.073  -0.613  -1.063  0.00  0.00    +0.107 C 
ATOM     35  C   UNL     1      -1.837  -1.998  -1.668  0.00  0.00    +0.022 C 
ENDBRANCH  31  34
ENDBRANCH  28  31
ENDBRANCH  22  28
ENDBRANCH   1  25
TORSDOF 8
