REMARK  Name = ZINC04849770
REMARK  5 active torsions:
REMARK  status: ('A' for Active; 'I' for Inactive)
REMARK    1  A    between atoms: C_5  and  C_7
REMARK    2  A    between atoms: C_7  and  C_9
REMARK    3  A    between atoms: C_7  and  N_55
REMARK    4  A    between atoms: N_13  and  C_14
REMARK    5  A    between atoms: C_22  and  C_25
REMARK                            x       y       z     vdW  Elec       q    Type
REMARK                         _______ _______ _______ _____ _____    ______ ____
ROOT
ATOM      1  C   UNL     1       1.231  -2.186  -0.021  0.00  0.00    +0.035 C 
ENDROOT
BRANCH   1   6
ATOM      2  C   UNL     1       2.377   1.411  -0.013  0.00  0.00    +0.000 A 
ATOM      3  C   UNL     1       1.171   2.086   0.002  0.00  0.00    +0.001 A 
ATOM      4  C   UNL     1      -0.017   1.379   0.010  0.00  0.00    +0.020 A 
ATOM      5  C   UNL     1       0.002  -0.004   0.002  0.00  0.00    +0.043 A 
ATOM      6  C   UNL     1       1.210  -0.679  -0.013  0.00  0.00    -0.035 A 
ATOM      7  C   UNL     1       2.397   0.029  -0.021  0.00  0.00    +0.004 A 
ATOM      8 CL   UNL     1      -1.489  -0.893   0.011  0.00  0.00    -0.083 Cl
ENDBRANCH   1   6
BRANCH   1  14
ATOM      9  C   UNL     1       2.598  -4.123   0.467  0.00  0.00    -0.077 C 
ATOM     10  C   UNL     1       3.985  -4.569   0.935  0.00  0.00    -0.006 C 
ATOM     11  C   UNL     1       4.206  -4.104   2.377  0.00  0.00    +0.071 C 
ATOM     12  C   UNL     1       4.050  -2.583   2.444  0.00  0.00    -0.006 C 
ATOM     13  C   UNL     1       2.660  -2.194   1.933  0.00  0.00    -0.077 C 
ATOM     14  N   UNL     1       2.520  -2.648   0.533  0.00  0.00    +0.389 N 
ATOM     15  H   UNL     1       3.285  -2.249  -0.025  0.00  0.00    -0.080 HD
BRANCH  11  16
ATOM     16  C   UNL     1       5.593  -4.488   2.824  0.00  0.00    +0.213 C 
ATOM     17  O   UNL     1       6.380  -3.630   3.164  0.00  0.00    -0.276 OA
ATOM     18  N   UNL     1       5.959  -5.785   2.847  0.00  0.00    -0.329 N 
ATOM     19  H   UNL     1       5.329  -6.471   2.575  0.00  0.00    +0.145 HD
ATOM     20  H   UNL     1       6.851  -6.032   3.135  0.00  0.00    +0.145 HD
ENDBRANCH  11  16
ENDBRANCH   1  14
BRANCH   1  21
ATOM     21  C   UNL     1       1.100  -2.683  -1.438  0.00  0.00    +0.143 A 
ATOM     22  N   UNL     1       2.031  -2.669  -2.361  0.00  0.00    -0.115 NA
ATOM     23  N   UNL     1       1.534  -3.179  -3.434  0.00  0.00    -0.023 NA
ATOM     24  N   UNL     1       0.310  -3.516  -3.221  0.00  0.00    -0.044 NA
ATOM     25  N   UNL     1       0.007  -3.231  -1.999  0.00  0.00    -0.227 N 
BRANCH  25  26
ATOM     26  C   UNL     1      -1.285  -3.459  -1.347  0.00  0.00    +0.111 C 
ATOM     27  C   UNL     1      -1.610  -4.954  -1.369  0.00  0.00    +0.027 C 
ATOM     28  C   UNL     1      -2.960  -5.192  -0.688  0.00  0.00    +0.002 C 
ATOM     29  C   UNL     1      -4.051  -4.421  -1.435  0.00  0.00    +0.000 C 
ATOM     30  C   UNL     1      -3.725  -2.927  -1.413  0.00  0.00    +0.002 C 
ATOM     31  C   UNL     1      -2.376  -2.689  -2.094  0.00  0.00    +0.027 C 
ENDBRANCH  25  26
ENDBRANCH   1  21
TORSDOF 5
