REMARK  Name = ZINC63383538
REMARK  13 active torsions:
REMARK  status: ('A' for Active; 'I' for Inactive)
REMARK    1  A    between atoms: C_1  and  C_2
REMARK    2  A    between atoms: C_2  and  C_3
REMARK    3  A    between atoms: C_2  and  C_4
REMARK    4  A    between atoms: C_4  and  C_6
REMARK    5  A    between atoms: C_4  and  N_16
REMARK    6  A    between atoms: N_8  and  C_9
REMARK    7  A    between atoms: C_9  and  C_10
REMARK    8  A    between atoms: C_10  and  C_11
REMARK    9  A    between atoms: C_11  and  O_12
REMARK   10  A    between atoms: O_12  and  C_13
REMARK   11  A    between atoms: C_13  and  C_14
REMARK   12  A    between atoms: C_13  and  C_15
REMARK   13  A    between atoms: C_17  and  C_19
REMARK                            x       y       z     vdW  Elec       q    Type
REMARK                         _______ _______ _______ _____ _____    ______ ____
ROOT
ATOM      1  C   UNL     1      -2.181  -3.881   1.684  0.00  0.00    +0.167 C 
ATOM      2  C   UNL     1      -1.194  -4.838   0.987  0.00  0.00    +0.065 C 
ATOM      3  C   UNL     1      -1.861  -6.190   0.922  0.00  0.00    -0.034 C 
ATOM      4  C   UNL     1      -1.439  -7.386   1.321  0.00  0.00    -0.001 A 
ATOM      5  C   UNL     1      -0.149  -7.833   1.870  0.00  0.00    +0.010 A 
ATOM      6  C   UNL     1      -0.061  -9.150   2.196  0.00  0.00    +0.001 A 
ATOM      7  C   UNL     1      -1.115 -10.055   2.033  0.00  0.00    +0.002 A 
ATOM      8  C   UNL     1      -2.332  -9.732   1.527  0.00  0.00    +0.026 A 
ATOM      9  C   UNL     1      -2.543  -8.376   1.139  0.00  0.00    +0.043 A 
ATOM     10  N   UNL     1      -3.584  -7.803   0.614  0.00  0.00    -0.375 N 
ATOM     11  C   UNL     1      -3.258  -6.401   0.348  0.00  0.00    +0.131 C 
ATOM     12  C   UNL     1      -4.189  -5.450   1.110  0.00  0.00    +0.134 C 
ATOM     13  N   UNL     1      -3.526  -4.128   1.148  0.00  0.00    -0.276 N 
ATOM     14  C   UNL     1      -4.353  -3.216   0.606  0.00  0.00    +0.248 C 
ATOM     15  O   UNL     1      -4.138  -2.020   0.563  0.00  0.00    -0.270 OA
ATOM     16  C   UNL     1      -5.549  -3.872   0.074  0.00  0.00    +0.042 A 
ATOM     17  C   UNL     1      -5.479  -5.268   0.379  0.00  0.00    -0.013 A 
ATOM     18  C   UNL     1      -6.462  -6.161   0.015  0.00  0.00    +0.006 A 
ATOM     19  C   UNL     1      -7.561  -5.647  -0.668  0.00  0.00    +0.000 A 
ATOM     20  C   UNL     1      -7.668  -4.304  -0.970  0.00  0.00    +0.001 A 
ATOM     21  C   UNL     1      -6.647  -3.349  -0.614  0.00  0.00    +0.013 A 
ATOM     22  H   UNL     1      -4.434  -8.232   0.428  0.00  0.00    +0.160 HD
ENDROOT
BRANCH   1  24
ATOM     23  N   UNL     1      -1.856  -1.960   0.160  0.00  0.00    -0.302 N 
ATOM     24  C   UNL     1      -1.781  -2.454   1.412  0.00  0.00    +0.235 C 
ATOM     25  O   UNL     1      -1.391  -1.750   2.319  0.00  0.00    -0.274 OA
ATOM     26  H   UNL     1      -2.167  -2.523  -0.566  0.00  0.00    +0.150 HD
BRANCH  23  27
ATOM     27  C   UNL     1      -1.466  -0.572  -0.104  0.00  0.00    +0.161 C 
BRANCH  27  28
ATOM     28  C   UNL     1      -2.177  -0.077  -1.338  0.00  0.00    +0.234 C 
ATOM     29  O   UNL     1      -2.662  -0.870  -2.117  0.00  0.00    -0.274 OA
ATOM     30  N   UNL     1      -2.274   1.246  -1.575  0.00  0.00    -0.314 N 
ATOM     31  H   UNL     1      -1.948   1.881  -0.918  0.00  0.00    +0.149 HD
BRANCH  30  32
ATOM     32  C   UNL     1      -2.870   1.724  -2.824  0.00  0.00    +0.106 C 
BRANCH  32  33
ATOM     33  C   UNL     1      -2.858   3.254  -2.842  0.00  0.00    +0.047 C 
BRANCH  33  34
ATOM     34  C   UNL     1      -3.481   3.754  -4.147  0.00  0.00    +0.161 C 
BRANCH  34  35
ATOM     35  O   UNL     1      -3.469   5.183  -4.163  0.00  0.00    -0.377 OA
BRANCH  35  36
ATOM     36  C   UNL     1      -4.032   5.755  -5.346  0.00  0.00    +0.112 C 
ATOM     37  C   UNL     1      -4.652   7.113  -5.010  0.00  0.00    +0.037 C 
ATOM     38  C   UNL     1      -2.934   5.942  -6.394  0.00  0.00    +0.037 C 
ENDBRANCH  35  36
ENDBRANCH  34  35
ENDBRANCH  33  34
ENDBRANCH  32  33
ENDBRANCH  30  32
ENDBRANCH  27  28
BRANCH  27  40
ATOM     39  C   UNL     1       0.768  -0.900   0.965  0.00  0.00    +0.009 C 
ATOM     40  C   UNL     1       0.046  -0.500  -0.323  0.00  0.00    +0.012 C 
ATOM     41  C   UNL     1       0.445  -1.456  -1.450  0.00  0.00    +0.009 C 
ENDBRANCH  27  40
ENDBRANCH  23  27
ENDBRANCH   1  24
TORSDOF 9
