REMARK  Name = ZINC03523426
REMARK  7 active torsions:
REMARK  status: ('A' for Active; 'I' for Inactive)
REMARK    1  A    between atoms: C_4  and  C_7
REMARK    2  A    between atoms: N_9  and  N_10
REMARK    3  A    between atoms: C_11  and  C_13
REMARK    4  A    between atoms: C_13  and  O_14
REMARK    5  A    between atoms: O_14  and  C_15
REMARK    6  A    between atoms: C_15  and  C_17
REMARK    7  A    between atoms: C_22  and  N_23
REMARK                            x       y       z     vdW  Elec       q    Type
REMARK                         _______ _______ _______ _____ _____    ______ ____
ROOT
ATOM      1  C   UNL     1      -2.275  -4.290  -0.028  0.00  0.00    +0.329 C 
ENDROOT
BRANCH   1   3
ATOM      2  N   UNL     1      -1.138  -2.094  -0.058  0.00  0.00    -0.231 N 
ATOM      3  C   UNL     1      -2.296  -2.784  -0.045  0.00  0.00    +0.267 C 
ATOM      4  O   UNL     1      -3.355  -2.192  -0.046  0.00  0.00    -0.271 OA
ATOM      5  H   UNL     1      -0.292  -2.567  -0.057  0.00  0.00    +0.173 HD
BRANCH   2   8
ATOM      6  C   UNL     1      -0.000  -0.003  -0.086  0.00  0.00    +0.260 C 
ATOM      7  O   UNL     1       1.061  -0.596  -0.085  0.00  0.00    -0.269 OA
ATOM      8  N   UNL     1      -1.158  -0.693  -0.073  0.00  0.00    -0.230 N 
ATOM      9  H   UNL     1      -2.005  -0.220  -0.074  0.00  0.00    +0.173 HD
BRANCH   6  13
ATOM     10  C   UNL     1      -0.059   4.244  -0.132  0.00  0.00    +0.000 A 
ATOM     11  C   UNL     1       1.150   3.572  -0.131  0.00  0.00    +0.001 A 
ATOM     12  C   UNL     1       1.177   2.193  -0.116  0.00  0.00    +0.013 A 
ATOM     13  C   UNL     1      -0.021   1.475  -0.103  0.00  0.00    +0.038 A 
ATOM     14  C   UNL     1      -1.237   2.159  -0.110  0.00  0.00    +0.013 A 
ATOM     15  C   UNL     1      -1.249   3.539  -0.119  0.00  0.00    +0.001 A 
ENDBRANCH   6  13
ENDBRANCH   2   8
ENDBRANCH   1   3
BRANCH   1  16
ATOM     16  O   UNL     1      -3.637  -4.793  -0.016  0.00  0.00    -0.452 OA
BRANCH  16  17
ATOM     17  C   UNL     1      -3.795  -6.131  -0.001  0.00  0.00    +0.342 C 
ATOM     18  O   UNL     1      -2.821  -6.858   0.003  0.00  0.00    -0.245 OA
BRANCH  17  19
ATOM     19  C   UNL     1      -5.148  -6.713   0.012  0.00  0.00    +0.082 A 
ATOM     20  C   UNL     1      -6.269  -5.885   0.133  0.00  0.00    +0.037 A 
ATOM     21  C   UNL     1      -7.532  -6.436   0.144  0.00  0.00    +0.043 A 
ATOM     22  C   UNL     1      -7.700  -7.809   0.035  0.00  0.00    +0.042 A 
ATOM     23  C   UNL     1      -6.604  -8.639  -0.084  0.00  0.00    +0.064 A 
ATOM     24  C   UNL     1      -5.321  -8.101  -0.102  0.00  0.00    +0.057 A 
ATOM     25 CL   UNL     1      -6.826 -10.355  -0.218  0.00  0.00    -0.082 Cl
ATOM     26 CL   UNL     1      -8.921  -5.405   0.293  0.00  0.00    -0.083 Cl
BRANCH  24  27
ATOM     27  N   UNL     1      -4.216  -8.935  -0.228  0.00  0.00    -0.356 N 
ATOM     28  H   UNL     1      -4.275  -9.863   0.048  0.00  0.00    +0.142 HD
ATOM     29  H   UNL     1      -3.386  -8.588  -0.591  0.00  0.00    +0.142 HD
ENDBRANCH  24  27
ENDBRANCH  17  19
ENDBRANCH  16  17
ENDBRANCH   1  16
TORSDOF 7
