REMARK  Name = ZINC23270867
REMARK  8 active torsions:
REMARK  status: ('A' for Active; 'I' for Inactive)
REMARK    1  A    between atoms: C_1  and  C_2
REMARK    2  A    between atoms: C_5  and  N_8
REMARK    3  A    between atoms: N_8  and  C_9
REMARK    4  A    between atoms: C_9  and  C_10
REMARK    5  A    between atoms: C_15  and  C_17
REMARK    6  A    between atoms: C_17  and  N_18
REMARK    7  A    between atoms: C_25  and  C_29
REMARK    8  A    between atoms: C_26  and  C_28
REMARK                            x       y       z     vdW  Elec       q    Type
REMARK                         _______ _______ _______ _____ _____    ______ ____
ROOT
ATOM      1  N   UNL     1      -1.237   2.069   0.019  0.00  0.00    -0.263 N 
ATOM      2  C   UNL     1      -2.394   1.385  -0.081  0.00  0.00    +0.240 C 
ATOM      3  O   UNL     1      -2.383   0.172  -0.088  0.00  0.00    -0.273 OA
ENDROOT
BRANCH   1   8
ATOM      4  C   UNL     1       3.701  -0.723   0.001  0.00  0.00    +0.044 C 
ATOM      5  C   UNL     1       2.390   0.020   0.005  0.00  0.00    -0.050 A 
ATOM      6  C   UNL     1       1.974   0.678   1.148  0.00  0.00    +0.005 A 
ATOM      7  C   UNL     1       0.773   1.360   1.155  0.00  0.00    +0.024 A 
ATOM      8  C   UNL     1      -0.017   1.384   0.013  0.00  0.00    +0.037 A 
ATOM      9  C   UNL     1       0.404   0.722  -1.133  0.00  0.00    +0.024 A 
ATOM     10  C   UNL     1       1.606   0.043  -1.134  0.00  0.00    +0.005 A 
ENDBRANCH   1   8
BRANCH   1  11
ATOM     11  C   UNL     1      -1.257   3.529   0.134  0.00  0.00    +0.188 C 
BRANCH  11  12
ATOM     12  C   UNL     1      -1.208   4.142  -1.242  0.00  0.00    +0.122 A 
ATOM     13  C   UNL     1      -2.272   4.451  -2.004  0.00  0.00    +0.046 A 
ATOM     14  C   UNL     1      -1.770   5.000  -3.206  0.00  0.00    +0.041 A 
ATOM     15  C   UNL     1      -0.428   4.993  -3.107  0.00  0.00    +0.195 A 
ATOM     16  O   UNL     1      -0.094   4.478  -1.913  0.00  0.00    -0.466 OA
ENDBRANCH  11  12
ENDBRANCH   1  11
BRANCH   2  17
ATOM     17  C   UNL     1      -3.702   2.128  -0.184  0.00  0.00    +0.222 C 
BRANCH  17  18
ATOM     18  N   UNL     1      -4.803   1.166  -0.281  0.00  0.00    -0.290 N 
ATOM     19  C   UNL     1      -5.209   0.741  -1.505  0.00  0.00    +0.203 A 
ATOM     20  N   UNL     1      -6.184  -0.118  -1.633  0.00  0.00    -0.230 NA
ATOM     21  C   UNL     1      -6.817  -0.599  -0.568  0.00  0.00    +0.116 A 
ATOM     22  C   UNL     1      -6.471  -0.214   0.740  0.00  0.00    +0.075 A 
ATOM     23  C   UNL     1      -5.395   0.726   0.845  0.00  0.00    +0.263 A 
ATOM     24  O   UNL     1      -5.022   1.121   1.935  0.00  0.00    -0.267 OA
ATOM     25  C   UNL     1      -7.261  -0.830   1.790  0.00  0.00    -0.026 A 
ATOM     26  C   UNL     1      -8.233  -1.694   1.458  0.00  0.00    -0.008 A 
ATOM     27  S   UNL     1      -8.153  -1.740  -0.323  0.00  0.00    -0.073 S 
ATOM     28  C   UNL     1      -9.169  -2.444   2.371  0.00  0.00    +0.052 C 
ATOM     29  C   UNL     1      -6.993  -0.504   3.237  0.00  0.00    +0.045 C 
ENDBRANCH  17  18
ENDBRANCH   2  17
TORSDOF 5
