REMARK  Name = ZINC08720715
REMARK  9 active torsions:
REMARK  status: ('A' for Active; 'I' for Inactive)
REMARK    1  A    between atoms: C_1  and  N_2
REMARK    2  A    between atoms: N_2  and  C_3
REMARK    3  A    between atoms: C_3  and  C_4
REMARK    4  A    between atoms: C_15  and  C_17
REMARK    5  A    between atoms: C_17  and  S_18
REMARK    6  A    between atoms: S_18  and  C_19
REMARK    7  A    between atoms: C_22  and  C_30
REMARK    8  A    between atoms: N_23  and  C_24
REMARK    9  A    between atoms: C_30  and  N_31
REMARK                            x       y       z     vdW  Elec       q    Type
REMARK                         _______ _______ _______ _____ _____    ______ ____
ROOT
ATOM      1  C   UNL     1      -0.153   0.216  -5.238  0.00  0.00    +0.197 A 
ATOM      2  N   UNL     1      -0.086   1.522  -5.354  0.00  0.00    -0.122 NA
ATOM      3  N   UNL     1      -0.012   1.848  -6.595  0.00  0.00    -0.135 NA
ATOM      4  C   UNL     1      -0.027   0.780  -7.341  0.00  0.00    +0.122 A 
ATOM      5  N   UNL     1      -0.112  -0.301  -6.505  0.00  0.00    -0.276 N 
ENDROOT
BRANCH   5   6
ATOM      6  C   UNL     1      -0.151  -1.654  -6.870  0.00  0.00    +0.050 A 
ATOM      7  C   UNL     1       0.962  -2.252  -7.446  0.00  0.00    +0.026 A 
ATOM      8  C   UNL     1       0.920  -3.585  -7.804  0.00  0.00    +0.002 A 
ATOM      9  C   UNL     1      -0.228  -4.324  -7.589  0.00  0.00    +0.000 A 
ATOM     10  C   UNL     1      -1.338  -3.732  -7.015  0.00  0.00    +0.002 A 
ATOM     11  C   UNL     1      -1.300  -2.401  -6.650  0.00  0.00    +0.026 A 
ENDBRANCH   5   6
BRANCH   1  12
ATOM     12  S   UNL     1      -0.267  -0.699  -3.737  0.00  0.00    -0.076 S 
BRANCH  12  13
ATOM     13  C   UNL     1      -0.277   0.576  -2.446  0.00  0.00    +0.173 C 
BRANCH  13  16
ATOM     14  C   UNL     1      -0.328   2.136  -0.081  0.00  0.00    +0.132 C 
ATOM     15  N   UNL     1      -0.395   0.676   0.023  0.00  0.00    -0.300 N 
ATOM     16  C   UNL     1      -0.372  -0.080  -1.093  0.00  0.00    +0.226 C 
ATOM     17  O   UNL     1      -0.428  -1.289  -1.007  0.00  0.00    -0.275 OA
BRANCH  15  18
ATOM     18  C   UNL     1      -0.488   0.038   1.338  0.00  0.00    +0.155 C 
BRANCH  18  19
ATOM     19  C   UNL     1      -1.960  -0.123   1.724  0.00  0.00    +0.228 C 
ATOM     20  C   UNL     1      -2.063  -0.689   3.147  0.00  0.00    +0.275 C 
ATOM     21  O   UNL     1      -3.449  -0.839   3.471  0.00  0.00    -0.485 OA
ATOM     22  C   UNL     1      -4.237  -1.423   2.527  0.00  0.00    +0.162 A 
ATOM     23  C   UNL     1      -5.478  -1.925   2.892  0.00  0.00    +0.049 A 
ATOM     24  C   UNL     1      -6.290  -2.518   1.944  0.00  0.00    +0.004 A 
ATOM     25  C   UNL     1      -5.870  -2.610   0.630  0.00  0.00    +0.004 A 
ATOM     26  C   UNL     1      -4.635  -2.113   0.260  0.00  0.00    +0.049 A 
ATOM     27  C   UNL     1      -3.814  -1.519   1.207  0.00  0.00    +0.163 A 
ATOM     28  O   UNL     1      -2.597  -1.040   0.829  0.00  0.00    -0.480 OA
ENDBRANCH  18  19
ENDBRANCH  15  18
ENDBRANCH  13  16
ENDBRANCH  12  13
ENDBRANCH   1  12
BRANCH   4  29
ATOM     29  C   UNL     1       0.041   0.742  -8.847  0.00  0.00    -0.001 C 
BRANCH  29  30
ATOM     30  N   UNL     1      -1.319   0.667  -9.397  0.00  0.00    +0.384 N 
ATOM     31  C   UNL     1      -2.036   1.946  -9.164  0.00  0.00    -0.078 C 
ATOM     32  C   UNL     1      -3.154   1.926 -10.237  0.00  0.00    -0.020 C 
ATOM     33  C   UNL     1      -2.453   1.280 -11.454  0.00  0.00    -0.020 C 
ATOM     34  C   UNL     1      -1.266   0.495 -10.865  0.00  0.00    -0.078 C 
ATOM     35  H   UNL     1      -1.823  -0.098  -8.975  0.00  0.00    -0.081 HD
ENDBRANCH  29  30
ENDBRANCH   4  29
TORSDOF 8
