REMARK  Name = ZINC02119345
REMARK  8 active torsions:
REMARK  status: ('A' for Active; 'I' for Inactive)
REMARK    1  A    between atoms: C_1  and  O_2
REMARK    2  A    between atoms: O_2  and  C_3
REMARK    3  A    between atoms: C_6  and  C_19
REMARK    4  A    between atoms: C_8  and  C_9
REMARK    5  A    between atoms: C_9  and  N_10
REMARK    6  A    between atoms: C_32  and  C_34
REMARK    7  A    between atoms: C_34  and  O_36
REMARK    8  A    between atoms: O_36  and  C_37
REMARK                            x       y       z     vdW  Elec       q    Type
REMARK                         _______ _______ _______ _____ _____    ______ ____
ROOT
ATOM      1  C   UNL     1       2.542   1.329  -0.011  0.00  0.00    +0.008 C 
ATOM      2  C   UNL     1       1.097   1.768   0.001  0.00  0.00    +0.010 A 
ATOM      3  C   UNL     1       0.721   3.067   0.010  0.00  0.00    -0.021 A 
ATOM      4  C   UNL     1      -0.724   3.094   0.024  0.00  0.00    +0.003 A 
ATOM      5  C   UNL     1      -1.657   4.136   0.037  0.00  0.00    +0.010 A 
ATOM      6  C   UNL     1      -2.983   3.783   0.035  0.00  0.00    +0.001 A 
ATOM      7  C   UNL     1      -3.393   2.459   0.031  0.00  0.00    +0.002 A 
ATOM      8  C   UNL     1      -2.493   1.408   0.021  0.00  0.00    +0.026 A 
ATOM      9  C   UNL     1      -1.139   1.736   0.016  0.00  0.00    +0.047 A 
ATOM     10  N   UNL     1      -0.011   0.966   0.007  0.00  0.00    -0.359 N 
ATOM     11  H   UNL     1       0.002  -0.004   0.002  0.00  0.00    +0.166 HD
ATOM     12  C   UNL     1       1.699   4.216   0.004  0.00  0.00    +0.033 C 
ATOM     13  C   UNL     1       3.072   3.668  -0.407  0.00  0.00    +0.045 C 
ATOM     14  N   UNL     1       3.389   2.471   0.399  0.00  0.00    +0.396 N 
ATOM     15  H   UNL     1       4.377   2.225   0.264  0.00  0.00    -0.083 HD
ATOM     16  H   UNL     1       3.221   2.678   1.391  0.00  0.00    -0.083 HD
ENDROOT
BRANCH   1  20
ATOM     17  C   UNL     1       3.089  -1.889   2.746  0.00  0.00    +0.125 A 
ATOM     18  C   UNL     1       3.041  -0.581   3.206  0.00  0.00    +0.046 A 
ATOM     19  C   UNL     1       2.870   0.458   2.312  0.00  0.00    +0.006 A 
ATOM     20  C   UNL     1       2.736   0.194   0.961  0.00  0.00    -0.055 A 
ATOM     21  C   UNL     1       2.783  -1.108   0.500  0.00  0.00    +0.011 A 
ATOM     22  C   UNL     1       2.960  -2.151   1.390  0.00  0.00    +0.016 A 
BRANCH  17  24
ATOM     23  C   UNL     1       3.389  -2.570   5.004  0.00  0.00    +0.277 C 
ATOM     24  O   UNL     1       3.263  -2.913   3.623  0.00  0.00    -0.495 OA
ENDBRANCH  17  24
BRANCH  22  25
ATOM     25  C   UNL     1       3.012  -3.570   0.887  0.00  0.00    +0.184 C 
BRANCH  25  26
ATOM     26  N   UNL     1       4.407  -4.007   0.801  0.00  0.00    -0.239 N 
ATOM     27  C   UNL     1       5.241  -3.888  -0.286  0.00  0.00    +0.089 A 
ATOM     28  C   UNL     1       5.090  -3.368  -1.567  0.00  0.00    +0.029 A 
ATOM     29  C   UNL     1       6.141  -3.400  -2.441  0.00  0.00    +0.002 A 
ATOM     30  C   UNL     1       7.359  -3.947  -2.061  0.00  0.00    +0.002 A 
ATOM     31  C   UNL     1       7.535  -4.457  -0.808  0.00  0.00    +0.032 A 
ATOM     32  C   UNL     1       6.473  -4.441   0.105  0.00  0.00    +0.113 A 
ATOM     33  N   UNL     1       6.343  -4.872   1.376  0.00  0.00    -0.129 NA
ATOM     34  N   UNL     1       5.155  -4.634   1.809  0.00  0.00    -0.064 NA
ENDBRANCH  25  26
ENDBRANCH  22  25
ENDBRANCH   1  20
BRANCH  13  35
ATOM     35  C   UNL     1       4.125   4.718  -0.164  0.00  0.00    +0.293 C 
ATOM     36  O   UNL     1       4.816   4.663   0.826  0.00  0.00    -0.253 OA
BRANCH  35  37
ATOM     37  O   UNL     1       4.296   5.714  -1.048  0.00  0.00    -0.469 OA
ATOM     38  C   UNL     1       5.329   6.690  -0.749  0.00  0.00    +0.280 C 
ENDBRANCH  35  37
ENDBRANCH  13  35
TORSDOF 6
