REMARK  Name = ZINC28046985
REMARK  7 active torsions:
REMARK  status: ('A' for Active; 'I' for Inactive)
REMARK    1  A    between atoms: C_3  and  N_27
REMARK    2  A    between atoms: C_6  and  C_7
REMARK    3  A    between atoms: C_7  and  N_8
REMARK    4  A    between atoms: C_9  and  C_11
REMARK    5  A    between atoms: C_11  and  C_12
REMARK    6  A    between atoms: C_12  and  N_13
REMARK    7  A    between atoms: N_16  and  C_17
REMARK                            x       y       z     vdW  Elec       q    Type
REMARK                         _______ _______ _______ _____ _____    ______ ____
ROOT
ATOM      1  C   UNL     1       2.462   0.920   0.025  0.00  0.00    +0.114 C 
ENDROOT
BRANCH   1   3
ATOM      2  N   UNL     1      -0.011   0.966   0.026  0.00  0.00    -0.311 N 
ATOM      3  C   UNL     1       1.147   1.655   0.022  0.00  0.00    +0.215 C 
ATOM      4  O   UNL     1       1.130   2.868   0.016  0.00  0.00    -0.276 OA
ATOM      5  H   UNL     1       0.004  -0.134   0.036  0.00  0.00    +0.149 HD
BRANCH   2   6
ATOM      6  C   UNL     1      -1.290   1.681   0.017  0.00  0.00    +0.139 C 
BRANCH   6  12
ATOM      7  C   UNL     1      -2.938   0.229  -1.181  0.00  0.00    +0.007 A 
ATOM      8  C   UNL     1      -3.972  -0.686  -1.185  0.00  0.00    +0.023 A 
ATOM      9  C   UNL     1      -4.500  -1.140   0.017  0.00  0.00    +0.030 A 
ATOM     10  C   UNL     1      -3.982  -0.675   1.219  0.00  0.00    +0.023 A 
ATOM     11  C   UNL     1      -2.945   0.237   1.216  0.00  0.00    +0.007 A 
ATOM     12  C   UNL     1      -2.422   0.686   0.017  0.00  0.00    -0.030 A 
BRANCH   9  13
ATOM     13  N   UNL     1      -5.549  -2.063   0.017  0.00  0.00    -0.330 N 
ATOM     14  C   UNL     1      -5.134  -3.340   0.650  0.00  0.00    +0.105 C 
ATOM     15  C   UNL     1      -6.483  -4.000   1.035  0.00  0.00    +0.020 C 
ATOM     16  C   UNL     1      -7.341  -2.794   1.482  0.00  0.00    +0.020 C 
ATOM     17  C   UNL     1      -6.690  -1.568   0.818  0.00  0.00    +0.105 C 
ENDBRANCH   9  13
ENDBRANCH   6  12
ENDBRANCH   2   6
ENDBRANCH   1   3
BRANCH   1  18
ATOM     18  C   UNL     1       3.611   1.930   0.020  0.00  0.00    +0.115 C 
BRANCH  18  19
ATOM     19  N   UNL     1       4.890   1.214   0.022  0.00  0.00    -0.299 N 
ATOM     20  C   UNL     1       6.048   1.904   0.018  0.00  0.00    +0.300 C 
ATOM     21  O   UNL     1       6.031   3.120   0.013  0.00  0.00    -0.253 OA
ATOM     22  N   UNL     1       7.224   1.246   0.021  0.00  0.00    -0.294 N 
ATOM     23  H   UNL     1       4.905   0.115   0.028  0.00  0.00    +0.150 HD
ATOM     24  H   UNL     1       7.239   0.146   0.026  0.00  0.00    +0.151 HD
BRANCH  22  25
ATOM     25  C   UNL     1       8.483   1.996   0.017  0.00  0.00    +0.037 C 
ATOM     26  C   UNL     1       8.551   2.870  -1.237  0.00  0.00    +0.029 C 
ATOM     27  C   UNL     1       9.866   3.653  -1.241  0.00  0.00    -0.008 C 
ATOM     28  C   UNL     1      11.042   2.675  -1.237  0.00  0.00    +0.007 C 
ATOM     29  C   UNL     1      10.974   1.800   0.016  0.00  0.00    -0.008 C 
ATOM     30  C   UNL     1       9.659   1.017   0.021  0.00  0.00    +0.029 C 
ATOM     31  C   UNL     1      11.043   2.687   1.261  0.00  0.00    +0.007 C 
ATOM     32  C   UNL     1       9.867   3.665   1.257  0.00  0.00    -0.008 C 
ATOM     33  C   UNL     1       9.935   4.540   0.004  0.00  0.00    +0.007 C 
ATOM     34  C   UNL     1       8.553   2.882   1.262  0.00  0.00    +0.029 C 
ENDBRANCH  22  25
ENDBRANCH  18  19
ENDBRANCH   1  18
TORSDOF 7
