REMARK  Name = ZINC38990181
REMARK  8 active torsions:
REMARK  status: ('A' for Active; 'I' for Inactive)
REMARK    1  A    between atoms: C_6  and  C_7
REMARK    2  A    between atoms: C_9  and  C_13
REMARK    3  A    between atoms: C_17  and  S_21
REMARK    4  A    between atoms: N_19  and  N_20
REMARK    5  A    between atoms: S_21  and  C_22
REMARK    6  A    between atoms: C_22  and  C_23
REMARK    7  A    between atoms: N_25  and  C_26
REMARK    8  A    between atoms: C_31  and  C_32
REMARK                            x       y       z     vdW  Elec       q    Type
REMARK                         _______ _______ _______ _____ _____    ______ ____
ROOT
ATOM      1  C   UNL     1      -3.255  -3.171  -1.248  0.00  0.00    +0.185 C 
ATOM      2  N   UNL     1      -2.617  -4.513  -1.290  0.00  0.00    -0.234 NA
ATOM      3  N   UNL     1      -3.527  -5.287  -2.149  0.00  0.00    -0.228 NA
ATOM      4  C   UNL     1      -4.880  -4.811  -1.778  0.00  0.00    +0.214 C 
ATOM      5  N   UNL     1      -4.708  -3.457  -1.206  0.00  0.00    -0.197 NA
ATOM      6  H   UNL     1      -2.561  -4.916  -0.367  0.00  0.00    +0.143 HD
ATOM      7  H   UNL     1      -3.433  -6.276  -1.977  0.00  0.00    +0.143 HD
ENDROOT
BRANCH   1  10
ATOM      8  C   UNL     1      -1.228  -0.812  -0.003  0.00  0.00    +0.091 C 
ATOM      9  C   UNL     1      -1.326  -2.156  -0.010  0.00  0.00    +0.034 C 
ATOM     10  C   UNL     1      -2.822  -2.412   0.008  0.00  0.00    +0.187 C 
ATOM     11  N   UNL     1      -3.395  -1.056   0.023  0.00  0.00    -0.176 NA
ATOM     12  N   UNL     1      -2.464  -0.247   0.022  0.00  0.00    -0.154 NA
BRANCH   8  18
ATOM     13  C   UNL     1       0.035   1.337  -0.001  0.00  0.00    +0.013 A 
ATOM     14  C   UNL     1       1.224   2.037  -0.012  0.00  0.00    +0.039 A 
ATOM     15  C   UNL     1       2.430   1.355  -0.037  0.00  0.00    +0.123 A 
ATOM     16  C   UNL     1       2.448  -0.030  -0.051  0.00  0.00    +0.039 A 
ATOM     17  C   UNL     1       1.264  -0.737  -0.040  0.00  0.00    +0.013 A 
ATOM     18  C   UNL     1       0.048  -0.056  -0.015  0.00  0.00    +0.002 A 
ATOM     19  F   UNL     1       3.593   2.044  -0.048  0.00  0.00    -0.205 F 
ENDBRANCH   8  18
ENDBRANCH   1  10
BRANCH   5  20
ATOM     20  N   UNL     1      -5.211  -3.401   0.158  0.00  0.00    -0.264 NA
ATOM     21  H   UNL     1      -6.200  -3.596   0.186  0.00  0.00    +0.137 HD
ATOM     22  H   UNL     1      -4.700  -4.032   0.757  0.00  0.00    +0.137 HD
ENDBRANCH   5  20
BRANCH   4  23
ATOM     23  S   UNL     1      -5.937  -4.732  -3.250  0.00  0.00    -0.115 S 
BRANCH  23  24
ATOM     24  C   UNL     1      -5.061  -3.594  -4.359  0.00  0.00    +0.168 C 
BRANCH  24  25
ATOM     25  C   UNL     1      -5.842  -3.438  -5.638  0.00  0.00    +0.227 C 
ATOM     26  O   UNL     1      -6.887  -4.035  -5.787  0.00  0.00    -0.275 OA
ATOM     27  N   UNL     1      -5.380  -2.634  -6.616  0.00  0.00    -0.284 N 
ATOM     28  H   UNL     1      -4.587  -2.095  -6.467  0.00  0.00    +0.155 HD
BRANCH  27  29
ATOM     29  C   UNL     1      -6.043  -2.578  -7.847  0.00  0.00    +0.045 A 
ATOM     30  C   UNL     1      -6.815  -3.651  -8.272  0.00  0.00    +0.025 A 
ATOM     31  C   UNL     1      -7.469  -3.593  -9.487  0.00  0.00    +0.022 A 
ATOM     32  C   UNL     1      -7.355  -2.466 -10.282  0.00  0.00    +0.042 A 
ATOM     33  C   UNL     1      -6.586  -1.395  -9.861  0.00  0.00    +0.034 A 
ATOM     34  C   UNL     1      -5.935  -1.446  -8.644  0.00  0.00    +0.077 A 
ATOM     35 CL   UNL     1      -8.177  -2.396 -11.809  0.00  0.00    -0.084 Cl
BRANCH  34  36
ATOM     36  C   UNL     1      -5.104  -0.276  -8.184  0.00  0.00    +0.419 C 
ATOM     37  F   UNL     1      -5.149   0.736  -9.148  0.00  0.00    -0.166 F 
ATOM     38  F   UNL     1      -5.611   0.210  -6.974  0.00  0.00    -0.166 F 
ATOM     39  F   UNL     1      -3.779  -0.689  -8.002  0.00  0.00    -0.166 F 
ENDBRANCH  34  36
ENDBRANCH  27  29
ENDBRANCH  24  25
ENDBRANCH  23  24
ENDBRANCH   4  23
TORSDOF 8
