REMARK  Name = ZINC36503306
REMARK  10 active torsions:
REMARK  status: ('A' for Active; 'I' for Inactive)
REMARK    1  A    between atoms: C_3  and  C_6
REMARK    2  A    between atoms: C_6  and  N_7
REMARK    3  A    between atoms: N_7  and  C_8
REMARK    4  A    between atoms: C_8  and  C_10
REMARK    5  A    between atoms: C_8  and  C_19
REMARK    6  A    between atoms: C_11  and  O_18
REMARK    7  A    between atoms: C_13  and  O_17
REMARK    8  A    between atoms: C_15  and  O_16
REMARK    9  A    between atoms: N_21  and  C_22
REMARK   10  A    between atoms: C_28  and  C_30
REMARK                            x       y       z     vdW  Elec       q    Type
REMARK                         _______ _______ _______ _____ _____    ______ ____
ROOT
ATOM      1  C   UNL     1       4.160  -0.651   1.982  0.00  0.00    +0.200 C 
ENDROOT
BRANCH   1   2
ATOM      2  C   UNL     1       5.354   0.142   2.446  0.00  0.00    +0.065 A 
ATOM      3  C   UNL     1       6.141  -0.332   3.484  0.00  0.00    +0.129 A 
ATOM      4  C   UNL     1       7.240   0.398   3.911  0.00  0.00    +0.091 A 
ATOM      5  C   UNL     1       7.553   1.603   3.299  0.00  0.00    +0.124 A 
ATOM      6  C   UNL     1       6.766   2.077   2.260  0.00  0.00    +0.091 A 
ATOM      7  C   UNL     1       5.670   1.344   1.830  0.00  0.00    +0.129 A 
BRANCH   7   8
ATOM      8  O   UNL     1       4.902   1.807   0.808  0.00  0.00    -0.506 OA
ATOM      9  H   UNL     1       4.232   2.449   1.079  0.00  0.00    +0.292 HD
ENDBRANCH   7   8
BRANCH   5  10
ATOM     10  O   UNL     1       8.629   2.318   3.718  0.00  0.00    -0.507 OA
ATOM     11  H   UNL     1       9.451   2.098   3.258  0.00  0.00    +0.292 HD
ENDBRANCH   5  10
BRANCH   3  12
ATOM     12  O   UNL     1       5.835  -1.512   4.084  0.00  0.00    -0.506 OA
ATOM     13  H   UNL     1       6.316  -2.272   3.727  0.00  0.00    +0.292 HD
ENDBRANCH   3  12
ENDBRANCH   1   2
BRANCH   1  14
ATOM     14  C   UNL     1       3.400  -1.161   3.179  0.00  0.00    +0.239 C 
ATOM     15  O   UNL     1       2.745  -0.395   3.853  0.00  0.00    -0.273 OA
ATOM     16  N   UNL     1       3.449  -2.469   3.501  0.00  0.00    -0.311 N 
ATOM     17  H   UNL     1       4.050  -3.064   3.024  0.00  0.00    +0.149 HD
BRANCH  16  18
ATOM     18  C   UNL     1       2.594  -2.993   4.569  0.00  0.00    +0.073 C 
ATOM     19  C   UNL     1       3.282  -2.786   5.920  0.00  0.00    +0.022 C 
ATOM     20  C   UNL     1       2.390  -3.333   7.036  0.00  0.00    +0.002 C 
ATOM     21  C   UNL     1       2.149  -4.827   6.810  0.00  0.00    +0.000 C 
ATOM     22  C   UNL     1       1.461  -5.034   5.459  0.00  0.00    +0.002 C 
ATOM     23  C   UNL     1       2.353  -4.487   4.343  0.00  0.00    +0.022 C 
ENDBRANCH  16  18
ENDBRANCH   1  14
BRANCH   1  24
ATOM     24  N   UNL     1       3.286   0.207   1.178  0.00  0.00    -0.277 N 
ATOM     25  C   UNL     1       2.721   1.299   1.730  0.00  0.00    +0.231 C 
ATOM     26  O   UNL     1       3.085   1.684   2.821  0.00  0.00    -0.274 OA
BRANCH  25  27
ATOM     27  C   UNL     1       1.638   2.043   0.991  0.00  0.00    +0.204 C 
ATOM     28 CL   UNL     1       1.089   3.446   1.981  0.00  0.00    -0.116 Cl
ENDBRANCH  25  27
BRANCH  24  29
ATOM     29  C   UNL     1       3.026  -0.122  -0.226  0.00  0.00    +0.183 C 
BRANCH  29  32
ATOM     30  C   UNL     1      -0.266  -1.759  -0.495  0.00  0.00    +0.041 A 
ATOM     31  C   UNL     1       0.541  -0.599  -0.451  0.00  0.00    +0.046 A 
ATOM     32  C   UNL     1       1.813  -1.013  -0.316  0.00  0.00    +0.122 A 
ATOM     33  O   UNL     1       1.821  -2.356  -0.276  0.00  0.00    -0.466 OA
ATOM     34  C   UNL     1       0.563  -2.813  -0.384  0.00  0.00    +0.195 A 
ENDBRANCH  29  32
ENDBRANCH  24  29
ENDBRANCH   1  24
TORSDOF 10
