REMARK  Name = ZINC05746653
REMARK  7 active torsions:
REMARK  status: ('A' for Active; 'I' for Inactive)
REMARK    1  A    between atoms: C_1  and  C_2
REMARK    2  A    between atoms: C_5  and  C_8
REMARK    3  A    between atoms: C_10  and  C_24
REMARK    4  A    between atoms: C_12  and  C_16
REMARK    5  A    between atoms: C_15  and  N_54
REMARK    6  A    between atoms: C_16  and  C_18
REMARK    7  A    between atoms: C_24  and  C_26
REMARK                            x       y       z     vdW  Elec       q    Type
REMARK                         _______ _______ _______ _____ _____    ______ ____
ROOT
ATOM      1  C   UNL     1       6.683  -2.042   0.450  0.00  0.00    -0.027 C 
ATOM      2  C   UNL     1       6.540  -0.508   0.364  0.00  0.00    +0.060 C 
ATOM      3  C   UNL     1       6.942  -0.147  -1.081  0.00  0.00    +0.053 C 
ATOM      4  C   UNL     1       7.296  -1.494  -1.748  0.00  0.00    -0.066 C 
ATOM      5  C   UNL     1       7.540  -3.800  -1.002  0.00  0.00    -0.095 C 
ATOM      6  N   UNL     1       7.637  -2.358  -0.611  0.00  0.00    +0.383 N 
ATOM      7  H   UNL     1       8.593  -2.158  -0.293  0.00  0.00    -0.081 HD
ENDROOT
BRANCH   1  12
ATOM      8  C   UNL     1       8.727  -3.591   5.628  0.00  0.00    +0.044 C 
ATOM      9  C   UNL     1       8.194  -3.188   4.278  0.00  0.00    -0.050 A 
ATOM     10  C   UNL     1       6.832  -3.191   4.043  0.00  0.00    +0.003 A 
ATOM     11  C   UNL     1       6.343  -2.821   2.804  0.00  0.00    +0.002 A 
ATOM     12  C   UNL     1       7.216  -2.446   1.800  0.00  0.00    -0.060 A 
ATOM     13  C   UNL     1       8.579  -2.447   2.033  0.00  0.00    +0.002 A 
ATOM     14  C   UNL     1       9.067  -2.813   3.274  0.00  0.00    +0.003 A 
ENDBRANCH   1  12
BRANCH   3  15
ATOM     15  C   UNL     1       5.788   0.505  -1.798  0.00  0.00    +0.165 C 
ATOM     16  O   UNL     1       4.652   0.305  -1.425  0.00  0.00    -0.292 OA
BRANCH  15  17
ATOM     17  C   UNL     1       6.041   1.384  -2.951  0.00  0.00    +0.018 A 
ATOM     18  C   UNL     1       4.973   1.992  -3.619  0.00  0.00    +0.011 A 
ATOM     19  C   UNL     1       5.218   2.815  -4.698  0.00  0.00    +0.001 A 
ATOM     20  C   UNL     1       6.516   3.041  -5.119  0.00  0.00    +0.000 A 
ATOM     21  C   UNL     1       7.579   2.443  -4.463  0.00  0.00    +0.001 A 
ATOM     22  C   UNL     1       7.350   1.617  -3.383  0.00  0.00    +0.011 A 
ENDBRANCH  15  17
ENDBRANCH   3  15
BRANCH   2  23
ATOM     23  C   UNL     1       7.466   0.160   1.347  0.00  0.00    +0.166 C 
ATOM     24  O   UNL     1       8.619   0.380   1.041  0.00  0.00    -0.292 OA
BRANCH  23  25
ATOM     25  C   UNL     1       6.973   0.545   2.679  0.00  0.00    +0.018 A 
ATOM     26  C   UNL     1       5.643   0.298   3.034  0.00  0.00    +0.011 A 
ATOM     27  C   UNL     1       5.189   0.656   4.286  0.00  0.00    +0.001 A 
ATOM     28  C   UNL     1       6.043   1.270   5.186  0.00  0.00    +0.000 A 
ATOM     29  C   UNL     1       7.359   1.523   4.840  0.00  0.00    +0.001 A 
ATOM     30  C   UNL     1       7.829   1.165   3.594  0.00  0.00    +0.011 A 
ENDBRANCH  23  25
ENDBRANCH   2  23
TORSDOF 5
