REMARK  Name = ZINC11164072
REMARK  7 active torsions:
REMARK  status: ('A' for Active; 'I' for Inactive)
REMARK    1  A    between atoms: C_1  and  C_2
REMARK    2  A    between atoms: C_4  and  C_22
REMARK    3  A    between atoms: C_6  and  N_8
REMARK    4  A    between atoms: C_9  and  S_11
REMARK    5  A    between atoms: S_11  and  C_12
REMARK    6  A    between atoms: C_12  and  C_13
REMARK    7  A    between atoms: C_16  and  C_19
REMARK                            x       y       z     vdW  Elec       q    Type
REMARK                         _______ _______ _______ _____ _____    ______ ____
ROOT
ATOM      1  N   UNL     1      -0.039   5.212   0.001  0.00  0.00    -0.227 NA
ATOM      2  C   UNL     1      -0.817   5.866  -0.832  0.00  0.00    +0.152 C 
ATOM      3  N   UNL     1      -1.658   5.176  -1.670  0.00  0.00    -0.338 N 
ATOM      4  H   UNL     1      -1.754   4.215  -1.578  0.00  0.00    +0.144 HD
ATOM      5  H   UNL     1      -2.156   5.650  -2.355  0.00  0.00    +0.144 HD
ENDROOT
BRANCH   1  11
ATOM      6  C   UNL     1      -0.419   0.900   2.289  0.00  0.00    +0.044 C 
ATOM      7  C   UNL     1      -0.159   1.715   1.048  0.00  0.00    -0.048 A 
ATOM      8  C   UNL     1       0.140   1.080  -0.144  0.00  0.00    +0.006 A 
ATOM      9  C   UNL     1       0.385   1.820  -1.287  0.00  0.00    -0.048 A 
ATOM     10  C   UNL     1       0.322   3.198  -1.247  0.00  0.00    +0.031 A 
ATOM     11  C   UNL     1       0.021   3.845  -0.047  0.00  0.00    +0.067 A 
ATOM     12  C   UNL     1      -0.220   3.092   1.104  0.00  0.00    +0.031 A 
ATOM     13  C   UNL     1       0.715   1.120  -2.580  0.00  0.00    +0.044 C 
ENDBRANCH   1  11
BRANCH   2  14
ATOM     14  S   UNL     1      -0.782   7.627  -0.872  0.00  0.00    -0.086 S 
BRANCH  14  15
ATOM     15  C   UNL     1       0.464   7.946   0.401  0.00  0.00    +0.112 C 
BRANCH  15  16
ATOM     16  C   UNL     1       0.666   9.432   0.545  0.00  0.00    -0.037 A 
ATOM     17  C   UNL     1       1.624  10.075  -0.219  0.00  0.00    +0.005 A 
ATOM     18  C   UNL     1       1.811  11.436  -0.096  0.00  0.00    +0.013 A 
ATOM     19  C   UNL     1       1.038  12.164   0.810  0.00  0.00    +0.037 A 
ATOM     20  C   UNL     1       0.076  11.509   1.582  0.00  0.00    +0.013 A 
ATOM     21  C   UNL     1      -0.104  10.148   1.445  0.00  0.00    +0.005 A 
BRANCH  19  22
ATOM     22  C   UNL     1       1.236  13.622   0.952  0.00  0.00    +0.242 C 
ATOM     23  O   UNL     1       0.561  14.254   1.741  0.00  0.00    -0.270 OA
ATOM     24  N   UNL     1       2.165  14.251   0.205  0.00  0.00    -0.325 N 
ATOM     25  H   UNL     1       2.704  13.748  -0.425  0.00  0.00    +0.145 HD
ATOM     26  H   UNL     1       2.295  15.208   0.298  0.00  0.00    +0.145 HD
ENDBRANCH  19  22
ENDBRANCH  15  16
ENDBRANCH  14  15
ENDBRANCH   2  14
TORSDOF 5
