REMARK  Name = ZINC45650009
REMARK  8 active torsions:
REMARK  status: ('A' for Active; 'I' for Inactive)
REMARK    1  A    between atoms: C_1  and  C_2
REMARK    2  A    between atoms: C_3  and  C_27
REMARK    3  A    between atoms: N_4  and  C_20
REMARK    4  A    between atoms: C_5  and  S_7
REMARK    5  A    between atoms: S_7  and  C_8
REMARK    6  A    between atoms: C_8  and  C_9
REMARK    7  A    between atoms: C_12  and  C_14
REMARK    8  A    between atoms: C_20  and  C_21
REMARK                            x       y       z     vdW  Elec       q    Type
REMARK                         _______ _______ _______ _____ _____    ______ ____
ROOT
ATOM      1  C   UNL     1      -0.018   1.503   0.010  0.00  0.00    +0.065 C 
ATOM      2  C   UNL     1       0.002  -0.004   0.002  0.00  0.00    +0.034 A 
ATOM      3  C   UNL     1       0.008  -0.785  -1.092  0.00  0.00    +0.037 A 
ATOM      4  N   UNL     1       0.028  -2.090  -0.654  0.00  0.00    -0.322 N 
ATOM      5  C   UNL     1       0.034  -2.053   0.707  0.00  0.00    +0.148 A 
ATOM      6  N   UNL     1       0.024  -0.796   1.087  0.00  0.00    -0.338 N 
ATOM      7  C   UNL     1      -0.006  -0.320  -2.525  0.00  0.00    +0.065 C 
ATOM      8  H   UNL     1       0.028  -0.488   2.007  0.00  0.00    +0.168 HD
ENDROOT
BRANCH   5   9
ATOM      9  S   UNL     1       0.059  -3.453   1.776  0.00  0.00    -0.083 S 
BRANCH   9  10
ATOM     10  C   UNL     1       0.057  -2.734   3.441  0.00  0.00    +0.133 C 
BRANCH  10  11
ATOM     11  C   UNL     1       0.078  -3.839   4.466  0.00  0.00    +0.059 A 
ATOM     12  C   UNL     1      -1.089  -4.358   4.931  0.00  0.00    +0.071 A 
ATOM     13  S   UNL     1      -0.472  -5.585   6.076  0.00  0.00    -0.075 S 
ATOM     14  C   UNL     1       1.269  -5.272   5.812  0.00  0.00    +0.109 A 
ATOM     15  N   UNL     1       1.222  -4.305   4.907  0.00  0.00    -0.243 NA
BRANCH  14  16
ATOM     16  C   UNL     1       2.444  -5.922   6.431  0.00  0.00    +0.007 A 
ATOM     17  C   UNL     1       3.733  -5.518   6.083  0.00  0.00    +0.010 A 
ATOM     18  C   UNL     1       4.825  -6.128   6.665  0.00  0.00    +0.001 A 
ATOM     19  C   UNL     1       4.644  -7.140   7.591  0.00  0.00    +0.000 A 
ATOM     20  C   UNL     1       3.368  -7.546   7.941  0.00  0.00    +0.001 A 
ATOM     21  C   UNL     1       2.268  -6.939   7.371  0.00  0.00    +0.010 A 
ENDBRANCH  14  16
ENDBRANCH  10  11
ENDBRANCH   9  10
ENDBRANCH   5   9
BRANCH   4  22
ATOM     22  C   UNL     1       0.041  -3.291  -1.493  0.00  0.00    +0.155 C 
BRANCH  22  23
ATOM     23  C   UNL     1       1.487  -3.688  -1.792  0.00  0.00    +0.138 C 
ATOM     24  C   UNL     1       1.510  -4.880  -2.774  0.00  0.00    +0.035 C 
ATOM     25  C   UNL     1       2.678  -5.741  -2.220  0.00  0.00    +0.031 C 
ATOM     26  C   UNL     1       2.537  -5.483  -0.698  0.00  0.00    +0.160 C 
ATOM     27  O   UNL     1       2.136  -4.107  -0.586  0.00  0.00    -0.375 OA
ENDBRANCH  22  23
ENDBRANCH   4  22
TORSDOF 6
