REMARK  Name = ZINC08584071
REMARK  13 active torsions:
REMARK  status: ('A' for Active; 'I' for Inactive)
REMARK    1  A    between atoms: C_1  and  C_2
REMARK    2  A    between atoms: C_2  and  C_3
REMARK    3  A    between atoms: C_2  and  C_4
REMARK    4  A    between atoms: C_4  and  C_6
REMARK    5  A    between atoms: C_4  and  N_70
REMARK    6  A    between atoms: N_10  and  C_11
REMARK    7  A    between atoms: C_17  and  C_18
REMARK    8  A    between atoms: C_17  and  N_70
REMARK    9  A    between atoms: C_23  and  C_24
REMARK   10  A    between atoms: C_23  and  N_70
REMARK   11  A    between atoms: C_29  and  O_35
REMARK   12  A    between atoms: C_33  and  O_34
REMARK   13  A    between atoms: O_35  and  C_36
REMARK                            x       y       z     vdW  Elec       q    Type
REMARK                         _______ _______ _______ _____ _____    ______ ____
ROOT
ATOM      1  N   UNL     1       1.128   3.169   1.416  0.00  0.00    +0.394 N 
ATOM      2  H   UNL     1       1.442   2.250   1.747  0.00  0.00    -0.080 HD
ENDROOT
BRANCH   1   3
ATOM      3  C   UNL     1       0.085   3.679   2.331  0.00  0.00    +0.006 C 
BRANCH   3   4
ATOM      4  C   UNL     1       0.423   3.243   3.734  0.00  0.00    +0.139 A 
ATOM      5  N   UNL     1       1.584   3.356   4.331  0.00  0.00    -0.115 NA
ATOM      6  N   UNL     1       1.470   2.870   5.519  0.00  0.00    -0.023 NA
ATOM      7  N   UNL     1       0.266   2.450   5.695  0.00  0.00    -0.044 NA
ATOM      8  N   UNL     1      -0.412   2.667   4.619  0.00  0.00    -0.228 N 
BRANCH   8   9
ATOM      9  C   UNL     1      -1.824   2.344   4.401  0.00  0.00    +0.111 C 
ATOM     10  C   UNL     1      -2.683   3.093   5.422  0.00  0.00    +0.027 C 
ATOM     11  C   UNL     1      -4.157   2.756   5.194  0.00  0.00    +0.002 C 
ATOM     12  C   UNL     1      -4.367   1.249   5.359  0.00  0.00    +0.000 C 
ATOM     13  C   UNL     1      -3.509   0.500   4.338  0.00  0.00    +0.002 C 
ATOM     14  C   UNL     1      -2.034   0.837   4.566  0.00  0.00    +0.027 C 
ENDBRANCH   8   9
ENDBRANCH   3   4
BRANCH   3  16
ATOM     15  C   UNL     1      -0.386   5.646   0.866  0.00  0.00    +0.006 C 
ATOM     16  C   UNL     1       0.023   5.206   2.273  0.00  0.00    -0.024 C 
ATOM     17  C   UNL     1      -1.006   5.714   3.285  0.00  0.00    +0.006 C 
ENDBRANCH   3  16
ENDBRANCH   1   3
BRANCH   1  18
ATOM     18  C   UNL     1       0.576   3.026   0.052  0.00  0.00    -0.002 C 
BRANCH  18  19
ATOM     19  C   UNL     1      -0.336   1.826   0.023  0.00  0.00    +0.089 A 
ATOM     20  C   UNL     1      -1.666   1.845   0.217  0.00  0.00    +0.042 A 
ATOM     21  C   UNL     1      -2.116   0.509   0.102  0.00  0.00    +0.041 A 
ATOM     22  C   UNL     1      -1.033  -0.246  -0.156  0.00  0.00    +0.195 A 
ATOM     23  O   UNL     1       0.043   0.557  -0.203  0.00  0.00    -0.470 OA
ENDBRANCH  18  19
ENDBRANCH   1  18
BRANCH   1  24
ATOM     24  C   UNL     1       2.281   4.094   1.399  0.00  0.00    -0.036 C 
BRANCH  24  25
ATOM     25  C   UNL     1       3.451   3.397   0.753  0.00  0.00    -0.002 A 
ATOM     26  C   UNL     1       3.833   3.736  -0.512  0.00  0.00    +0.017 A 
ATOM     27  C   UNL     1       4.931   3.062  -1.080  0.00  0.00    +0.001 A 
ATOM     28  C   UNL     1       5.376   3.363  -2.378  0.00  0.00    +0.013 A 
ATOM     29  C   UNL     1       6.440   2.696  -2.901  0.00  0.00    +0.046 A 
ATOM     30  C   UNL     1       7.100   1.709  -2.161  0.00  0.00    +0.122 A 
ATOM     31  C   UNL     1       6.689   1.391  -0.887  0.00  0.00    +0.074 A 
ATOM     32  C   UNL     1       5.594   2.065  -0.323  0.00  0.00    +0.078 A 
ATOM     33  N   UNL     1       5.172   1.776   0.914  0.00  0.00    -0.213 NA
ATOM     34  C   UNL     1       4.150   2.407   1.451  0.00  0.00    +0.214 A 
BRANCH  34  35
ATOM     35  O   UNL     1       3.761   2.085   2.709  0.00  0.00    -0.492 OA
ATOM     36  H   UNL     1       3.103   1.377   2.749  0.00  0.00    +0.294 HD
ENDBRANCH  34  35
BRANCH  30  37
ATOM     37  O   UNL     1       8.159   1.058  -2.707  0.00  0.00    -0.495 OA
ATOM     38  C   UNL     1       8.539   1.432  -4.033  0.00  0.00    +0.277 C 
ENDBRANCH  30  37
ENDBRANCH  24  25
ENDBRANCH   1  24
TORSDOF 10
