REMARK  Name = ZINC63053892
REMARK  6 active torsions:
REMARK  status: ('A' for Active; 'I' for Inactive)
REMARK    1  A    between atoms: C_1  and  C_2
REMARK    2  A    between atoms: C_6  and  C_10
REMARK    3  A    between atoms: N_12  and  C_13
REMARK    4  A    between atoms: N_12  and  C_14
REMARK    5  A    between atoms: C_14  and  C_15
REMARK    6  A    between atoms: C_15  and  N_16
REMARK                            x       y       z     vdW  Elec       q    Type
REMARK                         _______ _______ _______ _____ _____    ______ ____
ROOT
ATOM      1  C   UNL     1      -0.645  -4.011   1.161  0.00  0.00    +0.230 C 
ATOM      2  O   UNL     1      -0.835  -4.597   0.116  0.00  0.00    -0.274 OA
ATOM      3  N   UNL     1      -0.402  -4.707   2.289  0.00  0.00    -0.305 N 
ATOM      4  C   UNL     1      -0.172  -3.999   3.551  0.00  0.00    +0.132 C 
ENDROOT
BRANCH   1   9
ATOM      5  C   UNL     1      -0.019   1.526   0.010  0.00  0.00    -0.012 C 
ATOM      6  C   UNL     1       0.002  -0.004   0.002  0.00  0.00    -0.061 C 
ATOM      7  C   UNL     1      -1.434  -0.534   0.013  0.00  0.00    +0.065 C 
ATOM      8  N   UNL     1      -1.411  -2.003   0.024  0.00  0.00    -0.309 NA
ATOM      9  C   UNL     1      -0.681  -2.505   1.197  0.00  0.00    +0.123 C 
ATOM     10  C   UNL     1       0.749  -1.959   1.177  0.00  0.00    -0.054 C 
ATOM     11  N   UNL     1       0.713  -0.491   1.192  0.00  0.00    +0.383 N 
ATOM     12  H   UNL     1      -2.346  -2.380  -0.008  0.00  0.00    +0.123 HD
ATOM     13  H   UNL     1       1.655  -0.131   1.191  0.00  0.00    -0.085 HD
ATOM     14  H   UNL     1       0.234  -0.175   2.022  0.00  0.00    -0.085 HD
ENDBRANCH   1   9
BRANCH   3  15
ATOM     15  C   UNL     1      -0.367  -6.171   2.254  0.00  0.00    +0.089 C 
BRANCH  15  16
ATOM     16  C   UNL     1       1.060  -6.640   1.962  0.00  0.00    -0.060 C 
BRANCH  16  17
ATOM     17  N   UNL     1       1.095  -8.108   1.926  0.00  0.00    +0.381 N 
ATOM     18  C   UNL     1       0.356  -8.610   0.739  0.00  0.00    -0.079 C 
ATOM     19  C   UNL     1       0.941 -10.029   0.531  0.00  0.00    -0.020 C 
ATOM     20  C   UNL     1       2.435  -9.842   0.880  0.00  0.00    -0.020 C 
ATOM     21  C   UNL     1       2.487  -8.582   1.764  0.00  0.00    -0.079 C 
ATOM     22  H   UNL     1       0.695  -8.487   2.772  0.00  0.00    -0.082 HD
ENDBRANCH  16  17
ENDBRANCH  15  16
ENDBRANCH   3  15
TORSDOF 4
