REMARK  Name = ZINC39557138
REMARK  7 active torsions:
REMARK  status: ('A' for Active; 'I' for Inactive)
REMARK    1  A    between atoms: C_1  and  C_2
REMARK    2  A    between atoms: C_4  and  C_28
REMARK    3  A    between atoms: C_11  and  C_13
REMARK    4  A    between atoms: N_15  and  C_16
REMARK    5  A    between atoms: C_16  and  C_17
REMARK    6  A    between atoms: C_17  and  C_18
REMARK    7  A    between atoms: C_21  and  O_27
REMARK                            x       y       z     vdW  Elec       q    Type
REMARK                         _______ _______ _______ _____ _____    ______ ____
ROOT
ATOM      1  C   UNL     1       0.169  -4.064   2.849  0.00  0.00    +0.245 C 
ATOM      2  O   UNL     1      -0.394  -4.454   3.857  0.00  0.00    -0.270 OA
ATOM      3  N   UNL     1       0.910  -4.920   2.118  0.00  0.00    -0.311 N 
ATOM      4  H   UNL     1       1.358  -4.609   1.315  0.00  0.00    +0.149 HD
ENDROOT
BRANCH   1  14
ATOM      5  C   UNL     1      -0.018   1.503   0.010  0.00  0.00    +0.062 C 
ATOM      6  C   UNL     1       0.002  -0.004   0.002  0.00  0.00    +0.026 C 
ATOM      7  C   UNL     1       0.007  -0.731  -1.149  0.00  0.00    +0.042 C 
ATOM      8  C   UNL     1       0.038  -2.141  -1.081  0.00  0.00    +0.037 C 
ATOM      9  N   UNL     1       0.324  -2.796   0.004  0.00  0.00    -0.259 NA
ATOM     10  C   UNL     1       0.670  -2.074   1.231  0.00  0.00    +0.246 C 
ATOM     11  N   UNL     1       0.023  -0.749   1.152  0.00  0.00    -0.229 N 
ATOM     12  N   UNL     1      -0.563  -0.538   2.393  0.00  0.00    -0.269 N 
ATOM     13  C   UNL     1      -0.658  -1.723   3.064  0.00  0.00    +0.100 C 
ATOM     14  C   UNL     1       0.043  -2.715   2.446  0.00  0.00    +0.073 C 
ATOM     15  H   UNL     1      -0.860   0.322   2.732  0.00  0.00    +0.170 HD
ATOM     16  C   UNL     1      -0.276  -2.925  -2.329  0.00  0.00    +0.065 C 
ENDBRANCH   1  14
BRANCH   3  17
ATOM     17  C   UNL     1       1.041  -6.318   2.536  0.00  0.00    +0.109 C 
BRANCH  17  18
ATOM     18  C   UNL     1       1.929  -7.067   1.540  0.00  0.00    +0.052 C 
BRANCH  18  19
ATOM     19  C   UNL     1       2.063  -8.505   1.970  0.00  0.00    -0.040 C 
ATOM     20  C   UNL     1       1.325  -9.554   1.540  0.00  0.00    +0.002 A 
ATOM     21  C   UNL     1       0.220  -9.668   0.582  0.00  0.00    +0.055 A 
ATOM     22  C   UNL     1      -0.338 -10.880   0.349  0.00  0.00    +0.118 A 
ATOM     23  C   UNL     1       0.105 -12.047   0.995  0.00  0.00    +0.047 A 
ATOM     24  C   UNL     1       1.115 -12.043   1.891  0.00  0.00    +0.029 A 
ATOM     25  C   UNL     1       1.791 -10.784   2.220  0.00  0.00    +0.043 A 
ATOM     26  N   UNL     1       2.777 -10.507   3.037  0.00  0.00    -0.380 N 
ATOM     27  C   UNL     1       3.054  -9.068   2.963  0.00  0.00    +0.144 C 
ATOM     28  H   UNL     1       3.248 -11.147   3.594  0.00  0.00    +0.160 HD
BRANCH  22  29
ATOM     29  O   UNL     1      -1.362 -10.970  -0.541  0.00  0.00    -0.507 OA
ATOM     30  H   UNL     1      -1.079 -11.137  -1.450  0.00  0.00    +0.292 HD
ENDBRANCH  22  29
ENDBRANCH  18  19
ENDBRANCH  17  18
ENDBRANCH   3  17
TORSDOF 5
