REMARK  Name = ZINC43631754
REMARK  4 active torsions:
REMARK  status: ('A' for Active; 'I' for Inactive)
REMARK    1  A    between atoms: C_3  and  C_9
REMARK    2  A    between atoms: C_10  and  C_11
REMARK    3  A    between atoms: N_23  and  C_25
REMARK    4  A    between atoms: C_25  and  C_26
REMARK                            x       y       z     vdW  Elec       q    Type
REMARK                         _______ _______ _______ _____ _____    ______ ____
ROOT
ATOM      1  C   UNL     1       4.891   4.261  -0.023  0.00  0.00    +0.240 C 
ATOM      2  O   UNL     1       5.951   3.670   0.062  0.00  0.00    -0.271 OA
ATOM      3  N   UNL     1       4.874   5.605  -0.118  0.00  0.00    -0.295 N 
ATOM      4  C   UNL     1       3.606   6.353  -0.098  0.00  0.00    +0.108 C 
ATOM      5  C   UNL     1       3.540   7.270  -1.322  0.00  0.00    +0.019 C 
ATOM      6  C   UNL     1       4.797   8.144  -1.389  0.00  0.00    +0.005 C 
ATOM      7  C   UNL     1       6.023   7.241  -1.503  0.00  0.00    -0.007 C 
ATOM      8  C   UNL     1       6.118   6.371  -0.238  0.00  0.00    +0.076 C 
ATOM      9  C   UNL     1       7.327   5.445  -0.371  0.00  0.00    +0.004 C 
ATOM     10  C   UNL     1       8.582   6.304  -0.558  0.00  0.00    -0.077 C 
ATOM     11  N   UNL     1       8.451   7.139  -1.757  0.00  0.00    +0.383 N 
ATOM     12  C   UNL     1       7.307   8.057  -1.624  0.00  0.00    -0.073 C 
ATOM     13  H   UNL     1       8.309   6.546  -2.561  0.00  0.00    -0.081 HD
ENDROOT
BRANCH   1  15
ATOM     14  C   UNL     1       3.652   2.163  -0.030  0.00  0.00    +0.016 C 
ATOM     15  C   UNL     1       3.633   3.512  -0.022  0.00  0.00    +0.068 C 
BRANCH  14  18
ATOM     16  C   UNL     1      -0.016   1.378  -0.020  0.00  0.00    +0.004 A 
ATOM     17  C   UNL     1       1.165   2.089  -0.020  0.00  0.00    +0.011 A 
ATOM     18  C   UNL     1       2.388   1.410  -0.030  0.00  0.00    +0.013 A 
ATOM     19  C   UNL     1       2.403   0.010  -0.038  0.00  0.00    +0.165 A 
ATOM     20  C   UNL     1       1.208  -0.689  -0.038  0.00  0.00    +0.159 A 
ATOM     21  C   UNL     1       0.004  -0.006  -0.029  0.00  0.00    +0.041 A 
ATOM     22  F   UNL     1       1.218  -2.040  -0.047  0.00  0.00    -0.202 F 
ATOM     23  F   UNL     1       3.579  -0.656  -0.048  0.00  0.00    -0.202 F 
ENDBRANCH  14  18
ENDBRANCH   1  15
BRANCH  11  24
ATOM     24  C   UNL     1       9.683   7.918  -1.942  0.00  0.00    -0.042 C 
BRANCH  24  25
ATOM     25  C   UNL     1      10.831   6.983  -2.226  0.00  0.00    -0.057 A 
ATOM     26  C   UNL     1      11.586   6.465  -1.192  0.00  0.00    +0.009 A 
ATOM     27  C   UNL     1      12.612   5.627  -1.482  0.00  0.00    +0.045 A 
ATOM     28  S   UNL     1      12.531   5.549  -3.264  0.00  0.00    -0.105 S 
ATOM     29  C   UNL     1      11.133   6.634  -3.501  0.00  0.00    +0.047 A 
ENDBRANCH  24  25
ENDBRANCH  11  24
TORSDOF 4
