REMARK  Name = ZINC39669005
REMARK  10 active torsions:
REMARK  status: ('A' for Active; 'I' for Inactive)
REMARK    1  A    between atoms: C_1  and  O_2
REMARK    2  A    between atoms: O_2  and  C_3
REMARK    3  A    between atoms: C_5  and  C_13
REMARK    4  A    between atoms: C_7  and  O_11
REMARK    5  A    between atoms: C_8  and  O_9
REMARK    6  A    between atoms: O_9  and  C_10
REMARK    7  A    between atoms: O_11  and  C_12
REMARK    8  A    between atoms: C_17  and  C_26
REMARK    9  A    between atoms: N_28  and  C_29
REMARK   10  A    between atoms: C_29  and  C_30
REMARK                            x       y       z     vdW  Elec       q    Type
REMARK                         _______ _______ _______ _____ _____    ______ ____
ROOT
ATOM      1  C   UNL     1       2.395   0.361  -4.222  0.00  0.00    +0.247 C 
ATOM      2  O   UNL     1       2.258   1.569  -4.219  0.00  0.00    -0.270 OA
ATOM      3  N   UNL     1       3.081  -0.237  -5.216  0.00  0.00    -0.296 N 
ATOM      4  C   UNL     1       3.243  -1.689  -5.462  0.00  0.00    +0.121 C 
ATOM      5  C   UNL     1       3.154  -1.838  -6.997  0.00  0.00    +0.100 C 
ATOM      6  C   UNL     1       3.551  -0.458  -7.548  0.00  0.00    -0.004 C 
ATOM      7  C   UNL     1       3.838   0.410  -6.315  0.00  0.00    +0.115 C 
ATOM      8  C   UNL     1       4.801  -0.575  -8.416  0.00  0.00    -0.010 C 
ATOM      9  C   UNL     1       5.142   0.799  -9.000  0.00  0.00    -0.082 C 
ATOM     10  N   UNL     1       4.011   1.288  -9.798  0.00  0.00    +0.379 N 
ATOM     11  C   UNL     1       2.839   1.486  -8.938  0.00  0.00    -0.082 C 
ATOM     12  C   UNL     1       2.400   0.141  -8.352  0.00  0.00    -0.010 C 
ATOM     13  H   UNL     1       4.261   2.164 -10.231  0.00  0.00    -0.086 HD
ATOM     14  H   UNL     1       3.791   0.613 -10.515  0.00  0.00    -0.086 HD
ENDROOT
BRANCH   1  17
ATOM     15  C   UNL     1       1.802  -2.459  -1.811  0.00  0.00    +0.166 A 
ATOM     16  C   UNL     1       2.352  -1.700  -2.828  0.00  0.00    +0.062 A 
ATOM     17  C   UNL     1       1.810  -0.451  -3.137  0.00  0.00    +0.044 A 
ATOM     18  C   UNL     1       0.713   0.030  -2.418  0.00  0.00    +0.062 A 
ATOM     19  C   UNL     1       0.167  -0.732  -1.402  0.00  0.00    +0.166 A 
ATOM     20  C   UNL     1       0.705  -1.980  -1.099  0.00  0.00    +0.204 A 
BRANCH  15  22
ATOM     21  C   UNL     1       3.454  -4.104  -2.280  0.00  0.00    +0.277 C 
ATOM     22  O   UNL     1       2.329  -3.675  -1.509  0.00  0.00    -0.491 OA
ENDBRANCH  15  22
BRANCH  20  23
ATOM     23  O   UNL     1       0.164  -2.729  -0.103  0.00  0.00    -0.488 OA
ATOM     24  C   UNL     1       0.689  -2.539   1.212  0.00  0.00    +0.277 C 
ENDBRANCH  20  23
BRANCH  19  25
ATOM     25  O   UNL     1      -0.901  -0.265  -0.701  0.00  0.00    -0.491 OA
ATOM     26  C   UNL     1      -1.406   1.020  -1.068  0.00  0.00    +0.277 C 
ENDBRANCH  19  25
ENDBRANCH   1  17
BRANCH   5  27
ATOM     27  C   UNL     1       1.747  -2.186  -7.410  0.00  0.00    +0.218 C 
ATOM     28  O   UNL     1       0.805  -1.727  -6.799  0.00  0.00    -0.275 OA
ATOM     29  N   UNL     1       1.536  -3.007  -8.458  0.00  0.00    -0.312 N 
ATOM     30  H   UNL     1       2.289  -3.374  -8.946  0.00  0.00    +0.149 HD
BRANCH  29  31
ATOM     31  C   UNL     1       0.168  -3.345  -8.859  0.00  0.00    +0.140 C 
BRANCH  31  32
ATOM     32  C   UNL     1       0.208  -4.285 -10.065  0.00  0.00    +0.165 C 
ATOM     33  C   UNL     1      -1.195  -4.527 -10.556  0.00  0.00    -0.014 A 
ATOM     34  C   UNL     1      -2.063  -3.449 -10.650  0.00  0.00    +0.006 A 
ATOM     35  C   UNL     1      -3.355  -3.633 -11.101  0.00  0.00    +0.000 A 
ATOM     36  C   UNL     1      -3.787  -4.896 -11.460  0.00  0.00    +0.000 A 
ATOM     37  C   UNL     1      -2.924  -5.970 -11.366  0.00  0.00    +0.004 A 
ATOM     38  C   UNL     1      -1.628  -5.787 -10.910  0.00  0.00    -0.040 A 
ATOM     39  C   UNL     1      -0.719  -6.986 -10.808  0.00  0.00    +0.063 C 
ATOM     40  C   UNL     1       0.735  -6.524 -10.700  0.00  0.00    +0.165 C 
ATOM     41  O   UNL     1       0.814  -5.519  -9.683  0.00  0.00    -0.370 OA
ENDBRANCH  31  32
ENDBRANCH  29  31
ENDBRANCH   5  27
TORSDOF 7
