REMARK  Name = ZINC23619545
REMARK  3 active torsions:
REMARK  status: ('A' for Active; 'I' for Inactive)
REMARK    1  A    between atoms: C_4  and  C_7
REMARK    2  A    between atoms: C_7  and  C_8
REMARK    3  A    between atoms: C_8  and  C_9
REMARK                            x       y       z     vdW  Elec       q    Type
REMARK                         _______ _______ _______ _____ _____    ______ ____
ROOT
ATOM      1  C   UNL     1       4.796  -4.335   0.092  0.00  0.00    +0.068 A 
ATOM      2  C   UNL     1       4.521  -2.996  -0.167  0.00  0.00    +0.013 A 
ATOM      3  C   UNL     1       5.675  -2.403  -0.575  0.00  0.00    +0.042 A 
ATOM      4  N   UNL     1       6.641  -3.332  -0.570  0.00  0.00    -0.281 N 
ATOM      5  H   UNL     1       7.665  -3.062  -0.868  0.00  0.00    +0.189 HD
ATOM      6  N   UNL     1       6.069  -4.543  -0.149  0.00  0.00    -0.178 NA
ATOM      7  C   UNL     1       5.764  -0.944  -0.950  0.00  0.00    +0.074 C 
ATOM      8  C   UNL     1       4.335  -0.427  -1.171  0.00  0.00    +0.113 C 
ATOM      9  N   UNL     1       3.488  -0.817  -0.036  0.00  0.00    -0.309 N 
ATOM     10  C   UNL     1       3.209  -2.263  -0.042  0.00  0.00    +0.145 C 
ATOM     11  C   UNL     1       2.313  -0.086  -0.021  0.00  0.00    +0.154 A 
ATOM     12  C   UNL     1       2.342   1.320  -0.013  0.00  0.00    +0.148 A 
ATOM     13  C   UNL     1       1.119   2.011   0.002  0.00  0.00    +0.165 A 
ATOM     14  N   UNL     1       1.438   3.345   0.006  0.00  0.00    -0.329 N 
ATOM     15  H   UNL     1       0.640   4.101   0.018  0.00  0.00    +0.168 HD
ATOM     16  C   UNL     1       2.800   3.440  -0.006  0.00  0.00    +0.198 A 
ATOM     17  N   UNL     1       3.327   2.251  -0.018  0.00  0.00    -0.231 NA
ATOM     18  N   UNL     1      -0.016   1.319   0.009  0.00  0.00    -0.195 NA
ATOM     19  C   UNL     1       0.002  -0.004   0.002  0.00  0.00    +0.216 A 
ATOM     20  N   UNL     1       1.134  -0.697  -0.013  0.00  0.00    -0.197 NA
ATOM     21  N   UNL     1      -1.202  -0.689   0.009  0.00  0.00    -0.327 N 
ATOM     22  H   UNL     1      -1.208  -1.789   0.004  0.00  0.00    +0.145 HD
ATOM     23  H   UNL     1      -2.151  -0.134   0.021  0.00  0.00    +0.145 HD
ENDROOT
BRANCH   1  24
ATOM     24  C   UNL     1       3.805  -5.367   0.565  0.00  0.00    +0.062 C 
BRANCH  24  25
ATOM     25  C   UNL     1       3.158  -6.045  -0.644  0.00  0.00    +0.041 C 
BRANCH  25  29
ATOM     26  C   UNL     1       0.348  -8.969   0.698  0.00  0.00    +0.000 A 
ATOM     27  C   UNL     1      -0.061  -7.667   0.479  0.00  0.00    +0.000 A 
ATOM     28  C   UNL     1       0.848  -6.721   0.045  0.00  0.00    +0.003 A 
ATOM     29  C   UNL     1       2.166  -7.076  -0.170  0.00  0.00    -0.047 A 
ATOM     30  C   UNL     1       2.574  -8.380   0.043  0.00  0.00    +0.003 A 
ATOM     31  C   UNL     1       1.666  -9.325   0.483  0.00  0.00    +0.000 A 
ENDBRANCH  25  29
ENDBRANCH  24  25
ENDBRANCH   1  24
TORSDOF 3
