REMARK  Name = ZINC13978727
REMARK  8 active torsions:
REMARK  status: ('A' for Active; 'I' for Inactive)
REMARK    1  A    between atoms: C_3  and  O_26
REMARK    2  A    between atoms: C_6  and  C_7
REMARK    3  A    between atoms: N_9  and  N_10
REMARK    4  A    between atoms: N_10  and  C_11
REMARK    5  A    between atoms: C_11  and  N_13
REMARK    6  A    between atoms: C_14  and  C_16
REMARK    7  A    between atoms: C_16  and  O_17
REMARK    8  A    between atoms: O_17  and  C_18
REMARK                            x       y       z     vdW  Elec       q    Type
REMARK                         _______ _______ _______ _____ _____    ______ ____
ROOT
ATOM      1  C   UNL     1       5.162  -2.690  -0.064  0.00  0.00    +0.153 C 
ATOM      2  S   UNL     1       6.504  -1.627  -0.071  0.00  0.00    -0.017 S 
ENDROOT
BRANCH   1   3
ATOM      3  N   UNL     1       3.909  -2.193  -0.049  0.00  0.00    -0.264 N 
ATOM      4  C   UNL     1       3.713  -0.860  -0.040  0.00  0.00    +0.256 C 
ATOM      5  O   UNL     1       4.663  -0.107  -0.044  0.00  0.00    -0.272 OA
ATOM      6  H   UNL     1       3.149  -2.795  -0.045  0.00  0.00    +0.157 HD
BRANCH   4   7
ATOM      7  C   UNL     1       2.312  -0.304  -0.023  0.00  0.00    +0.325 C 
BRANCH   7   8
ATOM      8  O   UNL     1       2.366   1.124  -0.015  0.00  0.00    -0.481 OA
BRANCH   8   9
ATOM      9  C   UNL     1       1.179   1.786   0.000  0.00  0.00    +0.139 A 
ATOM     10  C   UNL     1      -0.013   1.076   0.008  0.00  0.00    +0.048 A 
ATOM     11  C   UNL     1      -1.218   1.751   0.017  0.00  0.00    +0.019 A 
ATOM     12  C   UNL     1      -1.238   3.134   0.030  0.00  0.00    +0.019 A 
ATOM     13  C   UNL     1      -0.051   3.845   0.023  0.00  0.00    +0.039 A 
ATOM     14  C   UNL     1       1.157   3.174   0.008  0.00  0.00    +0.084 A 
ATOM     15 CL   UNL     1       2.646   4.066  -0.002  0.00  0.00    -0.080 Cl
ATOM     16 BR   UNL     1      -2.890   4.054   0.050  0.00  0.00    -0.050 Br
ENDBRANCH   8   9
ENDBRANCH   7   8
ENDBRANCH   4   7
ENDBRANCH   1   3
BRANCH   1  17
ATOM     17  N   UNL     1       5.358  -4.023  -0.074  0.00  0.00    -0.245 N 
ATOM     18  H   UNL     1       6.260  -4.380  -0.085  0.00  0.00    +0.172 HD
BRANCH  17  21
ATOM     19  C   UNL     1       4.456  -6.226  -0.077  0.00  0.00    +0.260 C 
ATOM     20  O   UNL     1       5.586  -6.674  -0.091  0.00  0.00    -0.269 OA
ATOM     21  N   UNL     1       4.260  -4.893  -0.068  0.00  0.00    -0.231 N 
ATOM     22  H   UNL     1       3.358  -4.535  -0.057  0.00  0.00    +0.173 HD
BRANCH  19  28
ATOM     23  C   UNL     1       1.999  -6.630  -0.050  0.00  0.00    +0.016 A 
ATOM     24  C   UNL     1       0.922  -7.488  -0.049  0.00  0.00    +0.046 A 
ATOM     25  C   UNL     1       1.127  -8.863  -0.059  0.00  0.00    +0.117 A 
ATOM     26  C   UNL     1       2.418  -9.377  -0.075  0.00  0.00    +0.046 A 
ATOM     27  C   UNL     1       3.500  -8.525  -0.081  0.00  0.00    +0.016 A 
ATOM     28  C   UNL     1       3.299  -7.143  -0.071  0.00  0.00    +0.038 A 
BRANCH  25  29
ATOM     29  O   UNL     1       0.063  -9.705  -0.053  0.00  0.00    -0.507 OA
ATOM     30  H   UNL     1      -0.236  -9.954   0.832  0.00  0.00    +0.292 HD
ENDBRANCH  25  29
ENDBRANCH  19  28
ENDBRANCH  17  21
ENDBRANCH   1  17
TORSDOF 8
