REMARK  Name = ZINC22795292
REMARK  7 active torsions:
REMARK  status: ('A' for Active; 'I' for Inactive)
REMARK    1  A    between atoms: C_1  and  C_2
REMARK    2  A    between atoms: C_2  and  N_3
REMARK    3  A    between atoms: N_6  and  C_9
REMARK    4  A    between atoms: C_9  and  C_11
REMARK    5  A    between atoms: C_9  and  C_18
REMARK    6  A    between atoms: C_19  and  O_31
REMARK    7  A    between atoms: C_24  and  C_26
REMARK                            x       y       z     vdW  Elec       q    Type
REMARK                         _______ _______ _______ _____ _____    ______ ____
ROOT
ATOM      1  C   UNL     1       1.530  -2.584   4.772  0.00  0.00    +0.131 C 
ENDROOT
BRANCH   1   2
ATOM      2  C   UNL     1       3.021  -2.375   4.849  0.00  0.00    +0.076 A 
ATOM      3  C   UNL     1       3.757  -1.917   5.869  0.00  0.00    +0.228 A 
ATOM      4  N   UNL     1       5.120  -1.795   5.750  0.00  0.00    -0.173 N 
ATOM      5  C   UNL     1       5.677  -2.159   4.555  0.00  0.00    +0.200 A 
ATOM      6  S   UNL     1       4.267  -2.680   3.606  0.00  0.00    -0.047 S 
ATOM      7  N   UNL     1       6.968  -1.987   4.600  0.00  0.00    -0.197 NA
ATOM      8  C   UNL     1       7.309  -1.510   5.805  0.00  0.00    +0.218 A 
ATOM      9  N   UNL     1       6.224  -1.377   6.537  0.00  0.00    -0.138 NA
BRANCH   8  10
ATOM     10  C   UNL     1       8.684  -1.186   6.241  0.00  0.00    +0.173 A 
ATOM     11  C   UNL     1       9.810  -1.314   5.491  0.00  0.00    +0.053 A 
ATOM     12  C   UNL     1      10.886  -0.895   6.299  0.00  0.00    +0.042 A 
ATOM     13  C   UNL     1      10.368  -0.535   7.490  0.00  0.00    +0.196 A 
ATOM     14  O   UNL     1       9.037  -0.708   7.450  0.00  0.00    -0.460 OA
ENDBRANCH   8  10
BRANCH   3  15
ATOM     15  O   UNL     1       3.149  -1.570   7.035  0.00  0.00    -0.492 OA
ATOM     16  H   UNL     1       3.757  -1.250   7.716  0.00  0.00    +0.294 HD
ENDBRANCH   3  15
ENDBRANCH   1   2
BRANCH   1  20
ATOM     17  N   UNL     1      -0.536   0.190   2.342  0.00  0.00    +0.381 N 
ATOM     18  C   UNL     1      -0.990  -1.207   2.335  0.00  0.00    -0.063 C 
ATOM     19  C   UNL     1      -0.474  -1.918   3.588  0.00  0.00    +0.067 C 
ATOM     20  N   UNL     1       0.994  -1.862   3.611  0.00  0.00    -0.295 NA
ATOM     21  C   UNL     1       1.464  -0.470   3.593  0.00  0.00    +0.067 C 
ATOM     22  C   UNL     1       0.933   0.229   2.340  0.00  0.00    -0.063 C 
ATOM     23  H   UNL     1      -0.883   0.652   3.170  0.00  0.00    -0.082 HD
BRANCH  17  25
ATOM     24  C   UNL     1      -2.573   0.945   1.212  0.00  0.00    -0.017 C 
ATOM     25  C   UNL     1      -1.046   0.877   1.148  0.00  0.00    -0.082 C 
ENDBRANCH  17  25
ENDBRANCH   1  20
BRANCH   1  26
ATOM     26  C   UNL     1       1.237  -4.055   4.628  0.00  0.00    -0.007 A 
ATOM     27  C   UNL     1       1.093  -4.612   3.371  0.00  0.00    +0.007 A 
ATOM     28  C   UNL     1       0.824  -5.961   3.239  0.00  0.00    +0.000 A 
ATOM     29  C   UNL     1       0.698  -6.755   4.364  0.00  0.00    +0.001 A 
ATOM     30  C   UNL     1       0.841  -6.199   5.622  0.00  0.00    +0.020 A 
ATOM     31  C   UNL     1       1.116  -4.850   5.754  0.00  0.00    +0.046 A 
ATOM     32 CL   UNL     1       1.302  -4.153   7.333  0.00  0.00    -0.083 Cl
ENDBRANCH   1  26
TORSDOF 6
