REMARK  Name = ZINC12549057
REMARK  10 active torsions:
REMARK  status: ('A' for Active; 'I' for Inactive)
REMARK    1  A    between atoms: C_1  and  C_2
REMARK    2  A    between atoms: C_2  and  C_4
REMARK    3  A    between atoms: C_2  and  N_54
REMARK    4  A    between atoms: C_7  and  S_16
REMARK    5  A    between atoms: N_8  and  C_9
REMARK    6  A    between atoms: S_16  and  C_17
REMARK    7  A    between atoms: C_17  and  C_18
REMARK    8  A    between atoms: N_23  and  C_24
REMARK    9  A    between atoms: C_30  and  N_54
REMARK   10  A    between atoms: C_31  and  N_54
REMARK                            x       y       z     vdW  Elec       q    Type
REMARK                         _______ _______ _______ _____ _____    ______ ____
ROOT
ATOM      1  C   UNL     1       0.866   1.069  -0.213  0.00  0.00    +0.125 A 
ATOM      2  N   UNL     1       0.602   2.338  -0.080  0.00  0.00    -0.135 NA
ATOM      3  N   UNL     1      -0.669   2.525  -0.043  0.00  0.00    -0.122 NA
ATOM      4  C   UNL     1      -1.293   1.375  -0.157  0.00  0.00    +0.196 A 
ATOM      5  N   UNL     1      -0.333   0.407  -0.263  0.00  0.00    -0.275 N 
ENDROOT
BRANCH   5   6
ATOM      6  C   UNL     1      -0.533  -0.975  -0.401  0.00  0.00    +0.050 A 
ATOM      7  C   UNL     1      -0.150  -1.619  -1.569  0.00  0.00    +0.029 A 
ATOM      8  C   UNL     1      -0.344  -2.980  -1.702  0.00  0.00    +0.040 A 
ATOM      9  C   UNL     1      -0.929  -3.700  -0.673  0.00  0.00    +0.124 A 
ATOM     10  C   UNL     1      -1.316  -3.058   0.491  0.00  0.00    +0.040 A 
ATOM     11  C   UNL     1      -1.119  -1.698   0.628  0.00  0.00    +0.029 A 
ATOM     12  F   UNL     1      -1.123  -5.031  -0.806  0.00  0.00    -0.205 F 
ENDBRANCH   5   6
BRANCH   1  14
ATOM     13  C   UNL     1       2.874   0.430   1.093  0.00  0.00    -0.005 C 
ATOM     14  C   UNL     1       2.235   0.445  -0.296  0.00  0.00    -0.003 C 
BRANCH  14  17
ATOM     15  C   UNL     1       3.334   2.569  -0.674  0.00  0.00    -0.096 C 
ATOM     16  C   UNL     1       4.331   0.525  -1.505  0.00  0.00    -0.096 C 
ATOM     17  N   UNL     1       3.060   1.230  -1.238  0.00  0.00    +0.382 N 
ATOM     18  H   UNL     1       2.547   1.339  -2.121  0.00  0.00    -0.082 HD
ENDBRANCH  14  17
ENDBRANCH   1  14
BRANCH   4  19
ATOM     19  S   UNL     1      -3.038   1.126  -0.167  0.00  0.00    -0.079 S 
BRANCH  19  20
ATOM     20  C   UNL     1      -3.600   2.837   0.011  0.00  0.00    +0.133 C 
BRANCH  20  21
ATOM     21  C   UNL     1      -5.107   2.871   0.028  0.00  0.00    +0.061 A 
ATOM     22  C   UNL     1      -5.810   3.009  -1.122  0.00  0.00    +0.072 A 
ATOM     23  S   UNL     1      -7.482   2.980  -0.494  0.00  0.00    -0.060 S 
ATOM     24  C   UNL     1      -7.090   2.802   1.188  0.00  0.00    +0.163 A 
ATOM     25  N   UNL     1      -5.771   2.773   1.164  0.00  0.00    -0.229 NA
ATOM     26  N   UNL     1      -7.944   2.713   2.277  0.00  0.00    -0.294 N 
ATOM     27  H   UNL     1      -7.583   2.705   3.177  0.00  0.00    +0.154 HD
BRANCH  26  28
ATOM     28  C   UNL     1      -9.325   2.636   2.078  0.00  0.00    +0.033 A 
ATOM     29  C   UNL     1     -10.194   3.213   2.995  0.00  0.00    +0.023 A 
ATOM     30  C   UNL     1     -11.559   3.138   2.793  0.00  0.00    +0.002 A 
ATOM     31  C   UNL     1     -12.060   2.481   1.684  0.00  0.00    +0.000 A 
ATOM     32  C   UNL     1     -11.197   1.901   0.771  0.00  0.00    +0.002 A 
ATOM     33  C   UNL     1      -9.832   1.976   0.965  0.00  0.00    +0.023 A 
ENDBRANCH  26  28
ENDBRANCH  20  21
ENDBRANCH  19  20
ENDBRANCH   4  19
TORSDOF 7
