REMARK  Name = ZINC65535184
REMARK  7 active torsions:
REMARK  status: ('A' for Active; 'I' for Inactive)
REMARK    1  A    between atoms: C_1  and  C_2
REMARK    2  A    between atoms: C_8  and  C_12
REMARK    3  A    between atoms: C_12  and  C_13
REMARK    4  A    between atoms: C_13  and  N_14
REMARK    5  A    between atoms: N_14  and  C_15
REMARK    6  A    between atoms: C_16  and  C_18
REMARK    7  A    between atoms: C_28  and  C_30
REMARK                            x       y       z     vdW  Elec       q    Type
REMARK                         _______ _______ _______ _____ _____    ______ ____
ROOT
ATOM      1  N   UNL     1       2.750  -2.777   5.892  0.00  0.00    -0.299 N 
ATOM      2  C   UNL     1       2.624  -2.105   7.188  0.00  0.00    +0.132 C 
ATOM      3  C   UNL     1       3.804  -3.582   5.649  0.00  0.00    +0.261 C 
ATOM      4  O   UNL     1       3.965  -4.055   4.541  0.00  0.00    -0.269 OA
ENDROOT
BRANCH   3   5
ATOM      5  C   UNL     1       4.762  -3.888   6.729  0.00  0.00    +0.101 C 
ATOM      6  C   UNL     1       5.931  -4.540   6.566  0.00  0.00    +0.024 C 
ATOM      7  C   UNL     1       6.532  -4.623   7.942  0.00  0.00    +0.118 C 
ATOM      8  C   UNL     1       7.111  -5.984   8.316  0.00  0.00    +0.132 C 
ATOM      9  N   UNL     1       7.438  -5.897   9.758  0.00  0.00    -0.299 N 
ATOM     10  C   UNL     1       6.426  -5.419  10.707  0.00  0.00    +0.125 C 
ATOM     11  C   UNL     1       5.739  -4.152  10.162  0.00  0.00    +0.125 C 
ATOM     12  N   UNL     1       5.335  -4.412   8.801  0.00  0.00    -0.219 NA
ATOM     13  N   UNL     1       4.593  -3.538   8.088  0.00  0.00    -0.273 N 
ATOM     14  C   UNL     1       8.661  -6.256  10.196  0.00  0.00    +0.213 C 
ATOM     15  O   UNL     1       8.961  -6.088  11.359  0.00  0.00    -0.276 OA
ATOM     16  C   UNL     1       9.654  -6.867   9.242  0.00  0.00    +0.109 C 
ATOM     17  H   UNL     1       4.050  -2.815   8.438  0.00  0.00    +0.167 HD
ENDBRANCH   3   5
BRANCH   1  18
ATOM     18  C   UNL     1       1.730  -2.574   4.859  0.00  0.00    +0.111 C 
BRANCH  18  19
ATOM     19  C   UNL     1       2.118  -1.377   3.988  0.00  0.00    +0.065 C 
BRANCH  19  27
ATOM     20  C   UNL     1       2.206   1.595  -0.513  0.00  0.00    +0.046 C 
ATOM     21  C   UNL     1       1.901   0.121  -0.449  0.00  0.00    -0.025 A 
ATOM     22  C   UNL     1       1.949  -0.631  -1.567  0.00  0.00    +0.005 A 
ATOM     23  C   UNL     1       1.674  -2.010  -1.566  0.00  0.00    +0.002 A 
ATOM     24  C   UNL     1       1.343  -2.684  -0.446  0.00  0.00    +0.027 A 
ATOM     25  C   UNL     1       1.260  -1.967   0.834  0.00  0.00    +0.060 A 
ATOM     26  N   UNL     1       0.970  -2.348   2.044  0.00  0.00    -0.363 N 
ATOM     27  C   UNL     1       1.053  -1.165   2.910  0.00  0.00    +0.175 C 
ATOM     28  N   UNL     1       1.430  -0.042   2.042  0.00  0.00    -0.363 N 
ATOM     29  C   UNL     1       1.557  -0.508   0.833  0.00  0.00    +0.063 A 
ATOM     30  H   UNL     1       1.564   0.877   2.319  0.00  0.00    +0.162 HD
ATOM     31  H   UNL     1       0.742  -3.248   2.323  0.00  0.00    +0.162 HD
ENDBRANCH  19  27
ENDBRANCH  18  19
ENDBRANCH   1  18
TORSDOF 4
