REMARK  Name = ZINC41004775
REMARK  9 active torsions:
REMARK  status: ('A' for Active; 'I' for Inactive)
REMARK    1  A    between atoms: C_1  and  C_2
REMARK    2  A    between atoms: C_2  and  S_3
REMARK    3  A    between atoms: S_3  and  C_4
REMARK    4  A    between atoms: C_9  and  C_18
REMARK    5  A    between atoms: C_11  and  C_15
REMARK    6  A    between atoms: C_12  and  C_14
REMARK    7  A    between atoms: C_23  and  O_24
REMARK    8  A    between atoms: O_24  and  C_25
REMARK    9  A    between atoms: C_25  and  C_26
REMARK                            x       y       z     vdW  Elec       q    Type
REMARK                         _______ _______ _______ _____ _____    ______ ____
ROOT
ATOM      1  C   UNL     1      -1.497  -2.418   0.459  0.00  0.00    +0.210 A 
ATOM      2  N   UNL     1      -0.330  -3.075   0.398  0.00  0.00    -0.187 NA
ATOM      3  C   UNL     1      -0.554  -4.345   0.196  0.00  0.00    +0.219 A 
ATOM      4  N   UNL     1      -1.895  -4.528   0.117  0.00  0.00    -0.220 N 
ATOM      5  N   UNL     1      -2.481  -3.276   0.298  0.00  0.00    -0.141 NA
ATOM      6  C   UNL     1      -2.520  -5.827  -0.115  0.00  0.00    +0.181 C 
ATOM      7  C   UNL     1      -1.493  -6.915   0.050  0.00  0.00    +0.060 C 
ATOM      8  C   UNL     1      -0.176  -6.673   0.127  0.00  0.00    +0.018 C 
ATOM      9  N   UNL     1       0.338  -5.401   0.070  0.00  0.00    -0.287 N 
ATOM     10  C   UNL     1       0.770  -7.835   0.279  0.00  0.00    +0.061 C 
ATOM     11  H   UNL     1       1.288  -5.246  -0.052  0.00  0.00    +0.155 HD
ENDROOT
BRANCH   6  12
ATOM     12  C   UNL     1      -3.080  -5.873  -1.514  0.00  0.00    +0.023 A 
ATOM     13  C   UNL     1      -2.240  -5.713  -2.600  0.00  0.00    +0.009 A 
ATOM     14  C   UNL     1      -2.753  -5.755  -3.883  0.00  0.00    +0.001 A 
ATOM     15  C   UNL     1      -4.106  -5.956  -4.083  0.00  0.00    +0.004 A 
ATOM     16  C   UNL     1      -4.949  -6.117  -3.001  0.00  0.00    +0.046 A 
ATOM     17  C   UNL     1      -4.437  -6.081  -1.712  0.00  0.00    +0.127 A 
BRANCH  17  18
ATOM     18  O   UNL     1      -5.263  -6.244  -0.646  0.00  0.00    -0.487 OA
BRANCH  18  19
ATOM     19  C   UNL     1      -6.649  -6.454  -0.926  0.00  0.00    +0.264 C 
BRANCH  19  20
ATOM     20  C   UNL     1      -7.404  -6.613   0.368  0.00  0.00    -0.010 A 
ATOM     21  C   UNL     1      -7.559  -7.867   0.928  0.00  0.00    +0.007 A 
ATOM     22  C   UNL     1      -8.252  -8.014   2.116  0.00  0.00    +0.000 A 
ATOM     23  C   UNL     1      -8.789  -6.905   2.743  0.00  0.00    +0.000 A 
ATOM     24  C   UNL     1      -8.633  -5.651   2.184  0.00  0.00    +0.000 A 
ATOM     25  C   UNL     1      -7.937  -5.504   0.999  0.00  0.00    +0.007 A 
ENDBRANCH  19  20
ENDBRANCH  18  19
ENDBRANCH  17  18
ENDBRANCH   6  12
BRANCH   7  26
ATOM     26  C   UNL     1      -1.937  -8.256   0.129  0.00  0.00    +0.241 C 
ATOM     27  O   UNL     1      -2.474  -8.661   1.144  0.00  0.00    -0.271 OA
ATOM     28  N   UNL     1      -1.767  -9.085  -0.920  0.00  0.00    -0.325 N 
ATOM     29  H   UNL     1      -1.340  -8.763  -1.729  0.00  0.00    +0.145 HD
ATOM     30  H   UNL     1      -2.072 -10.005  -0.866  0.00  0.00    +0.145 HD
ENDBRANCH   7  26
BRANCH   1  31
ATOM     31  S   UNL     1      -1.684  -0.685   0.722  0.00  0.00    -0.085 S 
BRANCH  31  33
ATOM     32  C   UNL     1       0.003   1.435   1.099  0.00  0.00    +0.016 C 
ATOM     33  C   UNL     1       0.019  -0.077   0.866  0.00  0.00    +0.074 C 
ENDBRANCH  31  33
ENDBRANCH   1  31
TORSDOF 7
