REMARK  Name = ZINC21264779
REMARK  4 active torsions:
REMARK  status: ('A' for Active; 'I' for Inactive)
REMARK    1  A    between atoms: N_9  and  C_11
REMARK    2  A    between atoms: C_11  and  C_12
REMARK    3  A    between atoms: N_14  and  C_15
REMARK    4  A    between atoms: C_20  and  N_24
REMARK                            x       y       z     vdW  Elec       q    Type
REMARK                         _______ _______ _______ _____ _____    ______ ____
ROOT
ATOM      1  C   UNL     1       1.180   1.654   0.280  0.00  0.00    +0.232 C 
ATOM      2  O   UNL     1       1.200   2.849   0.488  0.00  0.00    -0.273 OA
ATOM      3  N   UNL     1       0.011   0.984   0.313  0.00  0.00    -0.188 NA
ENDROOT
BRANCH   3   4
ATOM      4  C   UNL     1      -1.168   1.660   0.580  0.00  0.00    +0.197 A 
ATOM      5  N   UNL     1      -1.347   2.937   0.827  0.00  0.00    -0.221 NA
ATOM      6  C   UNL     1      -2.566   3.465   1.071  0.00  0.00    +0.081 A 
ATOM      7  C   UNL     1      -2.894   4.812   1.349  0.00  0.00    +0.031 A 
ATOM      8  C   UNL     1      -4.194   5.183   1.576  0.00  0.00    +0.035 A 
ATOM      9  C   UNL     1      -5.228   4.260   1.542  0.00  0.00    +0.127 A 
ATOM     10  C   UNL     1      -4.944   2.933   1.274  0.00  0.00    +0.050 A 
ATOM     11  C   UNL     1      -3.645   2.552   1.045  0.00  0.00    +0.043 A 
ATOM     12  S   UNL     1      -2.834   1.018   0.667  0.00  0.00    -0.048 S 
BRANCH   9  13
ATOM     13  N   UNL     1      -6.623   4.690   1.790  0.00  0.00    +0.056 N 
ATOM     14  O   UNL     1      -7.527   3.874   1.759  0.00  0.00    -0.126 OA
ATOM     15  O   UNL     1      -6.867   5.859   2.027  0.00  0.00    -0.126 OA
ENDBRANCH   9  13
ENDBRANCH   3   4
BRANCH   1  16
ATOM     16  C   UNL     1       2.462   0.920  -0.017  0.00  0.00    +0.024 C 
BRANCH  16  25
ATOM     17  C   UNL     1       8.068   3.954  -0.836  0.00  0.00    +0.000 A 
ATOM     18  C   UNL     1       8.317   2.678  -0.366  0.00  0.00    +0.000 A 
ATOM     19  C   UNL     1       7.269   1.802  -0.168  0.00  0.00    +0.002 A 
ATOM     20  C   UNL     1       5.966   2.194  -0.438  0.00  0.00    -0.061 A 
ATOM     21  C   UNL     1       5.719   3.468  -0.904  0.00  0.00    -0.048 A 
ATOM     22  C   UNL     1       6.772   4.346  -1.104  0.00  0.00    +0.004 A 
ATOM     23  C   UNL     1       4.320   3.942  -1.206  0.00  0.00    +0.017 C 
ATOM     24  C   UNL     1       3.377   2.744  -1.324  0.00  0.00    -0.073 C 
ATOM     25  N   UNL     1       3.562   1.886  -0.142  0.00  0.00    +0.388 N 
ATOM     26  C   UNL     1       4.857   1.201  -0.210  0.00  0.00    -0.042 C 
ATOM     27  H   UNL     1       3.553   2.519   0.756  0.00  0.00    -0.081 HD
ENDBRANCH  16  25
ENDBRANCH   1  16
TORSDOF 4
