REMARK  Name = ZINC35786333
REMARK  12 active torsions:
REMARK  status: ('A' for Active; 'I' for Inactive)
REMARK    1  A    between atoms: C_1  and  C_2
REMARK    2  A    between atoms: C_2  and  O_3
REMARK    3  A    between atoms: O_3  and  C_4
REMARK    4  A    between atoms: C_7  and  C_10
REMARK    5  A    between atoms: C_13  and  C_31
REMARK    6  A    between atoms: C_16  and  C_18
REMARK    7  A    between atoms: C_18  and  N_19
REMARK    8  A    between atoms: C_23  and  C_26
REMARK    9  A    between atoms: C_26  and  O_28
REMARK   10  A    between atoms: O_28  and  C_29
REMARK   11  A    between atoms: C_29  and  C_30
REMARK   12  A    between atoms: C_34  and  C_37
REMARK                            x       y       z     vdW  Elec       q    Type
REMARK                         _______ _______ _______ _____ _____    ______ ____
ROOT
ATOM      1  C   UNL     1      -2.001  -6.092  -0.011  0.00  0.00    +0.137 C 
ATOM      2  C   UNL     1      -2.373  -6.588  -1.422  0.00  0.00    +0.087 C 
ATOM      3  C   UNL     1      -3.736  -7.217  -1.240  0.00  0.00    +0.069 C 
ATOM      4  N   UNL     1      -4.093  -7.119  -0.006  0.00  0.00    -0.181 NA
ATOM      5  N   UNL     1      -3.158  -6.480   0.811  0.00  0.00    -0.187 N 
ATOM      6  C   UNL     1      -3.291  -6.254   2.133  0.00  0.00    +0.219 C 
ATOM      7  O   UNL     1      -2.410  -5.686   2.743  0.00  0.00    -0.276 OA
ENDROOT
BRANCH   3   8
ATOM      8  C   UNL     1      -4.533  -7.846  -2.309  0.00  0.00    -0.002 A 
ATOM      9  C   UNL     1      -4.038  -7.899  -3.615  0.00  0.00    +0.010 A 
ATOM     10  C   UNL     1      -4.789  -8.489  -4.610  0.00  0.00    +0.004 A 
ATOM     11  C   UNL     1      -6.030  -9.026  -4.318  0.00  0.00    -0.050 A 
ATOM     12  C   UNL     1      -6.527  -8.977  -3.027  0.00  0.00    +0.004 A 
ATOM     13  C   UNL     1      -5.784  -8.396  -2.021  0.00  0.00    +0.010 A 
ATOM     14  C   UNL     1      -6.845  -9.668  -5.411  0.00  0.00    +0.044 C 
ENDBRANCH   3   8
BRANCH   1  18
ATOM     15  C   UNL     1      -1.498  -1.848   0.006  0.00  0.00    +0.121 A 
ATOM     16  C   UNL     1      -0.388  -2.679  -0.003  0.00  0.00    +0.046 A 
ATOM     17  C   UNL     1      -0.553  -4.051  -0.008  0.00  0.00    +0.009 A 
ATOM     18  C   UNL     1      -1.823  -4.596  -0.005  0.00  0.00    -0.024 A 
ATOM     19  C   UNL     1      -2.932  -3.769   0.004  0.00  0.00    +0.009 A 
ATOM     20  C   UNL     1      -2.772  -2.397   0.016  0.00  0.00    +0.046 A 
BRANCH  15  21
ATOM     21  O   UNL     1      -1.339  -0.499   0.012  0.00  0.00    -0.492 OA
BRANCH  21  23
ATOM     22  C   UNL     1      -0.019   1.526   0.010  0.00  0.00    +0.048 C 
ATOM     23  C   UNL     1       0.002  -0.004   0.002  0.00  0.00    +0.225 C 
ENDBRANCH  21  23
ENDBRANCH  15  21
ENDBRANCH   1  18
BRANCH   6  24
ATOM     24  C   UNL     1      -4.535  -6.707   2.853  0.00  0.00    +0.021 C 
BRANCH  24  25
ATOM     25  N   UNL     1      -4.438  -6.346   4.274  0.00  0.00    +0.386 N 
ATOM     26  C   UNL     1      -3.330  -7.087   4.890  0.00  0.00    -0.078 C 
ATOM     27  C   UNL     1      -3.173  -6.655   6.350  0.00  0.00    -0.018 C 
ATOM     28  C   UNL     1      -4.471  -6.950   7.107  0.00  0.00    +0.011 C 
ATOM     29  C   UNL     1      -5.631  -6.232   6.411  0.00  0.00    +0.081 C 
ATOM     30  C   UNL     1      -5.697  -6.680   4.949  0.00  0.00    -0.064 C 
ATOM     31  H   UNL     1      -4.265  -5.356   4.357  0.00  0.00    -0.081 HD
BRANCH  29  32
ATOM     32  C   UNL     1      -6.924  -6.577   7.103  0.00  0.00    +0.308 C 
ATOM     33  O   UNL     1      -7.811  -7.122   6.490  0.00  0.00    -0.251 OA
BRANCH  32  34
ATOM     34  O   UNL     1      -7.091  -6.279   8.402  0.00  0.00    -0.465 OA
BRANCH  34  35
ATOM     35  C   UNL     1      -8.342  -6.635   8.993  0.00  0.00    +0.229 C 
ATOM     36  C   UNL     1      -8.346  -6.219  10.466  0.00  0.00    +0.048 C 
ENDBRANCH  34  35
ENDBRANCH  32  34
ENDBRANCH  29  32
ENDBRANCH  24  25
ENDBRANCH   6  24
TORSDOF 9
