REMARK  Name = ZINC04163776
REMARK  5 active torsions:
REMARK  status: ('A' for Active; 'I' for Inactive)
REMARK    1  A    between atoms: C_5  and  C_7
REMARK    2  A    between atoms: C_9  and  C_21
REMARK    3  A    between atoms: C_11  and  C_16
REMARK    4  A    between atoms: C_11  and  O_20
REMARK    5  A    between atoms: C_21  and  C_23
REMARK                            x       y       z     vdW  Elec       q    Type
REMARK                         _______ _______ _______ _____ _____    ______ ____
ROOT
ATOM      1  C   UNL     1       1.141  -2.021  -0.101  0.00  0.00    +0.123 C 
ATOM      2  C   UNL     1       1.343  -2.688  -1.465  0.00  0.00    +0.144 C 
ATOM      3  C   UNL     1       1.324  -4.209  -1.273  0.00  0.00    +0.243 C 
ATOM      4  N   UNL     1       0.078  -4.592  -0.608  0.00  0.00    -0.264 N 
ATOM      5  C   UNL     1      -0.553  -3.755   0.230  0.00  0.00    +0.302 C 
ATOM      6  O   UNL     1      -1.579  -4.128   0.764  0.00  0.00    -0.253 OA
ATOM      7  N   UNL     1      -0.095  -2.524   0.503  0.00  0.00    -0.292 N 
ATOM      8  H   UNL     1      -0.300  -5.470  -0.776  0.00  0.00    +0.153 HD
ATOM      9  H   UNL     1      -0.592  -1.954   1.110  0.00  0.00    +0.151 HD
ENDROOT
BRANCH   1  14
ATOM     10  C   UNL     1       2.010   1.653  -0.072  0.00  0.00    +0.000 A 
ATOM     11  C   UNL     1       0.864   2.213  -0.607  0.00  0.00    +0.003 A 
ATOM     12  C   UNL     1      -0.192   1.404  -0.978  0.00  0.00    +0.039 A 
ATOM     13  C   UNL     1      -0.104   0.032  -0.815  0.00  0.00    +0.128 A 
ATOM     14  C   UNL     1       1.044  -0.528  -0.279  0.00  0.00    +0.009 A 
ATOM     15  C   UNL     1       2.099   0.283   0.092  0.00  0.00    +0.008 A 
ATOM     16  F   UNL     1      -1.137  -0.760  -1.178  0.00  0.00    -0.205 F 
ENDBRANCH   1  14
BRANCH   3  17
ATOM     17  C   UNL     1       1.409  -4.898  -2.636  0.00  0.00    +0.436 C 
ATOM     18  F   UNL     1       2.597  -4.524  -3.274  0.00  0.00    -0.166 F 
ATOM     19  F   UNL     1       1.391  -6.285  -2.459  0.00  0.00    -0.166 F 
ATOM     20  F   UNL     1       0.317  -4.513  -3.422  0.00  0.00    -0.166 F 
ENDBRANCH   3  17
BRANCH   3  21
ATOM     21  O   UNL     1       2.436  -4.602  -0.467  0.00  0.00    -0.364 OA
ATOM     22  H   UNL     1       2.487  -5.554  -0.304  0.00  0.00    +0.212 HD
ENDBRANCH   3  21
BRANCH   2  23
ATOM     23  C   UNL     1       2.669  -2.265  -2.044  0.00  0.00    +0.173 C 
ATOM     24  O   UNL     1       3.653  -2.220  -1.337  0.00  0.00    -0.292 OA
BRANCH  23  25
ATOM     25  C   UNL     1       2.769  -1.906  -3.467  0.00  0.00    +0.018 A 
ATOM     26  C   UNL     1       1.635  -1.951  -4.285  0.00  0.00    +0.013 A 
ATOM     27  C   UNL     1       1.736  -1.612  -5.617  0.00  0.00    +0.020 A 
ATOM     28  C   UNL     1       2.958  -1.229  -6.147  0.00  0.00    +0.041 A 
ATOM     29  C   UNL     1       4.085  -1.182  -5.343  0.00  0.00    +0.020 A 
ATOM     30  C   UNL     1       3.998  -1.512  -4.008  0.00  0.00    +0.013 A 
ATOM     31 CL   UNL     1       3.076  -0.805  -7.826  0.00  0.00    -0.084 Cl
ENDBRANCH  23  25
ENDBRANCH   2  23
TORSDOF 5
