REMARK  Name = ZINC65951612
REMARK  7 active torsions:
REMARK  status: ('A' for Active; 'I' for Inactive)
REMARK    1  A    between atoms: C_1  and  O_2
REMARK    2  A    between atoms: O_2  and  C_3
REMARK    3  A    between atoms: C_8  and  C_9
REMARK    4  A    between atoms: C_11  and  C_14
REMARK    5  A    between atoms: C_14  and  N_15
REMARK    6  A    between atoms: N_15  and  C_16
REMARK    7  A    between atoms: N_15  and  C_19
REMARK                            x       y       z     vdW  Elec       q    Type
REMARK                         _______ _______ _______ _____ _____    ______ ____
ROOT
ATOM      1  C   UNL     1       1.697  -6.028  -0.062  0.00  0.00    +0.023 C 
ENDROOT
BRANCH   1   4
ATOM      2  C   UNL     1       0.061  -8.758   1.684  0.00  0.00    +0.206 A 
ATOM      3  N   UNL     1       1.143  -8.093   1.238  0.00  0.00    -0.193 NA
ATOM      4  C   UNL     1       0.774  -7.027   0.587  0.00  0.00    +0.211 A 
ATOM      5  O   UNL     1      -0.564  -6.969   0.590  0.00  0.00    -0.340 OA
ATOM      6  N   UNL     1      -1.013  -8.110   1.306  0.00  0.00    -0.056 NA
BRANCH   2  12
ATOM      7  C   UNL     1      -1.117 -10.615   2.868  0.00  0.00    +0.131 A 
ATOM      8  C   UNL     1      -1.088 -11.795   3.594  0.00  0.00    +0.046 A 
ATOM      9  C   UNL     1       0.122 -12.375   3.925  0.00  0.00    +0.004 A 
ATOM     10  C   UNL     1       1.310 -11.782   3.535  0.00  0.00    +0.001 A 
ATOM     11  C   UNL     1       1.296 -10.607   2.812  0.00  0.00    +0.015 A 
ATOM     12  C   UNL     1       0.082 -10.017   2.467  0.00  0.00    +0.064 A 
BRANCH   7  14
ATOM     13  C   UNL     1      -3.488 -10.711   2.985  0.00  0.00    +0.277 C 
ATOM     14  O   UNL     1      -2.305 -10.044   2.542  0.00  0.00    -0.494 OA
ENDBRANCH   7  14
ENDBRANCH   2  12
ENDBRANCH   1   4
BRANCH   1  15
ATOM     15  N   UNL     1       2.049  -6.490  -1.411  0.00  0.00    +0.392 N 
ATOM     16  H   UNL     1       2.752  -5.881  -1.802  0.00  0.00    -0.080 HD
BRANCH  15  17
ATOM     17  C   UNL     1       2.573  -7.861  -1.338  0.00  0.00    -0.036 C 
ATOM     18  C   UNL     1       2.779  -8.431  -2.757  0.00  0.00    -0.006 C 
ATOM     19  C   UNL     1       4.036  -9.310  -2.581  0.00  0.00    +0.034 C 
ATOM     20  C   UNL     1       4.789  -8.697  -1.420  0.00  0.00    -0.046 A 
ATOM     21  C   UNL     1       3.948  -7.864  -0.706  0.00  0.00    -0.058 A 
ATOM     22  C   UNL     1       4.426  -7.192   0.406  0.00  0.00    +0.002 A 
ATOM     23  C   UNL     1       5.740  -7.351   0.804  0.00  0.00    +0.000 A 
ATOM     24  C   UNL     1       6.580  -8.184   0.089  0.00  0.00    +0.000 A 
ATOM     25  C   UNL     1       6.105  -8.856  -1.020  0.00  0.00    +0.004 A 
ENDBRANCH  15  17
BRANCH  15  26
ATOM     26  C   UNL     1       0.853  -6.468  -2.264  0.00  0.00    -0.067 C 
ATOM     27  C   UNL     1       0.991  -5.853  -3.658  0.00  0.00    -0.017 C 
ATOM     28  C   UNL     1       0.225  -5.106  -2.564  0.00  0.00    -0.017 C 
ENDBRANCH  15  26
ENDBRANCH   1  15
TORSDOF 6
