REMARK  Name = ZINC61847417
REMARK  3 active torsions:
REMARK  status: ('A' for Active; 'I' for Inactive)
REMARK    1  A    between atoms: N_6  and  C_11
REMARK    2  A    between atoms: C_9  and  N_10
REMARK    3  A    between atoms: C_14  and  C_18
REMARK                            x       y       z     vdW  Elec       q    Type
REMARK                         _______ _______ _______ _____ _____    ______ ____
ROOT
ATOM      1  C   UNL     1      -0.017   1.391   0.010  0.00  0.00    +0.023 A 
ATOM      2  C   UNL     1       1.148   2.100   0.002  0.00  0.00    +0.013 A 
ATOM      3  C   UNL     1       2.374   1.427  -0.013  0.00  0.00    +0.020 A 
ATOM      4  C   UNL     1       3.768   1.863  -0.024  0.00  0.00    +0.143 A 
ATOM      5  N   UNL     1       4.519   0.798  -0.037  0.00  0.00    -0.174 NA
ATOM      6  N   UNL     1       3.724  -0.352  -0.035  0.00  0.00    -0.232 N 
ATOM      7  C   UNL     1       2.401   0.018  -0.021  0.00  0.00    +0.076 A 
ATOM      8  C   UNL     1       1.204  -0.690  -0.013  0.00  0.00    +0.051 A 
ATOM      9  C   UNL     1       0.002  -0.004   0.002  0.00  0.00    +0.027 A 
ENDROOT
BRANCH   6  10
ATOM     10  C   UNL     1       4.198  -1.665  -0.047  0.00  0.00    +0.067 A 
ATOM     11  C   UNL     1       3.507  -2.658   0.641  0.00  0.00    +0.028 A 
ATOM     12  C   UNL     1       3.971  -3.954   0.633  0.00  0.00    +0.016 A 
ATOM     13  C   UNL     1       5.138  -4.272  -0.068  0.00  0.00    +0.055 A 
ATOM     14  C   UNL     1       5.829  -3.272  -0.759  0.00  0.00    +0.055 A 
ATOM     15  C   UNL     1       5.355  -1.978  -0.750  0.00  0.00    +0.048 A 
ATOM     16 CL   UNL     1       7.279  -3.661  -1.631  0.00  0.00    -0.083 Cl
BRANCH  13  17
ATOM     17  C   UNL     1       5.638  -5.660  -0.079  0.00  0.00    +0.243 C 
ATOM     18  O   UNL     1       6.653  -5.936  -0.689  0.00  0.00    -0.270 OA
ATOM     19  N   UNL     1       4.971  -6.622   0.588  0.00  0.00    -0.325 N 
ATOM     20  H   UNL     1       4.161  -6.403   1.075  0.00  0.00    +0.145 HD
ATOM     21  H   UNL     1       5.300  -7.535   0.581  0.00  0.00    +0.145 HD
ENDBRANCH  13  17
ENDBRANCH   6  10
BRANCH   9  22
ATOM     22  N   UNL     1      -1.201  -0.714   0.010  0.00  0.00    -0.358 N 
ATOM     23  H   UNL     1      -2.045  -0.236   0.021  0.00  0.00    +0.142 HD
ATOM     24  H   UNL     1      -1.192  -1.683   0.005  0.00  0.00    +0.142 HD
ENDBRANCH   9  22
TORSDOF 3
