REMARK  Name = ZINC20704855
REMARK  6 active torsions:
REMARK  status: ('A' for Active; 'I' for Inactive)
REMARK    1  A    between atoms: C_1  and  C_2
REMARK    2  A    between atoms: C_2  and  C_3
REMARK    3  A    between atoms: C_3  and  C_4
REMARK    4  A    between atoms: N_6  and  C_7
REMARK    5  A    between atoms: C_20  and  C_23
REMARK    6  A    between atoms: C_27  and  N_29
REMARK                            x       y       z     vdW  Elec       q    Type
REMARK                         _______ _______ _______ _____ _____    ______ ____
ROOT
ATOM      1  C   UNL     1      -3.897   5.076  -0.975  0.00  0.00    +0.034 A 
ATOM      2  C   UNL     1      -3.583   5.566  -2.236  0.00  0.00    +0.025 A 
ATOM      3  C   UNL     1      -2.340   5.307  -2.778  0.00  0.00    +0.025 A 
ATOM      4  C   UNL     1      -1.410   4.561  -2.065  0.00  0.00    +0.031 A 
ATOM      5  C   UNL     1      -1.714   4.073  -0.804  0.00  0.00    -0.018 A 
ATOM      6  C   UNL     1      -2.967   4.334  -0.265  0.00  0.00    +0.029 A 
ATOM      7  C   UNL     1      -0.740   3.275   0.003  0.00  0.00    +0.049 C 
ATOM      8  C   UNL     1      -1.099   1.808   0.008  0.00  0.00    -0.023 C 
ATOM      9  C   UNL     1      -0.012   1.075  -0.004  0.00  0.00    -0.030 C 
ATOM     10  C   UNL     1       1.222   1.956  -0.023  0.00  0.00    +0.033 C 
ATOM     11  C   UNL     1       0.689   3.311  -0.573  0.00  0.00    +0.029 C 
ATOM     12  C   UNL     1       0.640   3.196  -2.099  0.00  0.00    +0.105 C 
ATOM     13  N   UNL     1      -0.154   4.307  -2.634  0.00  0.00    -0.336 N 
ATOM     14  H   UNL     1       0.239   4.917  -3.460  0.00  0.00    +0.147 HD
ENDROOT
BRANCH  12  15
ATOM     15  C   UNL     1       0.001   1.887  -2.486  0.00  0.00    -0.025 A 
ATOM     16  C   UNL     1      -1.375   1.758  -2.468  0.00  0.00    +0.007 A 
ATOM     17  C   UNL     1      -1.962   0.558  -2.822  0.00  0.00    +0.022 A 
ATOM     18  C   UNL     1      -1.171  -0.514  -3.197  0.00  0.00    +0.071 A 
ATOM     19  C   UNL     1       0.206  -0.384  -3.215  0.00  0.00    +0.145 A 
ATOM     20  C   UNL     1       0.791   0.818  -2.865  0.00  0.00    +0.039 A 
ATOM     21 CL   UNL     1      -1.907  -2.022  -3.642  0.00  0.00    -0.081 Cl
BRANCH  19  22
ATOM     22  N   UNL     1       1.052  -1.530  -3.616  0.00  0.00    +0.058 N 
ATOM     23  O   UNL     1       2.265  -1.416  -3.632  0.00  0.00    -0.126 OA
ATOM     24  O   UNL     1       0.537  -2.588  -3.929  0.00  0.00    -0.126 OA
ENDBRANCH  19  22
ENDBRANCH  12  15
BRANCH   1  27
ATOM     25  C   UNL     1      -5.771   6.510  -0.657  0.00  0.00    +0.217 C 
ATOM     26  O   UNL     1      -5.272   7.311  -1.418  0.00  0.00    -0.275 OA
ATOM     27  N   UNL     1      -5.157   5.334  -0.419  0.00  0.00    -0.285 N 
ATOM     28  H   UNL     1      -5.646   4.576   0.211  0.00  0.00    +0.155 HD
BRANCH  25  29
ATOM     29  C   UNL     1      -7.077   6.829   0.024  0.00  0.00    +0.096 C 
BRANCH  29  31
ATOM     30  C   UNL     1      -8.882   8.538   0.275  0.00  0.00    +0.004 C 
ATOM     31  C   UNL     1      -7.556   8.214  -0.416  0.00  0.00    +0.006 C 
ENDBRANCH  29  31
ENDBRANCH  25  29
ENDBRANCH   1  27
TORSDOF 5
