REMARK  Name = ZINC47845418
REMARK  8 active torsions:
REMARK  status: ('A' for Active; 'I' for Inactive)
REMARK    1  A    between atoms: C_1  and  C_2
REMARK    2  A    between atoms: C_3  and  N_14
REMARK    3  A    between atoms: C_7  and  N_8
REMARK    4  A    between atoms: N_17  and  C_18
REMARK    5  A    between atoms: C_18  and  C_20
REMARK    6  A    between atoms: C_18  and  C_25
REMARK    7  A    between atoms: C_25  and  C_26
REMARK    8  A    between atoms: C_25  and  C_27
REMARK                            x       y       z     vdW  Elec       q    Type
REMARK                         _______ _______ _______ _____ _____    ______ ____
ROOT
ATOM      1  N   UNL     1      -0.010   0.011  -2.412  0.00  0.00    -0.269 N 
ATOM      2  C   UNL     1       0.095  -0.653  -3.580  0.00  0.00    +0.304 C 
ATOM      3  O   UNL     1       0.112  -1.869  -3.588  0.00  0.00    -0.252 OA
ATOM      4  N   UNL     1       0.182   0.030  -4.738  0.00  0.00    -0.292 N 
ATOM      5  H   UNL     1      -0.105   0.977  -2.410  0.00  0.00    +0.156 HD
ATOM      6  H   UNL     1       0.168   1.000  -4.732  0.00  0.00    +0.151 HD
ENDROOT
BRANCH   1   9
ATOM      7  C   UNL     1      -1.262   1.188  -0.145  0.00  0.00    +0.047 C 
ATOM      8  C   UNL     1      -0.580  -0.153  -0.072  0.00  0.00    -0.008 A 
ATOM      9  C   UNL     1       0.019  -0.692  -1.202  0.00  0.00    +0.039 A 
ATOM     10  C   UNL     1       0.647  -1.929  -1.131  0.00  0.00    +0.024 A 
ATOM     11  C   UNL     1       0.674  -2.623   0.062  0.00  0.00    +0.004 A 
ATOM     12  C   UNL     1       0.079  -2.091   1.189  0.00  0.00    +0.024 A 
ATOM     13  C   UNL     1      -0.545  -0.851   1.127  0.00  0.00    +0.041 A 
BRANCH  13  14
ATOM     14  N   UNL     1      -1.143  -0.309   2.270  0.00  0.00    -0.271 N 
ATOM     15  C   UNL     1      -2.538  -0.538   2.663  0.00  0.00    +0.114 C 
ATOM     16  C   UNL     1      -2.619  -0.133   4.151  0.00  0.00    +0.029 C 
ATOM     17  C   UNL     1      -1.456   0.879   4.266  0.00  0.00    +0.098 C 
ATOM     18  C   UNL     1      -0.511   0.484   3.153  0.00  0.00    +0.220 C 
ATOM     19  O   UNL     1       0.647   0.833   3.067  0.00  0.00    -0.275 OA
ENDBRANCH  13  14
ENDBRANCH   1   9
BRANCH   4  20
ATOM     20  C   UNL     1       0.296  -0.692  -6.008  0.00  0.00    +0.114 C 
BRANCH  20  21
ATOM     21  C   UNL     1      -0.226   0.173  -7.127  0.00  0.00    +0.010 A 
ATOM     22  C   UNL     1      -0.980  -0.179  -8.197  0.00  0.00    +0.013 A 
ATOM     23  C   UNL     1      -1.347   0.794  -9.107  0.00  0.00    +0.008 A 
ATOM     24  C   UNL     1      -0.942   2.072  -8.902  0.00  0.00    +0.045 A 
ATOM     25  S   UNL     1      -0.018   1.927  -7.382  0.00  0.00    -0.100 S 
ENDBRANCH  20  21
BRANCH  20  26
ATOM     26  C   UNL     1       1.764  -1.033  -6.270  0.00  0.00    +0.008 C 
ATOM     27  C   UNL     1       2.294  -1.911  -5.134  0.00  0.00    +0.009 C 
ATOM     28  C   UNL     1       1.884  -1.788  -7.596  0.00  0.00    +0.009 C 
ENDBRANCH  20  26
ENDBRANCH   4  20
TORSDOF 5
