REMARK  Name = ZINC34868719
REMARK  13 active torsions:
REMARK  status: ('A' for Active; 'I' for Inactive)
REMARK    1  A    between atoms: C_1  and  C_2
REMARK    2  A    between atoms: C_2  and  C_3
REMARK    3  A    between atoms: C_3  and  N_4
REMARK    4  A    between atoms: N_4  and  C_5
REMARK    5  A    between atoms: C_5  and  C_6
REMARK    6  A    between atoms: C_11  and  C_14
REMARK    7  A    between atoms: C_14  and  C_15
REMARK    8  A    between atoms: N_17  and  C_18
REMARK    9  A    between atoms: C_18  and  C_19
REMARK   10  A    between atoms: C_19  and  C_20
REMARK   11  A    between atoms: C_20  and  N_21
REMARK   12  A    between atoms: C_26  and  C_28
REMARK   13  A    between atoms: C_29  and  C_31
REMARK                            x       y       z     vdW  Elec       q    Type
REMARK                         _______ _______ _______ _____ _____    ______ ____
ROOT
ATOM      1  C   UNL     1      -1.495  -2.791   2.169  0.00  0.00    +0.236 C 
ATOM      2  O   UNL     1      -2.649  -2.553   1.884  0.00  0.00    -0.274 OA
ATOM      3  N   UNL     1      -1.196  -3.341   3.362  0.00  0.00    -0.263 N 
ATOM      4  C   UNL     1      -2.210  -3.635   4.266  0.00  0.00    +0.165 A 
ATOM      5  N   UNL     1      -2.108  -4.163   5.467  0.00  0.00    -0.229 NA
ATOM      6  C   UNL     1      -3.177  -4.383   6.209  0.00  0.00    +0.059 A 
ATOM      7  C   UNL     1      -4.377  -4.040   5.678  0.00  0.00    +0.072 A 
ATOM      8  S   UNL     1      -3.867  -3.396   4.093  0.00  0.00    -0.060 S 
ATOM      9  H   UNL     1      -0.272  -3.532   3.591  0.00  0.00    +0.157 HD
ENDROOT
BRANCH   1  10
ATOM     10  C   UNL     1      -0.395  -2.472   1.190  0.00  0.00    +0.204 C 
BRANCH  10  11
ATOM     11  N   UNL     1      -0.974  -1.887  -0.022  0.00  0.00    -0.289 N 
ATOM     12  C   UNL     1      -1.208  -2.661  -1.100  0.00  0.00    +0.247 C 
ATOM     13  O   UNL     1      -1.617  -2.162  -2.130  0.00  0.00    -0.270 OA
BRANCH  12  14
ATOM     14  C   UNL     1      -0.966  -4.118  -1.029  0.00  0.00    +0.037 A 
ATOM     15  C   UNL     1      -1.461  -4.859   0.045  0.00  0.00    +0.013 A 
ATOM     16  C   UNL     1      -1.232  -6.219   0.104  0.00  0.00    +0.001 A 
ATOM     17  C   UNL     1      -0.514  -6.847  -0.898  0.00  0.00    +0.000 A 
ATOM     18  C   UNL     1      -0.021  -6.118  -1.965  0.00  0.00    +0.001 A 
ATOM     19  C   UNL     1      -0.247  -4.759  -2.039  0.00  0.00    +0.013 A 
ENDBRANCH  12  14
BRANCH  11  20
ATOM     20  C   UNL     1      -1.300  -0.459  -0.062  0.00  0.00    +0.108 C 
BRANCH  20  22
ATOM     21  C   UNL     1      -0.395   1.829  -0.499  0.00  0.00    +0.005 C 
ATOM     22  C   UNL     1      -0.055   0.338  -0.458  0.00  0.00    +0.016 C 
ENDBRANCH  20  22
ENDBRANCH  11  20
ENDBRANCH  10  11
ENDBRANCH   1  10
BRANCH   6  23
ATOM     23  C   UNL     1      -3.070  -4.988   7.585  0.00  0.00    +0.151 C 
BRANCH  23  24
ATOM     24  C   UNL     1      -2.324  -6.295   7.502  0.00  0.00    +0.219 C 
ATOM     25  O   UNL     1      -1.921  -6.696   6.431  0.00  0.00    -0.275 OA
ATOM     26  N   UNL     1      -2.107  -7.018   8.618  0.00  0.00    -0.315 N 
ATOM     27  H   UNL     1      -2.430  -6.698   9.475  0.00  0.00    +0.149 HD
BRANCH  26  28
ATOM     28  C   UNL     1      -1.382  -8.289   8.538  0.00  0.00    +0.102 C 
BRANCH  28  29
ATOM     29  C   UNL     1      -1.273  -8.903   9.935  0.00  0.00    +0.000 C 
BRANCH  29  30
ATOM     30  C   UNL     1      -0.516 -10.230   9.851  0.00  0.00    -0.077 C 
BRANCH  30  31
ATOM     31  N   UNL     1      -0.412 -10.820  11.192  0.00  0.00    +0.381 N 
ATOM     32  C   UNL     1       0.407  -9.950  12.045  0.00  0.00    -0.078 C 
ATOM     33  C   UNL     1       0.453 -10.518  13.465  0.00  0.00    -0.019 C 
ATOM     34  C   UNL     1       1.064 -11.921  13.428  0.00  0.00    -0.003 C 
ATOM     35  C   UNL     1       0.245 -12.800  12.478  0.00  0.00    -0.016 C 
ATOM     36  C   UNL     1       0.207 -12.147  11.095  0.00  0.00    -0.072 C 
ATOM     37  C   UNL     1      -0.610 -13.022  10.141  0.00  0.00    -0.013 C 
ATOM     38  H   UNL     1      -1.333 -10.909  11.592  0.00  0.00    -0.081 HD
ENDBRANCH  30  31
ENDBRANCH  29  30
ENDBRANCH  28  29
ENDBRANCH  26  28
ENDBRANCH  23  24
ENDBRANCH   6  23
TORSDOF 11
