REMARK  Name = ZINC15859506
REMARK  6 active torsions:
REMARK  status: ('A' for Active; 'I' for Inactive)
REMARK    1  A    between atoms: C_1  and  C_2
REMARK    2  A    between atoms: C_7  and  C_9
REMARK    3  A    between atoms: C_7  and  C_16
REMARK    4  A    between atoms: C_7  and  N_60
REMARK    5  A    between atoms: C_17  and  N_25
REMARK    6  A    between atoms: C_26  and  C_28
REMARK                            x       y       z     vdW  Elec       q    Type
REMARK                         _______ _______ _______ _____ _____    ______ ____
ROOT
ATOM      1  C   UNL     1      -1.349   1.340  -3.389  0.00  0.00    +0.118 A 
ATOM      2  C   UNL     1      -1.613   0.639  -4.506  0.00  0.00    +0.082 A 
ATOM      3  C   UNL     1      -2.263   1.578  -5.433  0.00  0.00    +0.042 A 
ATOM      4  C   UNL     1      -2.771   1.474  -6.726  0.00  0.00    +0.013 A 
ATOM      5  C   UNL     1      -3.323   2.571  -7.328  0.00  0.00    +0.001 A 
ATOM      6  C   UNL     1      -3.381   3.784  -6.658  0.00  0.00    +0.004 A 
ATOM      7  C   UNL     1      -2.883   3.906  -5.379  0.00  0.00    +0.047 A 
ATOM      8  C   UNL     1      -2.317   2.804  -4.750  0.00  0.00    +0.137 A 
ATOM      9  O   UNL     1      -1.762   2.614  -3.536  0.00  0.00    -0.459 OA
ENDROOT
BRANCH   2  10
ATOM     10  N   UNL     1      -1.328  -0.717  -4.739  0.00  0.00    -0.278 N 
ATOM     11  C   UNL     1      -2.166  -1.463  -5.485  0.00  0.00    +0.248 C 
ATOM     12  O   UNL     1      -3.121  -0.943  -6.030  0.00  0.00    -0.270 OA
ATOM     13  H   UNL     1      -0.528  -1.116  -4.362  0.00  0.00    +0.155 HD
BRANCH  11  14
ATOM     14  C   UNL     1      -1.924  -2.913  -5.642  0.00  0.00    +0.037 A 
ATOM     15  C   UNL     1      -0.825  -3.511  -5.023  0.00  0.00    +0.013 A 
ATOM     16  C   UNL     1      -0.609  -4.865  -5.169  0.00  0.00    +0.001 A 
ATOM     17  C   UNL     1      -1.471  -5.629  -5.936  0.00  0.00    +0.000 A 
ATOM     18  C   UNL     1      -2.559  -5.041  -6.557  0.00  0.00    +0.001 A 
ATOM     19  C   UNL     1      -2.790  -3.688  -6.415  0.00  0.00    +0.013 A 
ENDBRANCH  11  14
ENDBRANCH   2  10
BRANCH   1  20
ATOM     20  C   UNL     1      -0.684   0.784  -2.156  0.00  0.00    +0.033 C 
BRANCH  20  27
ATOM     21  C   UNL     1      -3.516   1.897   2.682  0.00  0.00    +0.007 C 
ATOM     22  C   UNL     1      -2.871   1.176   1.497  0.00  0.00    -0.018 C 
ATOM     23  C   UNL     1      -3.486   1.688   0.191  0.00  0.00    -0.015 C 
ATOM     24  C   UNL     1      -2.795   1.008  -0.993  0.00  0.00    -0.077 C 
ATOM     25  C   UNL     1      -0.736   0.782   0.264  0.00  0.00    -0.077 C 
ATOM     26  C   UNL     1      -1.365   1.455   1.486  0.00  0.00    -0.015 C 
ATOM     27  N   UNL     1      -1.354   1.335  -0.960  0.00  0.00    +0.389 N 
ATOM     28  H   UNL     1      -1.244   2.356  -0.956  0.00  0.00    -0.080 HD
ENDBRANCH  20  27
BRANCH  20  29
ATOM     29  C   UNL     1       0.765   1.199  -2.138  0.00  0.00    -0.035 A 
ATOM     30  C   UNL     1       1.749   0.286  -2.469  0.00  0.00    +0.004 A 
ATOM     31  C   UNL     1       3.078   0.666  -2.451  0.00  0.00    +0.000 A 
ATOM     32  C   UNL     1       3.424   1.958  -2.103  0.00  0.00    +0.001 A 
ATOM     33  C   UNL     1       2.441   2.872  -1.772  0.00  0.00    +0.020 A 
ATOM     34  C   UNL     1       1.110   2.494  -1.794  0.00  0.00    +0.043 A 
ATOM     35 CL   UNL     1      -0.126   3.642  -1.386  0.00  0.00    -0.083 Cl
ENDBRANCH  20  29
ENDBRANCH   1  20
TORSDOF 5
