REMARK  Name = ZINC22145429
REMARK  6 active torsions:
REMARK  status: ('A' for Active; 'I' for Inactive)
REMARK    1  A    between atoms: C_1  and  C_2
REMARK    2  A    between atoms: C_2  and  C_4
REMARK    3  A    between atoms: C_2  and  S_20
REMARK    4  A    between atoms: C_10  and  C_15
REMARK    5  A    between atoms: S_20  and  C_21
REMARK    6  A    between atoms: C_24  and  C_26
REMARK                            x       y       z     vdW  Elec       q    Type
REMARK                         _______ _______ _______ _____ _____    ______ ____
ROOT
ATOM      1  C   UNL     1       0.731  -0.503   1.223  0.00  0.00    +0.124 A 
ATOM      2  N   UNL     1       2.053  -0.799   1.136  0.00  0.00    -0.309 N 
ATOM      3  H   UNL     1       2.511  -0.685   0.289  0.00  0.00    +0.170 HD
ATOM      4  C   UNL     1       2.741  -1.247   2.203  0.00  0.00    +0.260 A 
ATOM      5  O   UNL     1       3.928  -1.508   2.109  0.00  0.00    -0.267 OA
ATOM      6  C   UNL     1       2.058  -1.412   3.449  0.00  0.00    +0.080 A 
ATOM      7  C   UNL     1       2.576  -1.876   4.732  0.00  0.00    +0.010 A 
ATOM      8  C   UNL     1       1.728  -1.950   5.788  0.00  0.00    +0.057 A 
ATOM      9  S   UNL     1       0.175  -1.397   5.111  0.00  0.00    -0.076 S 
ATOM     10  C   UNL     1       0.693  -1.081   3.443  0.00  0.00    +0.116 A 
ATOM     11  N   UNL     1       0.081  -0.639   2.348  0.00  0.00    -0.225 NA
ENDROOT
BRANCH   7  12
ATOM     12  C   UNL     1       3.997  -2.257   4.877  0.00  0.00    +0.021 A 
ATOM     13  C   UNL     1       4.902  -1.865   5.826  0.00  0.00    +0.016 A 
ATOM     14  C   UNL     1       6.188  -2.359   5.758  0.00  0.00    +0.008 A 
ATOM     15  C   UNL     1       6.516  -3.214   4.756  0.00  0.00    +0.046 A 
ATOM     16  S   UNL     1       4.976  -3.355   3.865  0.00  0.00    -0.097 S 
ENDBRANCH   7  12
BRANCH   1  18
ATOM     17  C   UNL     1      -0.019   1.526   0.010  0.00  0.00    +0.027 C 
ATOM     18  C   UNL     1       0.002  -0.004   0.002  0.00  0.00    +0.119 C 
BRANCH  18  19
ATOM     19  S   UNL     1      -1.700  -0.632   0.015  0.00  0.00    -0.055 S 
BRANCH  19  20
ATOM     20  C   UNL     1      -2.365  -0.093  -1.525  0.00  0.00    +0.278 A 
ATOM     21  N   UNL     1      -1.732   0.597  -2.445  0.00  0.00    -0.101 NA
ATOM     22  N   UNL     1      -2.521   0.815  -3.437  0.00  0.00    -0.103 NA
ATOM     23  C   UNL     1      -3.691   0.271  -3.191  0.00  0.00    +0.284 A 
ATOM     24  O   UNL     1      -3.613  -0.320  -1.977  0.00  0.00    -0.408 OA
BRANCH  23  25
ATOM     25  C   UNL     1      -4.866   0.295  -4.074  0.00  0.00    +0.191 A 
ATOM     26  C   UNL     1      -4.932   0.884  -5.302  0.00  0.00    +0.055 A 
ATOM     27  C   UNL     1      -6.236   0.664  -5.787  0.00  0.00    +0.042 A 
ATOM     28  C   UNL     1      -6.895  -0.039  -4.844  0.00  0.00    +0.196 A 
ATOM     29  O   UNL     1      -6.064  -0.265  -3.814  0.00  0.00    -0.458 OA
ENDBRANCH  23  25
ENDBRANCH  19  20
ENDBRANCH  18  19
ENDBRANCH   1  18
TORSDOF 5
