REMARK  Name = ZINC63694438
REMARK  9 active torsions:
REMARK  status: ('A' for Active; 'I' for Inactive)
REMARK    1  A    between atoms: C_4  and  N_7
REMARK    2  A    between atoms: N_10  and  C_13
REMARK    3  A    between atoms: C_13  and  C_15
REMARK    4  A    between atoms: C_13  and  C_33
REMARK    5  A    between atoms: C_15  and  N_16
REMARK    6  A    between atoms: C_17  and  C_19
REMARK    7  A    between atoms: N_21  and  C_22
REMARK    8  A    between atoms: C_22  and  C_23
REMARK    9  A    between atoms: C_23  and  C_24
REMARK                            x       y       z     vdW  Elec       q    Type
REMARK                         _______ _______ _______ _____ _____    ______ ____
ROOT
ATOM      1  N   UNL     1       7.430  -4.179  -0.292  0.00  0.00    -0.306 N 
ATOM      2  C   UNL     1       7.681  -5.394   0.236  0.00  0.00    +0.299 C 
ATOM      3  O   UNL     1       7.530  -6.391  -0.439  0.00  0.00    -0.265 OA
ATOM      4  H   UNL     1       7.551  -3.382   0.247  0.00  0.00    +0.149 HD
ENDROOT
BRANCH   2   5
ATOM      5  C   UNL     1       8.145  -5.512   1.651  0.00  0.00    +0.299 C 
ATOM      6  O   UNL     1       8.296  -4.515   2.326  0.00  0.00    -0.265 OA
ATOM      7  N   UNL     1       8.396  -6.727   2.179  0.00  0.00    -0.307 N 
ATOM      8  H   UNL     1       8.275  -7.524   1.640  0.00  0.00    +0.149 HD
BRANCH   7   9
ATOM      9  C   UNL     1       8.851  -6.843   3.567  0.00  0.00    +0.109 C 
BRANCH   9  10
ATOM     10  C   UNL     1       9.061  -8.318   3.913  0.00  0.00    +0.052 C 
BRANCH  10  11
ATOM     11  C   UNL     1       9.529  -8.438   5.340  0.00  0.00    -0.040 C 
ATOM     12  C   UNL     1       8.763  -8.669   6.431  0.00  0.00    -0.001 A 
ATOM     13  C   UNL     1       7.320  -8.870   6.607  0.00  0.00    +0.010 A 
ATOM     14  C   UNL     1       6.835  -9.085   7.852  0.00  0.00    +0.001 A 
ATOM     15  C   UNL     1       7.674  -9.120   8.974  0.00  0.00    +0.002 A 
ATOM     16  C   UNL     1       9.010  -8.944   8.891  0.00  0.00    +0.026 A 
ATOM     17  C   UNL     1       9.628  -8.711   7.632  0.00  0.00    +0.043 A 
ATOM     18  N   UNL     1      10.880  -8.513   7.297  0.00  0.00    -0.380 N 
ATOM     19  C   UNL     1      10.951  -8.329   5.843  0.00  0.00    +0.144 C 
ATOM     20  H   UNL     1      11.633  -8.496   7.907  0.00  0.00    +0.160 HD
ENDBRANCH  10  11
ENDBRANCH   9  10
ENDBRANCH   7   9
ENDBRANCH   2   5
BRANCH   1  21
ATOM     21  C   UNL     1       6.975  -4.064  -1.680  0.00  0.00    +0.131 C 
BRANCH  21  22
ATOM     22  C   UNL     1       6.766  -2.588  -2.026  0.00  0.00    +0.140 C 
BRANCH  22  26
ATOM     23  N   UNL     1       3.620  -0.649  -0.036  0.00  0.00    -0.327 N 
ATOM     24  C   UNL     1       4.891   0.083  -0.149  0.00  0.00    +0.120 C 
ATOM     25  C   UNL     1       5.711  -0.538  -1.285  0.00  0.00    +0.104 C 
ATOM     26  N   UNL     1       5.844  -1.983  -1.055  0.00  0.00    -0.288 NA
ATOM     27  C   UNL     1       4.536  -2.651  -1.085  0.00  0.00    +0.104 C 
ATOM     28  C   UNL     1       3.668  -2.116   0.065  0.00  0.00    +0.120 C 
BRANCH  23  32
ATOM     29  C   UNL     1      -0.017   1.379   0.011  0.00  0.00    +0.000 A 
ATOM     30  C   UNL     1       0.002  -0.004  -0.011  0.00  0.00    +0.002 A 
ATOM     31  C   UNL     1       1.206  -0.680  -0.027  0.00  0.00    +0.023 A 
ATOM     32  C   UNL     1       2.400   0.031  -0.021  0.00  0.00    +0.030 A 
ATOM     33  C   UNL     1       2.377   1.420   0.002  0.00  0.00    +0.023 A 
ATOM     34  C   UNL     1       1.170   2.089   0.018  0.00  0.00    +0.002 A 
ENDBRANCH  23  32
ENDBRANCH  22  26
BRANCH  22  35
ATOM     35  C   UNL     1       6.181  -2.475  -3.411  0.00  0.00    +0.123 A 
ATOM     36  C   UNL     1       6.866  -2.189  -4.532  0.00  0.00    +0.046 A 
ATOM     37  C   UNL     1       5.931  -2.184  -5.593  0.00  0.00    +0.041 A 
ATOM     38  C   UNL     1       4.731  -2.468  -5.056  0.00  0.00    +0.195 A 
ATOM     39  O   UNL     1       4.889  -2.649  -3.735  0.00  0.00    -0.466 OA
ENDBRANCH  22  35
ENDBRANCH  21  22
ENDBRANCH   1  21
TORSDOF 9
