REMARK  Name = ZINC55335963
REMARK  4 active torsions:
REMARK  status: ('A' for Active; 'I' for Inactive)
REMARK    1  A    between atoms: C_5  and  C_7
REMARK    2  A    between atoms: C_7  and  C_8
REMARK    3  A    between atoms: C_12  and  N_14
REMARK    4  A    between atoms: N_14  and  N_15
REMARK                            x       y       z     vdW  Elec       q    Type
REMARK                         _______ _______ _______ _____ _____    ______ ____
ROOT
ATOM      1  C   UNL     1       1.373  -2.695   1.389  0.00  0.00    +0.136 A 
ATOM      2  N   UNL     1       2.579  -2.890   1.880  0.00  0.00    -0.236 NA
ATOM      3  C   UNL     1       2.756  -3.335   3.121  0.00  0.00    +0.050 A 
ATOM      4  C   UNL     1       1.654  -3.591   3.899  0.00  0.00    +0.015 A 
ATOM      5  C   UNL     1       0.385  -3.377   3.347  0.00  0.00    +0.139 A 
ATOM      6  N   UNL     1       0.289  -2.927   2.101  0.00  0.00    -0.216 NA
ATOM      7  C   UNL     1       1.751  -4.082   5.317  0.00  0.00    +0.040 C 
ATOM      8  C   UNL     1       3.143  -4.653   5.590  0.00  0.00    +0.005 C 
ATOM      9  C   UNL     1       4.186  -3.624   5.140  0.00  0.00    +0.006 C 
ATOM     10  C   UNL     1       4.162  -3.543   3.615  0.00  0.00    +0.056 C 
ENDROOT
BRANCH   5  11
ATOM     11  N   UNL     1      -0.756  -3.627   4.093  0.00  0.00    -0.267 N 
ATOM     12  H   UNL     1      -0.679  -3.953   5.003  0.00  0.00    +0.167 HD
BRANCH  11  13
ATOM     13  N   UNL     1      -1.990  -3.416   3.546  0.00  0.00    -0.255 NA
ATOM     14  H   UNL     1      -2.100  -3.939   2.690  0.00  0.00    +0.140 HD
ATOM     15  H   UNL     1      -2.721  -3.640   4.204  0.00  0.00    +0.140 HD
ENDBRANCH  11  13
ENDBRANCH   5  11
BRANCH   1  16
ATOM     16  C   UNL     1       1.229  -2.186  -0.022  0.00  0.00    +0.112 C 
BRANCH  16  21
ATOM     17  C   UNL     1      -0.017   1.378   0.010  0.00  0.00    +0.000 A 
ATOM     18  C   UNL     1       1.171   2.086   0.002  0.00  0.00    +0.001 A 
ATOM     19  C   UNL     1       2.377   1.412  -0.013  0.00  0.00    +0.015 A 
ATOM     20  C   UNL     1       2.397   0.029  -0.021  0.00  0.00    +0.021 A 
ATOM     21  C   UNL     1       1.208  -0.679  -0.013  0.00  0.00    -0.026 A 
ATOM     22  C   UNL     1       0.002  -0.004   0.002  0.00  0.00    +0.005 A 
ATOM     23 BR   UNL     1       4.047  -0.894  -0.042  0.00  0.00    -0.050 Br
ENDBRANCH  16  21
ENDBRANCH   1  16
TORSDOF 4
