REMARK  Name = ZINC24656496
REMARK  7 active torsions:
REMARK  status: ('A' for Active; 'I' for Inactive)
REMARK    1  A    between atoms: C_1  and  C_2
REMARK    2  A    between atoms: C_2  and  C_3
REMARK    3  A    between atoms: C_3  and  N_4
REMARK    4  A    between atoms: N_16  and  C_19
REMARK    5  A    between atoms: C_19  and  N_20
REMARK    6  A    between atoms: N_20  and  C_21
REMARK    7  A    between atoms: N_20  and  C_26
REMARK                            x       y       z     vdW  Elec       q    Type
REMARK                         _______ _______ _______ _____ _____    ______ ____
ROOT
ATOM      1  N   UNL     1       2.209  -1.046   1.928  0.00  0.00    -0.277 N 
ATOM      2  C   UNL     1       1.109  -0.435   2.411  0.00  0.00    +0.263 A 
ATOM      3  O   UNL     1       0.172  -1.088   2.829  0.00  0.00    -0.267 OA
ATOM      4  C   UNL     1       1.060   1.039   2.426  0.00  0.00    +0.064 A 
ATOM      5  C   UNL     1      -0.051   1.720   2.921  0.00  0.00    +0.015 A 
ATOM      6  C   UNL     1      -0.064   3.099   2.914  0.00  0.00    +0.001 A 
ATOM      7  C   UNL     1       1.024   3.807   2.430  0.00  0.00    +0.002 A 
ATOM      8  C   UNL     1       2.133   3.144   1.942  0.00  0.00    +0.027 A 
ATOM      9  C   UNL     1       2.161   1.758   1.936  0.00  0.00    +0.064 A 
ATOM     10  N   UNL     1       3.268   1.065   1.449  0.00  0.00    -0.257 N 
ATOM     11  C   UNL     1       3.285  -0.312   1.448  0.00  0.00    +0.238 A 
ATOM     12  N   UNL     1       4.423  -0.709   0.947  0.00  0.00    -0.133 NA
ATOM     13  N   UNL     1       5.172   0.426   0.610  0.00  0.00    -0.255 N 
ATOM     14  C   UNL     1       4.433   1.507   0.932  0.00  0.00    +0.182 A 
ATOM     15  S   UNL     1       4.891   3.143   0.722  0.00  0.00    -0.011 S 
ENDROOT
BRANCH   1  16
ATOM     16  C   UNL     1       2.269  -2.510   1.908  0.00  0.00    +0.128 C 
BRANCH  16  18
ATOM     17  C   UNL     1       1.770  -4.554   0.560  0.00  0.00    +0.005 C 
ATOM     18  C   UNL     1       1.707  -3.025   0.581  0.00  0.00    +0.018 C 
ENDBRANCH  16  18
ENDBRANCH   1  16
BRANCH  13  19
ATOM     19  C   UNL     1       6.511   0.436   0.017  0.00  0.00    +0.072 C 
BRANCH  19  20
ATOM     20  N   UNL     1       6.402   0.622  -1.436  0.00  0.00    +0.396 N 
ATOM     21  H   UNL     1       5.705   1.452  -1.619  0.00  0.00    -0.078 HD
BRANCH  20  22
ATOM     22  C   UNL     1       5.853  -0.579  -2.080  0.00  0.00    -0.066 C 
ATOM     23  C   UNL     1       6.060  -0.500  -3.607  0.00  0.00    -0.015 C 
ATOM     24  C   UNL     1       4.774  -1.132  -4.197  0.00  0.00    -0.002 C 
ATOM     25  C   UNL     1       3.671  -0.620  -3.238  0.00  0.00    -0.002 C 
ATOM     26  C   UNL     1       4.334  -0.655  -1.846  0.00  0.00    -0.015 C 
ENDBRANCH  20  22
BRANCH  20  27
ATOM     27  C   UNL     1       7.700   0.985  -2.019  0.00  0.00    -0.066 C 
ATOM     28  C   UNL     1       8.931   0.896  -1.115  0.00  0.00    -0.017 C 
ATOM     29  C   UNL     1       8.370   2.264  -1.512  0.00  0.00    -0.017 C 
ENDBRANCH  20  27
ENDBRANCH  19  20
ENDBRANCH  13  19
TORSDOF 6
