REMARK  Name = ZINC08194907
REMARK  8 active torsions:
REMARK  status: ('A' for Active; 'I' for Inactive)
REMARK    1  A    between atoms: C_1  and  C_2
REMARK    2  A    between atoms: C_2  and  C_4
REMARK    3  A    between atoms: C_2  and  O_7
REMARK    4  A    between atoms: O_7  and  C_8
REMARK    5  A    between atoms: C_8  and  C_10
REMARK    6  A    between atoms: C_24  and  C_25
REMARK    7  A    between atoms: C_28  and  O_31
REMARK    8  A    between atoms: O_31  and  C_32
REMARK                            x       y       z     vdW  Elec       q    Type
REMARK                         _______ _______ _______ _____ _____    ______ ____
ROOT
ATOM      1  C   UNL     1       8.500  -0.618  -0.768  0.00  0.00    +0.073 A 
ATOM      2  C   UNL     1       8.520  -2.058  -0.510  0.00  0.00    +0.015 A 
ATOM      3  C   UNL     1       9.699  -2.803  -0.614  0.00  0.00    +0.011 A 
ATOM      4  C   UNL     1       9.673  -4.144  -0.363  0.00  0.00    +0.001 A 
ATOM      5  C   UNL     1       8.487  -4.780  -0.005  0.00  0.00    +0.002 A 
ATOM      6  C   UNL     1       7.322  -4.085   0.105  0.00  0.00    +0.028 A 
ATOM      7  C   UNL     1       7.310  -2.700  -0.146  0.00  0.00    +0.072 A 
ATOM      8  N   UNL     1       6.185  -1.992  -0.049  0.00  0.00    -0.247 NA
ATOM      9  C   UNL     1       6.140  -0.690  -0.277  0.00  0.00    +0.072 A 
ATOM     10  C   UNL     1       7.285   0.042  -0.639  0.00  0.00    -0.007 A 
ATOM     11  C   UNL     1       7.235   1.524  -0.887  0.00  0.00    +0.038 C 
ATOM     12  C   UNL     1       5.821   1.979  -1.239  0.00  0.00    +0.009 C 
ATOM     13  C   UNL     1       4.852   1.521  -0.147  0.00  0.00    +0.037 C 
ATOM     14  C   UNL     1       4.841   0.008  -0.147  0.00  0.00    -0.021 C 
ATOM     15  C   UNL     1       3.691  -0.679  -0.038  0.00  0.00    +0.013 C 
ENDROOT
BRANCH  15  16
ATOM     16  C   UNL     1       2.435   0.030   0.260  0.00  0.00    -0.024 A 
ATOM     17  C   UNL     1       1.225  -0.436  -0.263  0.00  0.00    +0.011 A 
ATOM     18  C   UNL     1       0.053   0.231   0.019  0.00  0.00    +0.046 A 
ATOM     19  C   UNL     1       0.072   1.365   0.821  0.00  0.00    +0.120 A 
ATOM     20  C   UNL     1       1.273   1.832   1.343  0.00  0.00    +0.046 A 
ATOM     21  C   UNL     1       2.450   1.172   1.067  0.00  0.00    +0.011 A 
BRANCH  19  22
ATOM     22  O   UNL     1      -1.085   2.023   1.091  0.00  0.00    -0.495 OA
ATOM     23  C   UNL     1      -0.993   3.182   1.922  0.00  0.00    +0.277 C 
ENDBRANCH  19  22
ENDBRANCH  15  16
BRANCH   1  24
ATOM     24  C   UNL     1       9.728   0.108  -1.152  0.00  0.00    +0.341 C 
ATOM     25  O   UNL     1      10.441   0.591  -0.295  0.00  0.00    -0.245 OA
BRANCH  24  26
ATOM     26  O   UNL     1      10.058   0.235  -2.452  0.00  0.00    -0.449 OA
BRANCH  26  28
ATOM     27  C   UNL     1      10.957   2.446  -2.932  0.00  0.00    +0.062 C 
ATOM     28  C   UNL     1      11.278   0.961  -2.756  0.00  0.00    +0.259 C 
BRANCH  28  29
ATOM     29  C   UNL     1      11.880   0.422  -4.028  0.00  0.00    +0.251 C 
ATOM     30  O   UNL     1      11.289  -0.421  -4.669  0.00  0.00    -0.272 OA
ATOM     31  N   UNL     1      13.075   0.877  -4.453  0.00  0.00    -0.326 N 
ATOM     32  H   UNL     1      13.548   1.552  -3.941  0.00  0.00    +0.145 HD
ATOM     33  H   UNL     1      13.463   0.530  -5.272  0.00  0.00    +0.145 HD
ENDBRANCH  28  29
ENDBRANCH  26  28
ENDBRANCH  24  26
ENDBRANCH   1  24
TORSDOF 6
