REMARK  Name = ZINC07027886
REMARK  6 active torsions:
REMARK  status: ('A' for Active; 'I' for Inactive)
REMARK    1  A    between atoms: C_1  and  C_2
REMARK    2  A    between atoms: N_4  and  C_5
REMARK    3  A    between atoms: C_8  and  S_11
REMARK    4  A    between atoms: S_11  and  C_12
REMARK    5  A    between atoms: C_12  and  C_13
REMARK    6  A    between atoms: C_22  and  O_24
REMARK                            x       y       z     vdW  Elec       q    Type
REMARK                         _______ _______ _______ _____ _____    ______ ____
ROOT
ATOM      1  C   UNL     1      -4.597   5.727   0.047  0.00  0.00    +0.110 C 
ENDROOT
BRANCH   1   2
ATOM      2  C   UNL     1      -5.813   6.616   0.079  0.00  0.00    -0.020 A 
ATOM      3  C   UNL     1      -6.296   7.095   1.254  0.00  0.00    +0.097 A 
ATOM      4  C   UNL     1      -7.436   7.925   1.258  0.00  0.00    +0.338 A 
ATOM      5  O   UNL     1      -7.859   8.348   2.319  0.00  0.00    -0.245 OA
ATOM      6  O   UNL     1      -8.068   8.261   0.122  0.00  0.00    -0.422 OA
ATOM      7  C   UNL     1      -7.639   7.819  -1.080  0.00  0.00    +0.143 A 
ATOM      8  C   UNL     1      -6.503   6.991  -1.157  0.00  0.00    +0.022 A 
ATOM      9  C   UNL     1      -6.060   6.525  -2.400  0.00  0.00    +0.015 A 
ATOM     10  C   UNL     1      -6.724   6.886  -3.536  0.00  0.00    +0.046 A 
ATOM     11  C   UNL     1      -7.846   7.709  -3.466  0.00  0.00    +0.120 A 
ATOM     12  C   UNL     1      -8.303   8.175  -2.244  0.00  0.00    +0.092 A 
BRANCH  11  13
ATOM     13  O   UNL     1      -8.497   8.059  -4.605  0.00  0.00    -0.507 OA
ATOM     14  H   UNL     1      -8.167   8.872  -5.013  0.00  0.00    +0.292 HD
ENDBRANCH  11  13
ENDBRANCH   1   2
BRANCH   1  15
ATOM     15  S   UNL     1      -5.111   3.993   0.184  0.00  0.00    -0.120 S 
BRANCH  15  19
ATOM     16  C   UNL     1      -1.216   1.681   0.049  0.00  0.00    +0.033 A 
ATOM     17  C   UNL     1      -1.203   3.067  -0.028  0.00  0.00    +0.024 A 
ATOM     18  C   UNL     1      -2.390   3.772   0.009  0.00  0.00    +0.016 A 
ATOM     19  C   UNL     1      -3.596   3.094   0.132  0.00  0.00    +0.008 A 
ATOM     20  C   UNL     1      -3.608   1.707   0.214  0.00  0.00    +0.016 A 
ATOM     21  C   UNL     1      -2.421   1.003   0.173  0.00  0.00    +0.024 A 
BRANCH  16  25
ATOM     22  C   UNL     1       1.353  -0.962  -0.730  0.00  0.00    +0.109 C 
ATOM     23  C   UNL     1       0.038  -0.237  -0.599  0.00  0.00    +0.214 C 
ATOM     24  O   UNL     1      -0.976  -0.736  -1.039  0.00  0.00    -0.276 OA
ATOM     25  N   UNL     1      -0.011   0.966   0.007  0.00  0.00    -0.286 N 
ATOM     26  H   UNL     1       0.786   1.335   0.418  0.00  0.00    +0.155 HD
ENDBRANCH  16  25
ENDBRANCH  15  19
ENDBRANCH   1  15
TORSDOF 5
