REMARK  Name = ZINC35919744
REMARK  5 active torsions:
REMARK  status: ('A' for Active; 'I' for Inactive)
REMARK    1  A    between atoms: C_1  and  C_2
REMARK    2  A    between atoms: C_2  and  N_3
REMARK    3  A    between atoms: N_3  and  C_4
REMARK    4  A    between atoms: N_14  and  C_17
REMARK    5  A    between atoms: C_28  and  C_30
REMARK                            x       y       z     vdW  Elec       q    Type
REMARK                         _______ _______ _______ _____ _____    ______ ____
ROOT
ATOM      1  N   UNL     1      -1.360  -0.538   0.014  0.00  0.00    -0.318 N 
ATOM      2  C   UNL     1      -1.453   0.777  -0.625  0.00  0.00    +0.130 C 
ATOM      3  C   UNL     1      -2.005  -0.771   1.218  0.00  0.00    +0.131 A 
ATOM      4  C   UNL     1      -3.282  -1.344   1.238  0.00  0.00    +0.029 A 
ATOM      5  C   UNL     1      -3.886  -1.565   2.451  0.00  0.00    +0.028 A 
ATOM      6  N   UNL     1      -3.243  -1.213   3.563  0.00  0.00    -0.331 N 
ATOM      7  C   UNL     1      -2.038  -0.671   3.516  0.00  0.00    +0.198 A 
ATOM      8  N   UNL     1      -1.417  -0.457   2.366  0.00  0.00    -0.201 NA
ATOM      9  N   UNL     1      -1.408  -0.324   4.699  0.00  0.00    -0.298 N 
ATOM     10  C   UNL     1      -2.006  -0.671   5.995  0.00  0.00    +0.127 C 
ATOM     11  C   UNL     1      -0.981  -1.469   6.810  0.00  0.00    +0.124 C 
ATOM     12  N   UNL     1       0.299  -0.747   6.792  0.00  0.00    -0.325 N 
ATOM     13  C   UNL     1       0.897  -0.400   5.495  0.00  0.00    +0.124 C 
ATOM     14  C   UNL     1      -0.125   0.394   4.680  0.00  0.00    +0.127 C 
ATOM     15  C   UNL     1      -5.242  -2.203   2.584  0.00  0.00    +0.072 C 
ATOM     16  C   UNL     1      -6.021  -2.099   1.274  0.00  0.00    +0.114 C 
ATOM     17  N   UNL     1      -5.128  -2.513   0.179  0.00  0.00    -0.293 N 
ATOM     18  C   UNL     1      -3.940  -1.688  -0.071  0.00  0.00    +0.148 C 
ATOM     19  C   UNL     1      -5.392  -3.606  -0.565  0.00  0.00    +0.252 C 
ATOM     20  O   UNL     1      -4.638  -3.925  -1.464  0.00  0.00    -0.270 OA
ATOM     21  H   UNL     1      -3.667  -1.358   4.423  0.00  0.00    +0.168 HD
ENDROOT
BRANCH  19  22
ATOM     22  C   UNL     1      -6.594  -4.414  -0.288  0.00  0.00    +0.107 A 
ATOM     23  C   UNL     1      -7.801  -4.124  -0.934  0.00  0.00    +0.138 A 
ATOM     24  C   UNL     1      -8.923  -4.887  -0.669  0.00  0.00    +0.039 A 
ATOM     25  C   UNL     1      -8.855  -5.934   0.232  0.00  0.00    +0.006 A 
ATOM     26  C   UNL     1      -7.666  -6.227   0.875  0.00  0.00    +0.039 A 
ATOM     27  C   UNL     1      -6.533  -5.479   0.617  0.00  0.00    +0.138 A 
ATOM     28  F   UNL     1      -5.372  -5.770   1.243  0.00  0.00    -0.205 F 
ATOM     29  F   UNL     1      -7.870  -3.101  -1.814  0.00  0.00    -0.205 F 
ENDBRANCH  19  22
BRANCH  12  30
ATOM     30  C   UNL     1       0.935  -0.396   7.986  0.00  0.00    +0.065 A 
ATOM     31  C   UNL     1       1.847  -1.265   8.570  0.00  0.00    +0.026 A 
ATOM     32  C   UNL     1       2.474  -0.915   9.750  0.00  0.00    +0.002 A 
ATOM     33  C   UNL     1       2.196   0.298  10.351  0.00  0.00    +0.003 A 
ATOM     34  C   UNL     1       1.288   1.168   9.773  0.00  0.00    +0.040 A 
ATOM     35  C   UNL     1       0.661   0.827   8.589  0.00  0.00    +0.144 A 
ATOM     36  F   UNL     1      -0.221   1.679   8.021  0.00  0.00    -0.204 F 
ENDBRANCH  12  30
BRANCH   1  38
ATOM     37  C   UNL     1       0.863  -1.550  -0.128  0.00  0.00    +0.024 C 
ATOM     38  C   UNL     1      -0.585  -1.607  -0.621  0.00  0.00    +0.103 C 
ENDBRANCH   1  38
TORSDOF 3
