REMARK  Name = ZINC11996366
REMARK  7 active torsions:
REMARK  status: ('A' for Active; 'I' for Inactive)
REMARK    1  A    between atoms: C_1  and  C_2
REMARK    2  A    between atoms: C_2  and  N_56
REMARK    3  A    between atoms: C_6  and  C_8
REMARK    4  A    between atoms: C_8  and  N_9
REMARK    5  A    between atoms: C_10  and  C_12
REMARK    6  A    between atoms: C_16  and  C_17
REMARK    7  A    between atoms: C_24  and  C_26
REMARK                            x       y       z     vdW  Elec       q    Type
REMARK                         _______ _______ _______ _____ _____    ______ ____
ROOT
ATOM      1  C   UNL     1       0.373  -4.137   0.473  0.00  0.00    +0.078 A 
ATOM      2  C   UNL     1       1.785  -4.112   0.397  0.00  0.00    +0.148 A 
ATOM      3  N   UNL     1       2.163  -2.868   0.292  0.00  0.00    -0.171 NA
ATOM      4  N   UNL     1       1.029  -2.048   0.295  0.00  0.00    -0.201 N 
ATOM      5  C   UNL     1      -0.062  -2.829   0.411  0.00  0.00    +0.063 A 
ATOM      6  C   UNL     1       1.029  -0.656   0.200  0.00  0.00    +0.252 A 
ATOM      7  N   UNL     1      -0.127  -0.014   0.147  0.00  0.00    -0.219 NA
ATOM      8  C   UNL     1      -0.172   1.307   0.056  0.00  0.00    +0.117 A 
ATOM      9  C   UNL     1       1.010   2.023   0.018  0.00  0.00    +0.051 A 
ATOM     10  C   UNL     1       2.218   1.317   0.076  0.00  0.00    +0.111 A 
ATOM     11  N   UNL     1       2.184  -0.014   0.166  0.00  0.00    -0.208 NA
ENDROOT
BRANCH  10  12
ATOM     12  C   UNL     1       3.508   2.033   0.037  0.00  0.00    +0.153 A 
ATOM     13  C   UNL     1       4.741   1.460   0.092  0.00  0.00    +0.051 A 
ATOM     14  C   UNL     1       5.678   2.509   0.024  0.00  0.00    +0.042 A 
ATOM     15  C   UNL     1       4.979   3.659  -0.060  0.00  0.00    +0.196 A 
ATOM     16  O   UNL     1       3.669   3.367  -0.052  0.00  0.00    -0.461 OA
ENDBRANCH  10  12
BRANCH   1  18
ATOM     17  N   UNL     1       0.090  -6.559   0.654  0.00  0.00    -0.313 N 
ATOM     18  C   UNL     1      -0.475  -5.336   0.600  0.00  0.00    +0.247 C 
ATOM     19  O   UNL     1      -1.684  -5.222   0.657  0.00  0.00    -0.270 OA
ATOM     20  H   UNL     1       1.055  -6.649   0.610  0.00  0.00    +0.149 HD
BRANCH  17  21
ATOM     21  C   UNL     1      -0.753  -7.750   0.781  0.00  0.00    +0.089 C 
BRANCH  21  25
ATOM     22  C   UNL     1       0.202 -11.318   0.699  0.00  0.00    -0.078 C 
ATOM     23  C   UNL     1       0.997 -10.767  -0.504  0.00  0.00    -0.020 C 
ATOM     24  C   UNL     1       0.952  -9.233  -0.345  0.00  0.00    -0.016 C 
ATOM     25  C   UNL     1       0.133  -8.987   0.941  0.00  0.00    -0.051 C 
ATOM     26  N   UNL     1      -0.670 -10.207   1.075  0.00  0.00    +0.382 N 
ATOM     27  H   UNL     1      -1.479 -10.167   0.444  0.00  0.00    -0.081 HD
BRANCH  26  29
ATOM     28  C   UNL     1      -2.299 -11.375   2.537  0.00  0.00    -0.017 C 
ATOM     29  C   UNL     1      -1.154 -10.361   2.485  0.00  0.00    -0.082 C 
ENDBRANCH  26  29
ENDBRANCH  21  25
ENDBRANCH  17  21
ENDBRANCH   1  18
BRANCH   5  30
ATOM     30  C   UNL     1      -1.493  -2.361   0.461  0.00  0.00    +0.039 C 
ATOM     31  C   UNL     1      -2.496  -3.056  -0.462  0.00  0.00    +0.010 C 
ATOM     32  C   UNL     1      -2.040  -1.626  -0.765  0.00  0.00    +0.010 C 
ENDBRANCH   5  30
TORSDOF 6
