REMARK  Name = ZINC41586211
REMARK  9 active torsions:
REMARK  status: ('A' for Active; 'I' for Inactive)
REMARK    1  A    between atoms: C_1  and  C_2
REMARK    2  A    between atoms: C_2  and  O_3
REMARK    3  A    between atoms: O_3  and  C_4
REMARK    4  A    between atoms: C_4  and  C_6
REMARK    5  A    between atoms: N_9  and  C_12
REMARK    6  A    between atoms: C_12  and  C_13
REMARK    7  A    between atoms: C_14  and  O_31
REMARK    8  A    between atoms: C_21  and  C_22
REMARK    9  A    between atoms: C_25  and  C_28
REMARK                            x       y       z     vdW  Elec       q    Type
REMARK                         _______ _______ _______ _____ _____    ______ ____
ROOT
ATOM      1  C   UNL     1      -5.898  -6.248   1.594  0.00  0.00    +0.020 A 
ATOM      2  C   UNL     1      -6.112  -7.048   0.482  0.00  0.00    +0.122 A 
ATOM      3  C   UNL     1      -6.326  -8.416   0.625  0.00  0.00    +0.046 A 
ATOM      4  C   UNL     1      -6.327  -8.984   1.867  0.00  0.00    +0.019 A 
ATOM      5  C   UNL     1      -6.113  -8.191   2.995  0.00  0.00    +0.068 A 
ATOM      6  C   UNL     1      -5.891  -6.811   2.864  0.00  0.00    +0.144 A 
ATOM      7  O   UNL     1      -5.704  -6.261   4.083  0.00  0.00    -0.451 OA
ATOM      8  C   UNL     1      -5.778  -7.185   5.069  0.00  0.00    +0.176 C 
ATOM      9  C   UNL     1      -5.635  -6.953   6.398  0.00  0.00    +0.058 C 
ATOM     10  C   UNL     1      -6.055  -8.486   4.438  0.00  0.00    +0.231 C 
ATOM     11  O   UNL     1      -6.192  -9.566   4.985  0.00  0.00    -0.283 OA
ENDROOT
BRANCH   9  12
ATOM     12  C   UNL     1      -5.570  -8.081   7.338  0.00  0.00    -0.021 A 
ATOM     13  C   UNL     1      -4.856  -9.236   7.003  0.00  0.00    +0.008 A 
ATOM     14  C   UNL     1      -4.800 -10.289   7.891  0.00  0.00    +0.004 A 
ATOM     15  C   UNL     1      -5.449 -10.206   9.110  0.00  0.00    -0.050 A 
ATOM     16  C   UNL     1      -6.158  -9.067   9.450  0.00  0.00    +0.004 A 
ATOM     17  C   UNL     1      -6.218  -8.002   8.576  0.00  0.00    +0.008 A 
ATOM     18  C   UNL     1      -5.383 -11.363  10.074  0.00  0.00    +0.044 C 
ENDBRANCH   9  12
BRANCH   2  19
ATOM     19  O   UNL     1      -6.112  -6.492  -0.756  0.00  0.00    -0.506 OA
ATOM     20  H   UNL     1      -5.243  -6.474  -1.179  0.00  0.00    +0.292 HD
ENDBRANCH   2  19
BRANCH   1  21
ATOM     21  C   UNL     1      -5.668  -4.768   1.424  0.00  0.00    -0.036 C 
BRANCH  21  25
ATOM     22  C   UNL     1      -1.935  -3.438  -0.140  0.00  0.00    +0.094 C 
ATOM     23  C   UNL     1      -2.494  -2.789   1.129  0.00  0.00    -0.004 C 
ATOM     24  C   UNL     1      -3.996  -3.063   1.217  0.00  0.00    -0.078 C 
ATOM     25  N   UNL     1      -4.231  -4.511   1.262  0.00  0.00    +0.383 N 
ATOM     26  C   UNL     1      -3.763  -5.131   0.017  0.00  0.00    -0.078 C 
ATOM     27  C   UNL     1      -2.251  -4.936  -0.117  0.00  0.00    -0.004 C 
ATOM     28  H   UNL     1      -3.730  -4.908   2.043  0.00  0.00    -0.081 HD
BRANCH  22  29
ATOM     29  C   UNL     1      -0.442  -3.238  -0.193  0.00  0.00    +0.310 C 
ATOM     30  O   UNL     1       0.295  -4.195  -0.210  0.00  0.00    -0.251 OA
BRANCH  29  31
ATOM     31  O   UNL     1       0.069  -1.997  -0.220  0.00  0.00    -0.465 OA
BRANCH  31  33
ATOM     32  C   UNL     1       1.884  -0.404  -0.295  0.00  0.00    +0.048 C 
ATOM     33  C   UNL     1       1.492  -1.883  -0.270  0.00  0.00    +0.229 C 
ENDBRANCH  31  33
ENDBRANCH  29  31
ENDBRANCH  22  29
ENDBRANCH  21  25
ENDBRANCH   1  21
TORSDOF 7
