REMARK  Name = ZINC57520927
REMARK  8 active torsions:
REMARK  status: ('A' for Active; 'I' for Inactive)
REMARK    1  A    between atoms: C_1  and  C_2
REMARK    2  A    between atoms: C_4  and  C_26
REMARK    3  A    between atoms: C_5  and  N_9
REMARK    4  A    between atoms: C_6  and  C_8
REMARK    5  A    between atoms: C_10  and  C_12
REMARK    6  A    between atoms: C_12  and  S_13
REMARK    7  A    between atoms: S_13  and  C_14
REMARK    8  A    between atoms: C_22  and  C_25
REMARK                            x       y       z     vdW  Elec       q    Type
REMARK                         _______ _______ _______ _____ _____    ______ ____
ROOT
ATOM      1  C   UNL     1      -0.526  -6.390   0.733  0.00  0.00    +0.173 C 
ENDROOT
BRANCH   1   3
ATOM      2  N   UNL     1      -0.299  -4.141  -0.272  0.00  0.00    -0.284 N 
ATOM      3  C   UNL     1      -0.270  -4.908   0.836  0.00  0.00    +0.228 C 
ATOM      4  O   UNL     1      -0.036  -4.407   1.915  0.00  0.00    -0.275 OA
ATOM      5  H   UNL     1      -0.421  -4.551  -1.143  0.00  0.00    +0.155 HD
BRANCH   2  10
ATOM      6  C   UNL     1       0.286   1.486   0.157  0.00  0.00    +0.044 C 
ATOM      7  C   UNL     1       0.130  -0.009   0.043  0.00  0.00    -0.050 A 
ATOM      8  C   UNL     1       1.121  -0.844   0.526  0.00  0.00    +0.008 A 
ATOM      9  C   UNL     1       0.982  -2.215   0.423  0.00  0.00    -0.029 A 
ATOM     10  C   UNL     1      -0.155  -2.753  -0.166  0.00  0.00    +0.039 A 
ATOM     11  C   UNL     1      -1.148  -1.911  -0.649  0.00  0.00    -0.029 A 
ATOM     12  C   UNL     1      -1.005  -0.542  -0.539  0.00  0.00    +0.008 A 
ATOM     13  C   UNL     1      -2.383  -2.491  -1.289  0.00  0.00    +0.045 C 
ATOM     14  C   UNL     1       2.062  -3.124   0.949  0.00  0.00    +0.045 C 
ENDBRANCH   2  10
ENDBRANCH   1   3
BRANCH   1  15
ATOM     15  S   UNL     1      -0.418  -7.138   2.382  0.00  0.00    -0.078 S 
BRANCH  15  16
ATOM     16  C   UNL     1      -0.738  -8.847   2.096  0.00  0.00    +0.171 A 
ATOM     17  N   UNL     1      -0.971  -9.251   0.865  0.00  0.00    -0.183 NA
ATOM     18  C   UNL     1      -1.220 -10.540   0.586  0.00  0.00    +0.298 A 
ATOM     19  O   UNL     1      -1.434 -10.897  -0.563  0.00  0.00    -0.263 OA
ATOM     20  C   UNL     1      -1.230 -11.508   1.680  0.00  0.00    +0.130 A 
ATOM     21  C   UNL     1      -0.980 -11.046   2.968  0.00  0.00    +0.072 A 
ATOM     22  N   UNL     1      -0.729  -9.700   3.155  0.00  0.00    -0.333 N 
ATOM     23  C   UNL     1      -1.048 -12.160   3.820  0.00  0.00    +0.048 A 
ATOM     24  C   UNL     1      -1.328 -13.244   3.064  0.00  0.00    +0.015 A 
ATOM     25  N   UNL     1      -1.442 -12.864   1.762  0.00  0.00    -0.353 N 
ATOM     26  H   UNL     1      -1.640 -13.451   1.016  0.00  0.00    +0.166 HD
ATOM     27  C   UNL     1      -1.489 -14.650   3.580  0.00  0.00    +0.063 C 
ATOM     28  H   UNL     1      -0.548  -9.362   4.046  0.00  0.00    +0.168 HD
ENDBRANCH  15  16
ENDBRANCH   1  15
TORSDOF 4
