REMARK  Name = ZINC20876299
REMARK  11 active torsions:
REMARK  status: ('A' for Active; 'I' for Inactive)
REMARK    1  A    between atoms: C_1  and  C_2
REMARK    2  A    between atoms: C_2  and  C_3
REMARK    3  A    between atoms: C_2  and  C_4
REMARK    4  A    between atoms: C_2  and  N_5
REMARK    5  A    between atoms: N_5  and  C_6
REMARK    6  A    between atoms: C_6  and  C_7
REMARK    7  A    between atoms: C_9  and  O_24
REMARK    8  A    between atoms: C_10  and  O_14
REMARK    9  A    between atoms: O_14  and  C_15
REMARK   10  A    between atoms: C_15  and  C_16
REMARK   11  A    between atoms: O_24  and  C_25
REMARK                            x       y       z     vdW  Elec       q    Type
REMARK                         _______ _______ _______ _____ _____    ______ ____
ROOT
ATOM      1  C   UNL     1       0.706  -2.034   1.137  0.00  0.00    -0.060 A 
ATOM      2  C   UNL     1       1.738  -2.706   0.509  0.00  0.00    +0.051 A 
ATOM      3  C   UNL     1       1.740  -4.091   0.469  0.00  0.00    +0.163 A 
ATOM      4  C   UNL     1       0.702  -4.803   1.062  0.00  0.00    +0.176 A 
ATOM      5  C   UNL     1      -0.329  -4.123   1.690  0.00  0.00    +0.063 A 
ATOM      6  C   UNL     1      -0.322  -2.740   1.731  0.00  0.00    +0.021 A 
ATOM      7 BR   UNL     1      -1.742  -5.087   2.498  0.00  0.00    -0.046 Br
ENDROOT
BRANCH   3   8
ATOM      8  O   UNL     1       2.755  -4.753  -0.149  0.00  0.00    -0.491 OA
ATOM      9  C   UNL     1       3.787  -3.957  -0.736  0.00  0.00    +0.277 C 
ENDBRANCH   3   8
BRANCH   1  10
ATOM     10  C   UNL     1       0.706  -0.527   1.180  0.00  0.00    -0.046 C 
BRANCH  10  11
ATOM     11  N   UNL     1       0.002  -0.004   0.002  0.00  0.00    +0.385 N 
ATOM     12  H   UNL     1      -1.030  -0.385   0.010  0.00  0.00    -0.085 HD
ATOM     13  H   UNL     1       0.517  -0.359  -0.903  0.00  0.00    -0.085 HD
BRANCH  11  15
ATOM     14  C   UNL     1       1.417   1.994  -0.001  0.00  0.00    -0.011 C 
ATOM     15  C   UNL     1      -0.018   1.465   0.010  0.00  0.00    -0.077 C 
ATOM     16  C   UNL     1      -0.758   1.972  -1.229  0.00  0.00    -0.011 C 
ATOM     17  C   UNL     1      -0.734   1.958   1.269  0.00  0.00    -0.011 C 
ENDBRANCH  11  15
ENDBRANCH  10  11
ENDBRANCH   1  10
BRANCH   4  18
ATOM     18  O   UNL     1       0.700  -6.163   1.025  0.00  0.00    -0.483 OA
BRANCH  18  19
ATOM     19  C   UNL     1       1.347  -6.841   2.104  0.00  0.00    +0.264 C 
BRANCH  19  20
ATOM     20  C   UNL     1       1.244  -8.330   1.894  0.00  0.00    -0.009 A 
ATOM     21  C   UNL     1       0.169  -9.028   2.411  0.00  0.00    +0.008 A 
ATOM     22  C   UNL     1       0.070 -10.393   2.214  0.00  0.00    +0.022 A 
ATOM     23  C   UNL     1       1.054 -11.063   1.509  0.00  0.00    +0.059 A 
ATOM     24  C   UNL     1       2.134 -10.364   0.996  0.00  0.00    +0.060 A 
ATOM     25  C   UNL     1       2.228  -8.998   1.189  0.00  0.00    +0.028 A 
ATOM     26 CL   UNL     1       3.369 -11.203   0.111  0.00  0.00    -0.082 Cl
ATOM     27 CL   UNL     1       0.935 -12.778   1.267  0.00  0.00    -0.082 Cl
ENDBRANCH  19  20
ENDBRANCH  18  19
ENDBRANCH   4  18
TORSDOF 7
