REMARK  Name = ZINC00728759
REMARK  13 active torsions:
REMARK  status: ('A' for Active; 'I' for Inactive)
REMARK    1  A    between atoms: C_1  and  C_2
REMARK    2  A    between atoms: C_3  and  C_21
REMARK    3  A    between atoms: C_4  and  C_11
REMARK    4  A    between atoms: N_9  and  C_10
REMARK    5  A    between atoms: C_13  and  O_19
REMARK    6  A    between atoms: C_14  and  O_18
REMARK    7  A    between atoms: O_19  and  C_20
REMARK    8  A    between atoms: C_21  and  O_23
REMARK    9  A    between atoms: O_23  and  C_24
REMARK   10  A    between atoms: C_24  and  C_25
REMARK   11  A    between atoms: C_25  and  C_26
REMARK   12  A    between atoms: C_26  and  C_27
REMARK   13  A    between atoms: C_26  and  C_28
REMARK                            x       y       z     vdW  Elec       q    Type
REMARK                         _______ _______ _______ _____ _____    ______ ____
ROOT
ATOM      1  C   UNL     1      -2.456  -0.350  -0.031  0.00  0.00    +0.061 C 
ATOM      2  C   UNL     1      -2.435   1.105  -0.422  0.00  0.00    +0.024 C 
ATOM      3  C   UNL     1      -1.271   1.788  -0.379  0.00  0.00    +0.078 C 
ATOM      4  C   UNL     1      -1.296   3.251  -0.775  0.00  0.00    +0.144 C 
ATOM      5  N   UNL     1      -2.595   3.808  -1.188  0.00  0.00    -0.288 N 
ATOM      6  C   UNL     1      -3.672   2.998  -1.179  0.00  0.00    +0.307 C 
ATOM      7  O   UNL     1      -4.750   3.450  -1.513  0.00  0.00    -0.252 OA
ATOM      8  N   UNL     1      -3.594   1.712  -0.815  0.00  0.00    -0.262 N 
ATOM      9  C   UNL     1      -4.820   0.910  -0.838  0.00  0.00    +0.139 C 
ATOM     10  H   UNL     1      -2.675   4.737  -1.455  0.00  0.00    +0.151 HD
ENDROOT
BRANCH   4  11
ATOM     11  C   UNL     1      -0.789   4.057   0.392  0.00  0.00    -0.017 A 
ATOM     12  C   UNL     1       0.447   4.673   0.321  0.00  0.00    +0.055 A 
ATOM     13  C   UNL     1       0.912   5.420   1.391  0.00  0.00    +0.163 A 
ATOM     14  C   UNL     1       0.138   5.539   2.542  0.00  0.00    +0.177 A 
ATOM     15  C   UNL     1      -1.098   4.914   2.610  0.00  0.00    +0.086 A 
ATOM     16  C   UNL     1      -1.559   4.175   1.535  0.00  0.00    +0.029 A 
ATOM     17 CL   UNL     1      -2.066   5.060   4.043  0.00  0.00    -0.080 Cl
BRANCH  14  18
ATOM     18  O   UNL     1       0.593   6.266   3.597  0.00  0.00    -0.502 OA
ATOM     19  H   UNL     1       1.109   5.753   4.235  0.00  0.00    +0.292 HD
ENDBRANCH  14  18
BRANCH  13  20
ATOM     20  O   UNL     1       2.125   6.030   1.320  0.00  0.00    -0.491 OA
ATOM     21  C   UNL     1       2.815   5.959   0.071  0.00  0.00    +0.277 C 
ENDBRANCH  13  20
ENDBRANCH   4  11
BRANCH   3  22
ATOM     22  C   UNL     1      -0.070   1.161   0.027  0.00  0.00    +0.339 C 
ATOM     23  O   UNL     1      -0.057  -0.031   0.268  0.00  0.00    -0.245 OA
BRANCH  22  24
ATOM     24  O   UNL     1       1.063   1.885   0.143  0.00  0.00    -0.461 OA
BRANCH  24  25
ATOM     25  C   UNL     1       2.214   1.211   0.656  0.00  0.00    +0.233 C 
BRANCH  25  26
ATOM     26  C   UNL     1       3.358   2.213   0.828  0.00  0.00    +0.044 C 
BRANCH  26  27
ATOM     27  C   UNL     1       4.546   1.520   1.498  0.00  0.00    -0.014 C 
ATOM     28  C   UNL     1       5.095   0.436   0.569  0.00  0.00    +0.007 C 
ATOM     29  C   UNL     1       5.641   2.549   1.784  0.00  0.00    +0.007 C 
ENDBRANCH  26  27
ENDBRANCH  25  26
ENDBRANCH  24  25
ENDBRANCH  22  24
ENDBRANCH   3  22
TORSDOF 8
