REMARK  Name = ZINC04557088
REMARK  7 active torsions:
REMARK  status: ('A' for Active; 'I' for Inactive)
REMARK    1  A    between atoms: C_1  and  C_2
REMARK    2  A    between atoms: C_11  and  O_13
REMARK    3  A    between atoms: O_13  and  C_14
REMARK    4  A    between atoms: C_16  and  N_37
REMARK    5  A    between atoms: C_18  and  O_36
REMARK    6  A    between atoms: C_27  and  C_30
REMARK    7  A    between atoms: C_38  and  C_40
REMARK                            x       y       z     vdW  Elec       q    Type
REMARK                         _______ _______ _______ _____ _____    ______ ____
ROOT
ATOM      1  C   UNL     1      -6.942   2.217   0.091  0.00  0.00    +0.331 C 
ATOM      2  C   UNL     1      -8.443   2.383   0.336  0.00  0.00    +0.173 C 
ATOM      3  C   UNL     1      -8.747   3.838   0.714  0.00  0.00    +0.172 C 
ATOM      4  C   UNL     1      -8.223   4.746  -0.398  0.00  0.00    +0.183 C 
ATOM      5  C   UNL     1      -6.717   4.502  -0.561  0.00  0.00    +0.179 C 
ATOM      6  O   UNL     1      -6.505   3.137  -0.914  0.00  0.00    -0.332 OA
ATOM      7  C   UNL     1      -6.191   5.443  -1.646  0.00  0.00    +0.197 C 
ATOM      8  O   UNL     1      -6.528   6.787  -1.279  0.00  0.00    -0.345 OA
ATOM      9  C   UNL     1      -7.924   7.011  -1.080  0.00  0.00    +0.282 C 
ATOM     10  O   UNL     1      -8.428   6.122  -0.077  0.00  0.00    -0.339 OA
ENDROOT
BRANCH   9  11
ATOM     11  C   UNL     1      -8.144   8.436  -0.640  0.00  0.00    +0.008 A 
ATOM     12  C   UNL     1      -8.745   8.698   0.577  0.00  0.00    +0.008 A 
ATOM     13  C   UNL     1      -8.942  10.005   0.983  0.00  0.00    +0.000 A 
ATOM     14  C   UNL     1      -8.547  11.049   0.167  0.00  0.00    +0.000 A 
ATOM     15  C   UNL     1      -7.951  10.786  -1.052  0.00  0.00    +0.000 A 
ATOM     16  C   UNL     1      -7.749   9.479  -1.456  0.00  0.00    +0.008 A 
ENDBRANCH   9  11
BRANCH   2  17
ATOM     17  N   UNL     1      -8.860   1.498   1.427  0.00  0.00    -0.304 N 
ATOM     18  C   UNL     1      -9.175   0.213   1.170  0.00  0.00    +0.210 C 
ATOM     19  O   UNL     1      -9.113  -0.211   0.035  0.00  0.00    -0.276 OA
ATOM     20  C   UNL     1      -9.603  -0.697   2.292  0.00  0.00    +0.109 C 
ATOM     21  H   UNL     1      -8.909   1.837   2.334  0.00  0.00    +0.149 HD
ENDBRANCH   2  17
BRANCH   3  22
ATOM     22  O   UNL     1     -10.158   4.017   0.855  0.00  0.00    -0.387 OA
ATOM     23  H   UNL     1     -10.557   3.469   1.545  0.00  0.00    +0.210 HD
ENDBRANCH   3  22
BRANCH   1  24
ATOM     24  O   UNL     1      -6.233   2.469   1.306  0.00  0.00    -0.461 OA
BRANCH  24  35
ATOM     25  C   UNL     1      -0.013   1.086   0.008  0.00  0.00    +0.045 C 
ATOM     26  C   UNL     1      -0.718   1.572   1.248  0.00  0.00    -0.033 A 
ATOM     27  C   UNL     1      -0.030   1.807   2.395  0.00  0.00    +0.096 A 
ATOM     28  C   UNL     1      -0.713   2.262   3.542  0.00  0.00    +0.337 A 
ATOM     29  O   UNL     1      -0.083   2.470   4.564  0.00  0.00    -0.245 OA
ATOM     30  O   UNL     1      -2.038   2.472   3.537  0.00  0.00    -0.422 OA
ATOM     31  C   UNL     1      -2.781   2.257   2.430  0.00  0.00    +0.143 A 
ATOM     32  C   UNL     1      -2.163   1.809   1.247  0.00  0.00    +0.021 A 
ATOM     33  C   UNL     1      -2.930   1.579   0.100  0.00  0.00    +0.015 A 
ATOM     34  C   UNL     1      -4.277   1.802   0.128  0.00  0.00    +0.046 A 
ATOM     35  C   UNL     1      -4.893   2.252   1.294  0.00  0.00    +0.127 A 
ATOM     36  C   UNL     1      -4.150   2.479   2.441  0.00  0.00    +0.092 A 
ENDBRANCH  24  35
ENDBRANCH   1  24
TORSDOF 5
