REMARK  Name = ZINC19325492
REMARK  2 active torsions:
REMARK  status: ('A' for Active; 'I' for Inactive)
REMARK    1  A    between atoms: C_1  and  N_2
REMARK    2  A    between atoms: N_17  and  C_18
REMARK                            x       y       z     vdW  Elec       q    Type
REMARK                         _______ _______ _______ _____ _____    ______ ____
ROOT
ATOM      1  C   UNL     1      -3.568   1.208  -1.991  0.00  0.00    +0.138 C 
ATOM      2  N   UNL     1      -3.438   1.647  -0.599  0.00  0.00    -0.270 N 
ATOM      3  C   UNL     1      -2.215   1.868   0.035  0.00  0.00    +0.044 A 
ATOM      4  C   UNL     1      -0.909   1.743  -0.435  0.00  0.00    +0.024 A 
ATOM      5  C   UNL     1       0.156   2.024   0.395  0.00  0.00    +0.002 A 
ATOM      6  C   UNL     1      -0.062   2.431   1.699  0.00  0.00    +0.001 A 
ATOM      7  C   UNL     1      -1.356   2.556   2.173  0.00  0.00    +0.010 A 
ATOM      8  C   UNL     1      -2.421   2.276   1.347  0.00  0.00    +0.032 A 
ATOM      9  C   UNL     1      -3.917   2.310   1.550  0.00  0.00    +0.260 C 
ATOM     10  C   UNL     1      -4.482   1.887   0.212  0.00  0.00    +0.275 C 
ATOM     11  O   UNL     1      -5.656   1.782  -0.075  0.00  0.00    -0.270 OA
ATOM     12  N   UNL     1      -4.350   3.665   1.865  0.00  0.00    -0.212 NA
ATOM     13  C   UNL     1      -4.712   4.011   3.063  0.00  0.00    +0.182 C 
ATOM     14  N   UNL     1      -4.709   3.081   4.083  0.00  0.00    -0.260 N 
ATOM     15  C   UNL     1      -4.667   1.738   3.769  0.00  0.00    +0.189 C 
ATOM     16  N   UNL     1      -4.304   1.357   2.582  0.00  0.00    -0.212 NA
ATOM     17  N   UNL     1      -5.012   0.800   4.716  0.00  0.00    -0.287 N 
ATOM     18  N   UNL     1      -5.100   5.305   3.315  0.00  0.00    -0.331 N 
ATOM     19  H   UNL     1      -4.739   3.415   5.131  0.00  0.00    +0.157 HD
ATOM     20  H   UNL     1      -5.407   1.123   5.690  0.00  0.00    +0.155 HD
ATOM     21  H   UNL     1      -5.407   5.599   4.330  0.00  0.00    +0.145 HD
ATOM     22  H   UNL     1      -5.104   6.046   2.503  0.00  0.00    +0.145 HD
ENDROOT
BRANCH  17  23
ATOM     23  C   UNL     1      -4.858  -0.562   4.439  0.00  0.00    +0.036 A 
ATOM     24  C   UNL     1      -3.820  -0.994   3.624  0.00  0.00    +0.043 A 
ATOM     25  C   UNL     1      -3.668  -2.341   3.356  0.00  0.00    +0.044 A 
ATOM     26  C   UNL     1      -4.555  -3.259   3.891  0.00  0.00    +0.040 A 
ATOM     27  C   UNL     1      -5.594  -2.831   4.699  0.00  0.00    +0.044 A 
ATOM     28  C   UNL     1      -5.747  -1.485   4.974  0.00  0.00    +0.043 A 
ATOM     29 CL   UNL     1      -6.705  -3.985   5.366  0.00  0.00    -0.083 Cl
ATOM     30 CL   UNL     1      -2.366  -2.882   2.342  0.00  0.00    -0.083 Cl
ENDBRANCH  17  23
TORSDOF 1
