REMARK  Name = ZINC39335583
REMARK  7 active torsions:
REMARK  status: ('A' for Active; 'I' for Inactive)
REMARK    1  A    between atoms: C_1  and  C_2
REMARK    2  A    between atoms: C_3  and  C_21
REMARK    3  A    between atoms: C_4  and  N_20
REMARK    4  A    between atoms: C_6  and  S_10
REMARK    5  A    between atoms: C_7  and  C_8
REMARK    6  A    between atoms: S_10  and  C_11
REMARK    7  A    between atoms: C_11  and  C_12
REMARK                            x       y       z     vdW  Elec       q    Type
REMARK                         _______ _______ _______ _____ _____    ______ ____
ROOT
ATOM      1  C   UNL     1      -0.018   1.503   0.010  0.00  0.00    +0.046 C 
ATOM      2  C   UNL     1       0.002  -0.004   0.002  0.00  0.00    -0.010 A 
ATOM      3  C   UNL     1       0.006  -0.714  -1.202  0.00  0.00    +0.095 A 
ATOM      4  C   UNL     1       0.026  -2.122  -1.167  0.00  0.00    +0.135 A 
ATOM      5  N   UNL     1       0.041  -2.772  -0.015  0.00  0.00    -0.224 NA
ATOM      6  C   UNL     1       0.037  -2.135   1.147  0.00  0.00    +0.117 A 
ATOM      7  C   UNL     1       0.023  -0.726   1.197  0.00  0.00    +0.088 A 
ENDROOT
BRANCH   4   8
ATOM      8  N   UNL     1       0.030  -2.833  -2.350  0.00  0.00    -0.342 N 
ATOM      9  H   UNL     1       0.019  -2.362  -3.199  0.00  0.00    +0.144 HD
ATOM     10  H   UNL     1       0.043  -3.803  -2.334  0.00  0.00    +0.144 HD
ENDBRANCH   4   8
BRANCH   7  11
ATOM     11  C   UNL     1       0.025  -0.045   2.457  0.00  0.00    +0.102 C 
ATOM     12  N   UNL     1       0.027   0.495   3.456  0.00  0.00    -0.191 NA
ENDBRANCH   7  11
BRANCH   3  13
ATOM     13  C   UNL     1      -0.010  -0.019  -2.454  0.00  0.00    +0.103 C 
ATOM     14  N   UNL     1      -0.023   0.532  -3.447  0.00  0.00    -0.191 NA
ENDBRANCH   3  13
BRANCH   6  15
ATOM     15  S   UNL     1       0.057  -3.059   2.647  0.00  0.00    -0.095 S 
BRANCH  15  16
ATOM     16  C   UNL     1       0.079  -4.788   2.096  0.00  0.00    +0.172 C 
BRANCH  16  17
ATOM     17  C   UNL     1       0.097  -5.697   3.298  0.00  0.00    +0.229 C 
ATOM     18  O   UNL     1       0.096  -5.226   4.415  0.00  0.00    -0.275 OA
ATOM     19  N   UNL     1       0.115  -7.035   3.131  0.00  0.00    -0.263 N 
ATOM     20  C   UNL     1       0.132  -7.874   4.240  0.00  0.00    +0.187 A 
ATOM     21  N   UNL     1       0.128  -7.560   5.520  0.00  0.00    -0.126 NA
ATOM     22  N   UNL     1       0.145  -8.443   6.424  0.00  0.00    -0.148 NA
ATOM     23  C   UNL     1       0.168  -9.714   6.078  0.00  0.00    +0.183 A 
ATOM     24  S   UNL     1       0.156  -9.559   4.298  0.00  0.00    -0.039 S 
ATOM     25  H   UNL     1       0.116  -7.412   2.237  0.00  0.00    +0.157 HD
ENDBRANCH  16  17
ENDBRANCH  15  16
ENDBRANCH   6  15
TORSDOF 6
