REMARK  Name = ZINC11612356
REMARK  8 active torsions:
REMARK  status: ('A' for Active; 'I' for Inactive)
REMARK    1  A    between atoms: C_1  and  C_2
REMARK    2  A    between atoms: C_5  and  C_29
REMARK    3  A    between atoms: C_9  and  C_10
REMARK    4  A    between atoms: C_9  and  N_55
REMARK    5  A    between atoms: C_10  and  C_12
REMARK    6  A    between atoms: C_10  and  O_28
REMARK    7  A    between atoms: C_12  and  O_13
REMARK    8  A    between atoms: O_13  and  N_14
REMARK                            x       y       z     vdW  Elec       q    Type
REMARK                         _______ _______ _______ _____ _____    ______ ____
ROOT
ATOM      1  O   UNL     1       5.701   3.211  -0.065  0.00  0.00    -0.391 OA
ENDROOT
BRANCH   1   2
ATOM      2  N   UNL     1       4.770   2.144  -0.053  0.00  0.00    -0.084 NA
ATOM      3  C   UNL     1       3.493   2.394  -0.055  0.00  0.00    +0.118 C 
ATOM      4  C   UNL     1       2.398   1.395  -0.043  0.00  0.00    +0.012 A 
ATOM      5  C   UNL     1       2.399   0.005  -0.027  0.00  0.00    +0.011 A 
ATOM      6  C   UNL     1       1.202  -0.685  -0.019  0.00  0.00    +0.001 A 
ATOM      7  C   UNL     1       0.000   0.001  -0.026  0.00  0.00    +0.001 A 
ATOM      8  C   UNL     1      -0.017   1.382  -0.042  0.00  0.00    +0.009 A 
ATOM      9  C   UNL     1       1.179   2.094  -0.051  0.00  0.00    -0.008 A 
ATOM     10  C   UNL     1       1.465   3.547  -0.066  0.00  0.00    -0.008 A 
ATOM     11  C   UNL     1       2.857   3.733  -0.069  0.00  0.00    +0.012 A 
ATOM     12  C   UNL     1       3.384   5.020  -0.084  0.00  0.00    +0.011 A 
ATOM     13  C   UNL     1       2.536   6.112  -0.095  0.00  0.00    +0.001 A 
ATOM     14  C   UNL     1       1.164   5.931  -0.092  0.00  0.00    +0.001 A 
ATOM     15  C   UNL     1       0.626   4.658  -0.078  0.00  0.00    +0.009 A 
ENDBRANCH   1   2
BRANCH   1  16
ATOM     16  C   UNL     1       7.066   2.791  -0.061  0.00  0.00    +0.292 C 
BRANCH  16  17
ATOM     17  C   UNL     1       7.978   4.019  -0.075  0.00  0.00    +0.138 C 
BRANCH  17  18
ATOM     18  O   UNL     1       7.804   4.728  -1.304  0.00  0.00    -0.390 OA
ATOM     19  H   UNL     1       8.014   4.207  -2.091  0.00  0.00    +0.210 HD
ENDBRANCH  17  18
BRANCH  17  20
ATOM     20  C   UNL     1       9.436   3.574   0.055  0.00  0.00    -0.044 C 
BRANCH  20  28
ATOM     21  C   UNL     1      11.961   6.539  -1.542  0.00  0.00    +0.005 C 
ATOM     22  C   UNL     1      12.536   5.655  -0.433  0.00  0.00    -0.031 C 
ATOM     23  C   UNL     1      12.515   6.420   0.893  0.00  0.00    +0.003 C 
ATOM     24  C   UNL     1      11.065   6.747   1.261  0.00  0.00    -0.031 C 
ATOM     25  C   UNL     1      10.260   5.448   1.346  0.00  0.00    -0.076 C 
ATOM     26  C   UNL     1      11.688   4.388  -0.299  0.00  0.00    -0.076 C 
ATOM     27  C   UNL     1      11.030   7.459   2.615  0.00  0.00    +0.005 C 
ATOM     28  N   UNL     1      10.300   4.772   0.032  0.00  0.00    +0.382 N 
ATOM     29  H   UNL     1       9.953   5.419  -0.686  0.00  0.00    -0.082 HD
ENDBRANCH  20  28
ENDBRANCH  17  20
ENDBRANCH  16  17
ENDBRANCH   1  16
TORSDOF 6
