REMARK  Name = ZINC05198911
REMARK  8 active torsions:
REMARK  status: ('A' for Active; 'I' for Inactive)
REMARK    1  A    between atoms: C_1  and  C_2
REMARK    2  A    between atoms: C_7  and  C_13
REMARK    3  A    between atoms: C_13  and  O_14
REMARK    4  A    between atoms: O_14  and  C_15
REMARK    5  A    between atoms: C_15  and  C_17
REMARK    6  A    between atoms: C_20  and  N_23
REMARK    7  A    between atoms: C_24  and  C_29
REMARK    8  A    between atoms: C_27  and  C_28
REMARK                            x       y       z     vdW  Elec       q    Type
REMARK                         _______ _______ _______ _____ _____    ______ ____
ROOT
ATOM      1  C   UNL     1      -4.536  -3.360   0.030  0.00  0.00    +0.340 C 
ATOM      2  O   UNL     1      -4.769  -4.074  -0.925  0.00  0.00    -0.245 OA
ENDROOT
BRANCH   1   3
ATOM      3  C   UNL     1      -3.350  -2.482   0.022  0.00  0.00    +0.059 A 
ATOM      4  C   UNL     1      -2.494  -2.471  -1.082  0.00  0.00    +0.017 A 
ATOM      5  C   UNL     1      -1.388  -1.651  -1.086  0.00  0.00    +0.027 A 
ATOM      6  C   UNL     1      -1.122  -0.835   0.009  0.00  0.00    +0.047 A 
ATOM      7  C   UNL     1      -1.969  -0.847   1.112  0.00  0.00    +0.027 A 
ATOM      8  C   UNL     1      -3.080  -1.661   1.120  0.00  0.00    +0.017 A 
BRANCH   6   9
ATOM      9  N   UNL     1       0.002  -0.004   0.002  0.00  0.00    -0.318 N 
ATOM     10  C   UNL     1      -0.017   1.362   0.009  0.00  0.00    +0.021 A 
ATOM     11  C   UNL     1       1.258   1.800  -0.000  0.00  0.00    +0.023 A 
ATOM     12  C   UNL     1       2.096   0.667  -0.014  0.00  0.00    +0.023 A 
ATOM     13  C   UNL     1       1.302  -0.423  -0.013  0.00  0.00    +0.021 A 
ATOM     14  C   UNL     1       1.769  -1.856  -0.025  0.00  0.00    +0.064 C 
ATOM     15  C   UNL     1      -1.249   2.229   0.020  0.00  0.00    +0.064 C 
ENDBRANCH   6   9
ENDBRANCH   1   3
BRANCH   1  16
ATOM     16  O   UNL     1      -5.360  -3.370   1.096  0.00  0.00    -0.455 OA
BRANCH  16  17
ATOM     17  C   UNL     1      -6.507  -4.258   1.034  0.00  0.00    +0.288 C 
BRANCH  17  24
ATOM     18  C   UNL     1      -9.649  -4.098   8.232  0.00  0.00    +0.045 C 
ATOM     19  C   UNL     1      -8.867  -4.212   6.949  0.00  0.00    -0.034 A 
ATOM     20  C   UNL     1      -7.562  -4.723   6.968  0.00  0.00    +0.008 A 
ATOM     21  C   UNL     1      -6.862  -4.823   5.803  0.00  0.00    +0.047 A 
ATOM     22  C   UNL     1      -7.461  -4.412   4.599  0.00  0.00    +0.141 A 
ATOM     23  N   UNL     1      -6.779  -4.510   3.459  0.00  0.00    -0.231 NA
ATOM     24  C   UNL     1      -7.307  -4.134   2.305  0.00  0.00    +0.086 A 
ATOM     25  C   UNL     1      -8.590  -3.622   2.266  0.00  0.00    +0.097 A 
ATOM     26  C   UNL     1      -9.315  -3.522   3.459  0.00  0.00    +0.259 A 
ATOM     27  O   UNL     1     -10.453  -3.079   3.457  0.00  0.00    -0.267 OA
ATOM     28  N   UNL     1      -8.735  -3.918   4.612  0.00  0.00    -0.268 N 
ATOM     29  C   UNL     1      -9.426  -3.822   5.782  0.00  0.00    +0.099 A 
ENDBRANCH  17  24
ENDBRANCH  16  17
ENDBRANCH   1  16
TORSDOF 5
