REMARK  Name = ZINC38660561
REMARK  15 active torsions:
REMARK  status: ('A' for Active; 'I' for Inactive)
REMARK    1  A    between atoms: C_1  and  O_2
REMARK    2  A    between atoms: O_2  and  C_3
REMARK    3  A    between atoms: C_5  and  C_13
REMARK    4  A    between atoms: C_7  and  O_11
REMARK    5  A    between atoms: C_8  and  O_9
REMARK    6  A    between atoms: O_9  and  C_10
REMARK    7  A    between atoms: O_11  and  C_12
REMARK    8  A    between atoms: C_18  and  O_27
REMARK    9  A    between atoms: C_22  and  N_26
REMARK   10  A    between atoms: C_23  and  C_24
REMARK   11  A    between atoms: O_27  and  C_28
REMARK   12  A    between atoms: C_28  and  C_30
REMARK   13  A    between atoms: C_33  and  O_36
REMARK   14  A    between atoms: O_36  and  C_37
REMARK   15  A    between atoms: C_37  and  C_38
REMARK                            x       y       z     vdW  Elec       q    Type
REMARK                         _______ _______ _______ _____ _____    ______ ____
ROOT
ATOM      1  C   UNL     1      -4.817   0.273   0.075  0.00  0.00    +0.098 C 
ATOM      2  C   UNL     1      -5.621  -0.058   1.304  0.00  0.00    +0.008 A 
ATOM      3  C   UNL     1      -5.188   0.388   2.541  0.00  0.00    +0.012 A 
ATOM      4  C   UNL     1      -5.912   0.094   3.679  0.00  0.00    +0.047 A 
ATOM      5  C   UNL     1      -7.080  -0.651   3.586  0.00  0.00    +0.135 A 
ATOM      6  C   UNL     1      -7.516  -1.099   2.349  0.00  0.00    +0.093 A 
ATOM      7  C   UNL     1      -6.786  -0.803   1.205  0.00  0.00    +0.138 A 
ATOM      8  O   UNL     1      -7.226  -1.248   0.003  0.00  0.00    -0.441 OA
ATOM      9  C   UNL     1      -6.784  -0.673  -1.128  0.00  0.00    +0.199 C 
ATOM     10  C   UNL     1      -5.649   0.059  -1.159  0.00  0.00    +0.098 C 
ENDROOT
BRANCH   1  13
ATOM     11  C   UNL     1      -1.218  -0.873  -0.022  0.00  0.00    +0.165 A 
ATOM     12  C   UNL     1      -2.338  -0.058   0.030  0.00  0.00    +0.054 A 
ATOM     13  C   UNL     1      -3.602  -0.616   0.018  0.00  0.00    -0.028 A 
ATOM     14  C   UNL     1      -3.755  -1.989  -0.044  0.00  0.00    +0.054 A 
ATOM     15  C   UNL     1      -2.640  -2.811  -0.096  0.00  0.00    +0.165 A 
ATOM     16  C   UNL     1      -1.367  -2.253  -0.091  0.00  0.00    +0.204 A 
BRANCH  11  18
ATOM     17  C   UNL     1       0.104   1.103   0.061  0.00  0.00    +0.277 C 
ATOM     18  O   UNL     1       0.026  -0.322  -0.011  0.00  0.00    -0.491 OA
ENDBRANCH  11  18
BRANCH  16  19
ATOM     19  O   UNL     1      -0.270  -3.056  -0.147  0.00  0.00    -0.488 OA
ATOM     20  C   UNL     1       0.271  -3.504   1.097  0.00  0.00    +0.277 C 
ENDBRANCH  16  19
BRANCH  15  21
ATOM     21  O   UNL     1      -2.791  -4.161  -0.158  0.00  0.00    -0.491 OA
ATOM     22  C   UNL     1      -4.129  -4.664  -0.165  0.00  0.00    +0.277 C 
ENDBRANCH  15  21
ENDBRANCH   1  13
BRANCH   9  23
ATOM     23  N   UNL     1      -7.505  -0.836  -2.284  0.00  0.00    -0.328 N 
ATOM     24  H   UNL     1      -8.321  -1.360  -2.277  0.00  0.00    +0.145 HD
ATOM     25  H   UNL     1      -7.199  -0.427  -3.109  0.00  0.00    +0.145 HD
ENDBRANCH   9  23
BRANCH  10  26
ATOM     26  C   UNL     1      -5.231   0.645  -2.397  0.00  0.00    +0.101 C 
ATOM     27  N   UNL     1      -4.899   1.110  -3.379  0.00  0.00    -0.191 NA
ENDBRANCH  10  26
BRANCH   5  28
ATOM     28  O   UNL     1      -7.793  -0.941   4.705  0.00  0.00    -0.422 OA
BRANCH  28  29
ATOM     29  C   UNL     1      -8.432   0.069   5.328  0.00  0.00    +0.344 C 
ATOM     30  O   UNL     1      -8.446   1.178   4.830  0.00  0.00    -0.245 OA
BRANCH  29  31
ATOM     31  C   UNL     1      -9.113  -0.170   6.614  0.00  0.00    +0.060 A 
ATOM     32  C   UNL     1      -9.093  -1.443   7.191  0.00  0.00    +0.018 A 
ATOM     33  C   UNL     1      -9.730  -1.663   8.392  0.00  0.00    +0.046 A 
ATOM     34  C   UNL     1     -10.392  -0.620   9.030  0.00  0.00    +0.121 A 
ATOM     35  C   UNL     1     -10.415   0.647   8.459  0.00  0.00    +0.046 A 
ATOM     36  C   UNL     1      -9.776   0.876   7.261  0.00  0.00    +0.018 A 
BRANCH  34  37
ATOM     37  O   UNL     1     -11.019  -0.841  10.213  0.00  0.00    -0.488 OA
BRANCH  37  38
ATOM     38  C   UNL     1     -11.680   0.274  10.815  0.00  0.00    +0.256 C 
BRANCH  38  39
ATOM     39  C   UNL     1     -12.314  -0.158  12.112  0.00  0.00    +0.006 C 
ATOM     40  C   UNL     1     -12.190   0.588  13.182  0.00  0.00    +0.007 C 
ENDBRANCH  38  39
ENDBRANCH  37  38
ENDBRANCH  34  37
ENDBRANCH  29  31
ENDBRANCH  28  29
ENDBRANCH   5  28
TORSDOF 12
