REMARK  Name = ZINC02028254
REMARK  5 active torsions:
REMARK  status: ('A' for Active; 'I' for Inactive)
REMARK    1  A    between atoms: C_3  and  O_15
REMARK    2  A    between atoms: C_4  and  O_14
REMARK    3  A    between atoms: C_6  and  C_7
REMARK    4  A    between atoms: C_7  and  C_8
REMARK    5  A    between atoms: C_8  and  C_12
REMARK                            x       y       z     vdW  Elec       q    Type
REMARK                         _______ _______ _______ _____ _____    ______ ____
ROOT
ATOM      1  C   UNL     1       1.702   2.310  -1.432  0.00  0.00    +0.044 C 
ENDROOT
BRANCH   1   2
ATOM      2  C   UNL     1       1.280   1.975   0.000  0.00  0.00    +0.087 C 
ATOM      3  C   UNL     1       3.305   2.118   1.380  0.00  0.00    -0.069 C 
ATOM      4  C   UNL     1       2.504   3.169   2.207  0.00  0.00    +0.049 C 
ATOM      5  S   UNL     1       1.137   3.505   1.014  0.00  0.00    -0.163 S 
ATOM      6  N   UNL     1       2.350   1.203   0.707  0.00  0.00    +0.397 N 
ATOM      7  H   UNL     1       2.858   0.629   0.023  0.00  0.00    -0.083 HD
ATOM      8  H   UNL     1       1.916   0.593   1.410  0.00  0.00    -0.083 HD
BRANCH   2   9
ATOM      9  C   UNL     1      -0.014   1.204   0.009  0.00  0.00    +0.355 C 
ATOM     10  O   UNL     1       0.002  -0.004   0.002  0.00  0.00    -0.247 OA
ATOM     11  O   UNL     1      -1.186   1.859   0.018  0.00  0.00    -0.247 OA
ENDBRANCH   2   9
ENDBRANCH   1   2
BRANCH   1  17
ATOM     12  C   UNL     1      -0.372   2.301  -2.832  0.00  0.00    +0.007 A 
ATOM     13  C   UNL     1      -1.410   2.953  -3.473  0.00  0.00    +0.049 A 
ATOM     14  C   UNL     1      -1.496   4.334  -3.423  0.00  0.00    +0.158 A 
ATOM     15  C   UNL     1      -0.539   5.064  -2.723  0.00  0.00    +0.158 A 
ATOM     16  C   UNL     1       0.495   4.405  -2.079  0.00  0.00    +0.052 A 
ATOM     17  C   UNL     1       0.575   3.025  -2.132  0.00  0.00    -0.044 A 
BRANCH  15  18
ATOM     18  O   UNL     1      -0.620   6.420  -2.671  0.00  0.00    -0.503 OA
ATOM     19  H   UNL     1      -0.151   6.870  -3.388  0.00  0.00    +0.292 HD
ENDBRANCH  15  18
BRANCH  14  20
ATOM     20  O   UNL     1      -2.513   4.977  -4.057  0.00  0.00    -0.503 OA
ATOM     21  H   UNL     1      -2.316   5.219  -4.972  0.00  0.00    +0.292 HD
ENDBRANCH  14  20
ENDBRANCH   1  17
TORSDOF 5
