REMARK  Name = ZINC01111429
REMARK  12 active torsions:
REMARK  status: ('A' for Active; 'I' for Inactive)
REMARK    1  A    between atoms: C_1  and  C_2
REMARK    2  A    between atoms: C_2  and  N_3
REMARK    3  A    between atoms: C_4  and  C_22
REMARK    4  A    between atoms: C_7  and  S_8
REMARK    5  A    between atoms: S_8  and  C_9
REMARK    6  A    between atoms: C_9  and  C_10
REMARK    7  A    between atoms: N_12  and  C_13
REMARK    8  A    between atoms: C_15  and  C_21
REMARK    9  A    between atoms: C_16  and  C_20
REMARK   10  A    between atoms: C_22  and  N_23
REMARK   11  A    between atoms: C_24  and  C_26
REMARK   12  A    between atoms: C_29  and  C_32
REMARK                            x       y       z     vdW  Elec       q    Type
REMARK                         _______ _______ _______ _____ _____    ______ ____
ROOT
ATOM      1  N   UNL     1      -0.536   2.778  -1.848  0.00  0.00    -0.305 N 
ATOM      2  C   UNL     1      -0.775   1.606  -1.185  0.00  0.00    +0.151 A 
ATOM      3  N   UNL     1      -1.738   0.994  -1.813  0.00  0.00    -0.132 NA
ATOM      4  N   UNL     1      -2.128   1.698  -2.815  0.00  0.00    -0.122 NA
ATOM      5  C   UNL     1      -1.422   2.802  -2.887  0.00  0.00    +0.192 A 
ENDROOT
BRANCH   1   7
ATOM      6  C   UNL     1       1.775   3.479  -2.236  0.00  0.00    +0.027 C 
ATOM      7  C   UNL     1       0.464   3.795  -1.514  0.00  0.00    +0.122 C 
ENDBRANCH   1   7
BRANCH   5   8
ATOM      8  S   UNL     1      -1.586   4.075  -4.094  0.00  0.00    -0.077 S 
BRANCH   8   9
ATOM      9  C   UNL     1      -2.931   3.389  -5.093  0.00  0.00    +0.173 C 
BRANCH   9  10
ATOM     10  C   UNL     1      -3.253   4.335  -6.220  0.00  0.00    +0.228 C 
ATOM     11  O   UNL     1      -2.634   5.372  -6.337  0.00  0.00    -0.275 OA
ATOM     12  N   UNL     1      -4.229   4.031  -7.098  0.00  0.00    -0.284 N 
ATOM     13  H   UNL     1      -4.670   3.167  -7.053  0.00  0.00    +0.155 HD
BRANCH  12  14
ATOM     14  C   UNL     1      -4.607   4.959  -8.075  0.00  0.00    +0.048 A 
ATOM     15  C   UNL     1      -4.397   6.316  -7.864  0.00  0.00    +0.028 A 
ATOM     16  C   UNL     1      -4.771   7.229  -8.829  0.00  0.00    -0.046 A 
ATOM     17  C   UNL     1      -5.354   6.796 -10.006  0.00  0.00    -0.046 A 
ATOM     18  C   UNL     1      -5.565   5.446 -10.220  0.00  0.00    +0.020 A 
ATOM     19  C   UNL     1      -5.188   4.526  -9.260  0.00  0.00    +0.039 A 
ATOM     20 BR   UNL     1      -5.468   2.679  -9.557  0.00  0.00    -0.048 Br
ATOM     21  C   UNL     1      -5.760   7.796 -11.057  0.00  0.00    +0.044 C 
ATOM     22  C   UNL     1      -4.543   8.701  -8.600  0.00  0.00    +0.044 C 
ENDBRANCH  12  14
ENDBRANCH   9  10
ENDBRANCH   8   9
ENDBRANCH   5   8
BRANCH   2  23
ATOM     23  C   UNL     1      -0.053   1.111   0.042  0.00  0.00    +0.181 C 
BRANCH  23  24
ATOM     24  N   UNL     1      -0.741   1.593   1.242  0.00  0.00    -0.304 N 
ATOM     25  C   UNL     1      -0.271   1.273   2.463  0.00  0.00    +0.244 C 
ATOM     26  O   UNL     1       0.725   0.583   2.570  0.00  0.00    -0.270 OA
ATOM     27  H   UNL     1      -1.536   2.143   1.157  0.00  0.00    +0.149 HD
BRANCH  25  28
ATOM     28  C   UNL     1      -0.966   1.759   3.674  0.00  0.00    +0.037 A 
ATOM     29  C   UNL     1      -2.106   2.555   3.556  0.00  0.00    +0.013 A 
ATOM     30  C   UNL     1      -2.752   3.003   4.689  0.00  0.00    +0.004 A 
ATOM     31  C   UNL     1      -2.267   2.672   5.942  0.00  0.00    -0.050 A 
ATOM     32  C   UNL     1      -1.135   1.887   6.067  0.00  0.00    +0.004 A 
ATOM     33  C   UNL     1      -0.482   1.429   4.941  0.00  0.00    +0.013 A 
ATOM     34  C   UNL     1      -2.975   3.168   7.176  0.00  0.00    +0.044 C 
ENDBRANCH  25  28
ENDBRANCH  23  24
ENDBRANCH   2  23
TORSDOF 8
