REMARK  Name = ZINC51916707
REMARK  7 active torsions:
REMARK  status: ('A' for Active; 'I' for Inactive)
REMARK    1  A    between atoms: C_1  and  C_2
REMARK    2  A    between atoms: C_2  and  N_3
REMARK    3  A    between atoms: C_7  and  C_9
REMARK    4  A    between atoms: C_9  and  N_10
REMARK    5  A    between atoms: C_14  and  C_17
REMARK    6  A    between atoms: C_17  and  C_18
REMARK    7  A    between atoms: C_18  and  O_19
REMARK                            x       y       z     vdW  Elec       q    Type
REMARK                         _______ _______ _______ _____ _____    ______ ____
ROOT
ATOM      1  C   UNL     1       2.302  -4.041  -3.995  0.00  0.00    +0.019 C 
ENDROOT
BRANCH   1   6
ATOM      2  N   UNL     1       0.688  -0.476  -1.203  0.00  0.00    -0.299 N 
ATOM      3  C   UNL     1       0.827  -1.799  -1.425  0.00  0.00    +0.306 C 
ATOM      4  O   UNL     1       0.383  -2.599  -0.625  0.00  0.00    -0.252 OA
ATOM      5  N   UNL     1       1.458  -2.233  -2.534  0.00  0.00    -0.242 N 
ATOM      6  C   UNL     1       1.597  -3.555  -2.756  0.00  0.00    +0.204 C 
ATOM      7  O   UNL     1       1.154  -4.354  -1.958  0.00  0.00    -0.277 OA
ATOM      8  H   UNL     1       1.042   0.162  -1.842  0.00  0.00    +0.150 HD
ATOM      9  H   UNL     1       1.812  -1.595  -3.172  0.00  0.00    +0.159 HD
BRANCH   2  11
ATOM     10  C   UNL     1      -0.019   1.526   0.010  0.00  0.00    +0.024 C 
ATOM     11  C   UNL     1       0.002  -0.004   0.002  0.00  0.00    +0.102 C 
ENDBRANCH   2  11
ENDBRANCH   1   6
BRANCH   1  12
ATOM     12  N   UNL     1       2.322  -5.510  -4.004  0.00  0.00    +0.386 N 
ATOM     13  C   UNL     1       3.126  -5.993  -2.875  0.00  0.00    -0.078 C 
ATOM     14  C   UNL     1       3.084  -7.522  -2.831  0.00  0.00    -0.018 C 
ATOM     15  C   UNL     1       3.650  -8.081  -4.139  0.00  0.00    -0.000 C 
ATOM     16  C   UNL     1       2.851  -7.512  -5.314  0.00  0.00    -0.026 C 
ATOM     17  C   UNL     1       2.902  -5.983  -5.266  0.00  0.00    -0.075 C 
ATOM     18  H   UNL     1       1.379  -5.859  -3.916  0.00  0.00    -0.081 HD
BRANCH  16  19
ATOM     19  C   UNL     1       3.457  -8.003  -6.630  0.00  0.00    +0.029 C 
BRANCH  19  20
ATOM     20  C   UNL     1       3.297  -9.521  -6.730  0.00  0.00    +0.156 C 
BRANCH  20  21
ATOM     21  O   UNL     1       3.863  -9.980  -7.960  0.00  0.00    -0.395 OA
ATOM     22  H   UNL     1       3.798 -10.936  -8.090  0.00  0.00    +0.209 HD
ENDBRANCH  20  21
ENDBRANCH  19  20
ENDBRANCH  16  19
ENDBRANCH   1  12
TORSDOF 6
