REMARK  Name = ZINC01874774
REMARK  12 active torsions:
REMARK  status: ('A' for Active; 'I' for Inactive)
REMARK    1  A    between atoms: C_1  and  C_2
REMARK    2  A    between atoms: C_2  and  O_3
REMARK    3  A    between atoms: O_3  and  C_4
REMARK    4  A    between atoms: C_7  and  N_10
REMARK    5  A    between atoms: C_11  and  C_32
REMARK    6  A    between atoms: C_14  and  S_15
REMARK    7  A    between atoms: S_15  and  C_16
REMARK    8  A    between atoms: C_16  and  C_17
REMARK    9  A    between atoms: N_19  and  N_20
REMARK   10  A    between atoms: N_20  and  C_21
REMARK   11  A    between atoms: C_21  and  C_23
REMARK   12  A    between atoms: C_26  and  N_29
REMARK                            x       y       z     vdW  Elec       q    Type
REMARK                         _______ _______ _______ _____ _____    ______ ____
ROOT
ATOM      1  N   UNL     1      -1.951  -5.997  -0.032  0.00  0.00    -0.270 N 
ATOM      2  C   UNL     1      -2.632  -6.750  -0.964  0.00  0.00    +0.169 A 
ATOM      3  N   UNL     1      -2.587  -7.997  -0.556  0.00  0.00    -0.128 NA
ATOM      4  N   UNL     1      -1.937  -8.076   0.549  0.00  0.00    -0.122 NA
ATOM      5  C   UNL     1      -1.519  -6.885   0.914  0.00  0.00    +0.197 A 
ENDROOT
BRANCH   2   6
ATOM      6  C   UNL     1      -3.288  -6.249  -2.190  0.00  0.00    +0.020 A 
ATOM      7  C   UNL     1      -2.953  -4.994  -2.700  0.00  0.00    +0.013 A 
ATOM      8  C   UNL     1      -3.568  -4.531  -3.845  0.00  0.00    +0.021 A 
ATOM      9  C   UNL     1      -4.516  -5.310  -4.488  0.00  0.00    +0.041 A 
ATOM     10  C   UNL     1      -4.852  -6.556  -3.986  0.00  0.00    +0.021 A 
ATOM     11  C   UNL     1      -4.240  -7.032  -2.845  0.00  0.00    +0.013 A 
ATOM     12 CL   UNL     1      -5.287  -4.722  -5.928  0.00  0.00    -0.084 Cl
ENDBRANCH   2   6
BRANCH   1  16
ATOM     13  C   UNL     1      -1.326  -1.873  -0.096  0.00  0.00    +0.121 A 
ATOM     14  C   UNL     1      -0.257  -2.739  -0.272  0.00  0.00    +0.047 A 
ATOM     15  C   UNL     1      -0.463  -4.104  -0.251  0.00  0.00    +0.030 A 
ATOM     16  C   UNL     1      -1.741  -4.609  -0.053  0.00  0.00    +0.051 A 
ATOM     17  C   UNL     1      -2.810  -3.742   0.123  0.00  0.00    +0.030 A 
ATOM     18  C   UNL     1      -2.602  -2.377   0.107  0.00  0.00    +0.047 A 
BRANCH  13  19
ATOM     19  O   UNL     1      -1.122  -0.529  -0.116  0.00  0.00    -0.492 OA
BRANCH  19  21
ATOM     20  C   UNL     1       0.249   1.451  -0.321  0.00  0.00    +0.048 C 
ATOM     21  C   UNL     1       0.217  -0.079  -0.330  0.00  0.00    +0.225 C 
ENDBRANCH  19  21
ENDBRANCH  13  19
ENDBRANCH   1  16
BRANCH   5  22
ATOM     22  S   UNL     1      -0.580  -6.502   2.355  0.00  0.00    -0.076 S 
BRANCH  22  23
ATOM     23  C   UNL     1      -0.346  -8.108   3.166  0.00  0.00    +0.174 C 
BRANCH  23  24
ATOM     24  C   UNL     1       0.453  -7.920   4.430  0.00  0.00    +0.239 C 
ATOM     25  O   UNL     1       0.827  -6.813   4.752  0.00  0.00    -0.273 OA
ATOM     26  N   UNL     1       0.751  -8.984   5.202  0.00  0.00    -0.236 N 
ATOM     27  H   UNL     1       0.451  -9.870   4.944  0.00  0.00    +0.173 HD
BRANCH  26  28
ATOM     28  N   UNL     1       1.494  -8.810   6.377  0.00  0.00    -0.264 N 
ATOM     29  H   UNL     1       1.793  -7.924   6.635  0.00  0.00    +0.170 HD
BRANCH  28  30
ATOM     30  C   UNL     1       1.802  -9.911   7.177  0.00  0.00    +0.044 C 
ATOM     31  C   UNL     1       1.391 -11.129   6.823  0.00  0.00    +0.035 C 
BRANCH  30  32
ATOM     32  C   UNL     1       2.588  -9.727   8.419  0.00  0.00    -0.003 A 
ATOM     33  C   UNL     1       3.015  -8.454   8.795  0.00  0.00    +0.012 A 
ATOM     34  C   UNL     1       3.747  -8.289   9.954  0.00  0.00    +0.033 A 
ATOM     35  C   UNL     1       4.056  -9.384  10.741  0.00  0.00    +0.126 A 
ATOM     36  C   UNL     1       3.635 -10.649  10.373  0.00  0.00    +0.033 A 
ATOM     37  C   UNL     1       2.898 -10.826   9.220  0.00  0.00    +0.012 A 
BRANCH  35  38
ATOM     38  N   UNL     1       4.841  -9.200  11.983  0.00  0.00    +0.056 N 
ATOM     39  O   UNL     1       5.210  -8.095  12.307  0.00  0.00    -0.126 OA
ATOM     40  O   UNL     1       5.113 -10.155  12.673  0.00  0.00    -0.126 OA
ENDBRANCH  35  38
ENDBRANCH  30  32
ENDBRANCH  28  30
ENDBRANCH  26  28
ENDBRANCH  23  24
ENDBRANCH  22  23
ENDBRANCH   5  22
TORSDOF 11
