REMARK  Name = ZINC01236077
REMARK  9 active torsions:
REMARK  status: ('A' for Active; 'I' for Inactive)
REMARK    1  A    between atoms: C_1  and  S_2
REMARK    2  A    between atoms: S_2  and  C_3
REMARK    3  A    between atoms: C_6  and  C_9
REMARK    4  A    between atoms: C_9  and  C_11
REMARK    5  A    between atoms: C_9  and  N_21
REMARK    6  A    between atoms: C_12  and  O_20
REMARK    7  A    between atoms: C_16  and  C_18
REMARK    8  A    between atoms: C_18  and  O_19
REMARK    9  A    between atoms: N_21  and  C_22
REMARK                            x       y       z     vdW  Elec       q    Type
REMARK                         _______ _______ _______ _____ _____    ______ ____
ROOT
ATOM      1  C   UNL     1       3.635  -1.981  -0.133  0.00  0.00    +0.172 C 
ENDROOT
BRANCH   1   2
ATOM      2  C   UNL     1       2.707  -2.412   0.974  0.00  0.00    +0.175 A 
ATOM      3  C   UNL     1       2.970  -3.546   1.661  0.00  0.00    +0.205 A 
ATOM      4  C   UNL     1       2.087  -3.936   2.705  0.00  0.00    +0.227 A 
ATOM      5  O   UNL     1       2.291  -4.951   3.354  0.00  0.00    -0.284 OA
ATOM      6  C   UNL     1       0.961  -3.117   2.970  0.00  0.00    +0.098 A 
ATOM      7  C   UNL     1       0.773  -2.005   2.232  0.00  0.00    +0.134 A 
ATOM      8  O   UNL     1       1.629  -1.669   1.260  0.00  0.00    -0.456 OA
BRANCH   3   9
ATOM      9  O   UNL     1       4.064  -4.298   1.362  0.00  0.00    -0.501 OA
ATOM     10  H   UNL     1       4.857  -4.053   1.857  0.00  0.00    +0.292 HD
ENDBRANCH   3   9
BRANCH   7  11
ATOM     11  C   UNL     1      -0.421  -1.127   2.504  0.00  0.00    +0.230 C 
BRANCH  11  12
ATOM     12  O   UNL     1      -0.073  -0.138   3.475  0.00  0.00    -0.387 OA
ATOM     13  H   UNL     1      -0.796   0.464   3.700  0.00  0.00    +0.210 HD
ENDBRANCH  11  12
ENDBRANCH   7  11
ENDBRANCH   1   2
BRANCH   1  17
ATOM     14  C   UNL     1       1.822  -2.806  -3.914  0.00  0.00    +0.008 A 
ATOM     15  C   UNL     1       2.830  -3.631  -3.430  0.00  0.00    +0.015 A 
ATOM     16  C   UNL     1       3.413  -3.362  -2.208  0.00  0.00    +0.007 A 
ATOM     17  C   UNL     1       2.996  -2.272  -1.466  0.00  0.00    -0.020 A 
ATOM     18  C   UNL     1       1.989  -1.452  -1.942  0.00  0.00    +0.007 A 
ATOM     19  C   UNL     1       1.405  -1.712  -3.165  0.00  0.00    +0.015 A 
BRANCH  14  21
ATOM     20  C   UNL     1      -0.155  -1.826  -5.667  0.00  0.00    +0.090 C 
ATOM     21  S   UNL     1       1.074  -3.146  -5.473  0.00  0.00    -0.129 S 
ENDBRANCH  14  21
ENDBRANCH   1  17
BRANCH   1  22
ATOM     22  N   UNL     1       3.896  -0.544  -0.019  0.00  0.00    -0.317 N 
ATOM     23  H   UNL     1       3.276   0.025   0.462  0.00  0.00    +0.148 HD
BRANCH  22  24
ATOM     24  C   UNL     1       5.033   0.003  -0.601  0.00  0.00    +0.097 A 
ATOM     25  C   UNL     1       5.963  -0.830  -1.216  0.00  0.00    +0.041 A 
ATOM     26  C   UNL     1       7.090  -0.271  -1.791  0.00  0.00    +0.005 A 
ATOM     27  C   UNL     1       7.250   1.107  -1.733  0.00  0.00    +0.018 A 
ATOM     28  C   UNL     1       6.288   1.873  -1.107  0.00  0.00    +0.084 A 
ATOM     29  N   UNL     1       5.169   1.359  -0.530  0.00  0.00    -0.350 N 
ATOM     30  H   UNL     1       4.469   1.954  -0.071  0.00  0.00    +0.166 HD
ENDBRANCH  22  24
ENDBRANCH   1  22
TORSDOF 8
