REMARK  Name = ZINC32528644
REMARK  7 active torsions:
REMARK  status: ('A' for Active; 'I' for Inactive)
REMARK    1  A    between atoms: C_1  and  C_2
REMARK    2  A    between atoms: C_4  and  S_12
REMARK    3  A    between atoms: S_12  and  C_13
REMARK    4  A    between atoms: C_13  and  C_15
REMARK    5  A    between atoms: C_13  and  C_16
REMARK    6  A    between atoms: N_18  and  C_19
REMARK    7  A    between atoms: C_20  and  C_28
REMARK                            x       y       z     vdW  Elec       q    Type
REMARK                         _______ _______ _______ _____ _____    ______ ____
ROOT
ATOM      1  C   UNL     1       1.147   1.655   0.000  0.00  0.00    +0.231 C 
ATOM      2  O   UNL     1       1.130   2.868   0.007  0.00  0.00    -0.274 OA
ATOM      3  N   UNL     1      -0.011   0.966   0.007  0.00  0.00    -0.278 N 
ATOM      4  H   UNL     1       0.004  -0.134   0.006  0.00  0.00    +0.155 HD
ENDROOT
BRANCH   3   5
ATOM      5  C   UNL     1      -1.221   1.643   0.017  0.00  0.00    +0.084 A 
ATOM      6  C   UNL     1      -2.505   1.115   0.014  0.00  0.00    +0.068 A 
ATOM      7  C   UNL     1      -3.616   2.051   0.029  0.00  0.00    -0.023 A 
ATOM      8  C   UNL     1      -3.268   3.356   0.034  0.00  0.00    -0.004 A 
ATOM      9  S   UNL     1      -1.498   3.353   0.027  0.00  0.00    -0.077 S 
ATOM     10  C   UNL     1      -4.191   4.536   0.044  0.00  0.00    +0.043 C 
ATOM     11  C   UNL     1      -5.599   4.052  -0.331  0.00  0.00    +0.005 C 
ATOM     12  C   UNL     1      -5.931   2.810   0.501  0.00  0.00    +0.005 C 
ATOM     13  C   UNL     1      -5.080   1.628   0.034  0.00  0.00    +0.037 C 
BRANCH   6  14
ATOM     14  C   UNL     1      -2.731  -0.334   0.001  0.00  0.00    +0.244 C 
ATOM     15  O   UNL     1      -2.823  -0.945   1.050  0.00  0.00    -0.270 OA
ATOM     16  N   UNL     1      -2.837  -0.989  -1.172  0.00  0.00    -0.325 N 
ATOM     17  H   UNL     1      -3.006  -2.075  -1.182  0.00  0.00    +0.145 HD
ATOM     18  H   UNL     1      -2.753  -0.436  -2.120  0.00  0.00    +0.145 HD
ENDBRANCH   6  14
ENDBRANCH   3   5
BRANCH   1  19
ATOM     19  C   UNL     1       2.462   0.920  -0.017  0.00  0.00    +0.136 C 
ATOM     20  C   UNL     1       2.798   0.445   1.398  0.00  0.00    +0.029 C 
BRANCH  19  21
ATOM     21  S   UNL     1       3.766   2.028  -0.607  0.00  0.00    -0.093 S 
BRANCH  21  25
ATOM     22  C   UNL     1       8.789   0.975  -1.595  0.00  0.00    +0.044 C 
ATOM     23  C   UNL     1       7.431   0.503  -1.145  0.00  0.00    -0.039 A 
ATOM     24  C   UNL     1       6.375   1.363  -1.091  0.00  0.00    +0.038 A 
ATOM     25  C   UNL     1       5.119   0.902  -0.669  0.00  0.00    +0.099 A 
ATOM     26  N   UNL     1       4.930  -0.353  -0.314  0.00  0.00    -0.240 NA
ATOM     27  C   UNL     1       5.928  -1.243  -0.351  0.00  0.00    +0.072 A 
ATOM     28  C   UNL     1       7.219  -0.839  -0.768  0.00  0.00    +0.003 A 
ATOM     29  C   UNL     1       8.263  -1.777  -0.799  0.00  0.00    +0.010 A 
ATOM     30  C   UNL     1       8.022  -3.065  -0.428  0.00  0.00    +0.001 A 
ATOM     31  C   UNL     1       6.753  -3.465  -0.017  0.00  0.00    +0.002 A 
ATOM     32  C   UNL     1       5.718  -2.581   0.025  0.00  0.00    +0.028 A 
ENDBRANCH  21  25
ENDBRANCH  19  21
ENDBRANCH   1  19
TORSDOF 5
