REMARK  Name = ZINC33709681
REMARK  8 active torsions:
REMARK  status: ('A' for Active; 'I' for Inactive)
REMARK    1  A    between atoms: C_1  and  C_2
REMARK    2  A    between atoms: C_2  and  C_27
REMARK    3  A    between atoms: C_7  and  C_10
REMARK    4  A    between atoms: C_15  and  O_16
REMARK    5  A    between atoms: N_20  and  C_23
REMARK    6  A    between atoms: C_23  and  C_24
REMARK    7  A    between atoms: C_23  and  C_25
REMARK    8  A    between atoms: C_23  and  C_26
REMARK                            x       y       z     vdW  Elec       q    Type
REMARK                         _______ _______ _______ _____ _____    ______ ____
ROOT
ATOM      1  C   UNL     1       0.124  -1.237   5.974  0.00  0.00    +0.002 C 
ATOM      2  C   UNL     1       0.075  -0.213   4.839  0.00  0.00    +0.045 C 
ATOM      3  C   UNL     1      -1.387   0.157   4.511  0.00  0.00    +0.086 C 
ATOM      4  C   UNL     1      -1.419   0.325   2.968  0.00  0.00    +0.077 C 
ATOM      5  C   UNL     1       0.026   0.040   2.509  0.00  0.00    -0.023 C 
ATOM      6  N   UNL     1       0.604  -0.806   3.584  0.00  0.00    +0.395 N 
ATOM      7  C   UNL     1      -2.326  -0.824   2.527  0.00  0.00    +0.225 C 
ATOM      8  O   UNL     1      -2.628  -1.074   1.380  0.00  0.00    -0.275 OA
ATOM      9  N   UNL     1      -2.739  -1.506   3.602  0.00  0.00    -0.236 N 
ATOM     10  C   UNL     1      -2.273  -1.041   4.767  0.00  0.00    +0.225 C 
ATOM     11  O   UNL     1      -2.522  -1.509   5.857  0.00  0.00    -0.275 OA
ATOM     12  H   UNL     1       1.703  -0.766   3.595  0.00  0.00    -0.083 HD
ATOM     13  H   UNL     1       0.275  -1.853   3.507  0.00  0.00    -0.083 HD
ENDROOT
BRANCH   5  14
ATOM     14  C   UNL     1       0.023  -0.705   1.199  0.00  0.00    -0.018 A 
ATOM     15  C   UNL     1       0.042  -2.086   1.189  0.00  0.00    +0.020 A 
ATOM     16  C   UNL     1       0.040  -2.771  -0.013  0.00  0.00    +0.018 A 
ATOM     17  C   UNL     1       0.019  -2.073  -1.208  0.00  0.00    +0.019 A 
ATOM     18  C   UNL     1      -0.006  -0.692  -1.203  0.00  0.00    +0.047 A 
ATOM     19  C   UNL     1       0.002  -0.004   0.002  0.00  0.00    +0.119 A 
ATOM     20 BR   UNL     1       0.066  -4.661  -0.024  0.00  0.00    -0.050 Br
BRANCH  19  21
ATOM     21  O   UNL     1      -0.016   1.355   0.009  0.00  0.00    -0.507 OA
ATOM     22  H   UNL     1      -0.033   1.910  -0.940  0.00  0.00    +0.292 HD
ENDBRANCH  19  21
ENDBRANCH   5  14
BRANCH   9  23
ATOM     23  C   UNL     1      -3.629  -2.666   3.510  0.00  0.00    +0.036 C 
ATOM     24  C   UNL     1      -4.914  -2.386   4.293  0.00  0.00    +0.031 C 
ATOM     25  C   UNL     1      -3.973  -2.930   2.043  0.00  0.00    +0.031 C 
ATOM     26  C   UNL     1      -2.930  -3.893   4.099  0.00  0.00    +0.031 C 
ENDBRANCH   9  23
BRANCH   2  27
ATOM     27  C   UNL     1       0.860   1.019   5.209  0.00  0.00    +0.346 C 
ATOM     28  O   UNL     1       0.300   1.966   5.708  0.00  0.00    -0.248 OA
ATOM     29  O   UNL     1       2.183   1.064   4.984  0.00  0.00    -0.248 OA
ENDBRANCH   2  27
TORSDOF 4
