REMARK  Name = ZINC35713295
REMARK  11 active torsions:
REMARK  status: ('A' for Active; 'I' for Inactive)
REMARK    1  A    between atoms: C_1  and  C_2
REMARK    2  A    between atoms: C_2  and  C_3
REMARK    3  A    between atoms: C_3  and  C_5
REMARK    4  A    between atoms: C_3  and  N_6
REMARK    5  A    between atoms: N_6  and  C_7
REMARK    6  A    between atoms: N_6  and  C_16
REMARK    7  A    between atoms: C_7  and  C_8
REMARK    8  A    between atoms: C_16  and  C_17
REMARK    9  A    between atoms: C_19  and  C_22
REMARK   10  A    between atoms: N_24  and  C_25
REMARK   11  A    between atoms: C_25  and  C_26
REMARK                            x       y       z     vdW  Elec       q    Type
REMARK                         _______ _______ _______ _____ _____    ______ ____
ROOT
ATOM      1  C   UNL     1      -2.075   1.913   4.436  0.00  0.00    +0.179 A 
ATOM      2  N   UNL     1      -2.539   1.870   5.649  0.00  0.00    -0.210 NA
ATOM      3  C   UNL     1      -3.852   2.228   5.620  0.00  0.00    +0.163 A 
ATOM      4  C   UNL     1      -4.166   2.493   4.323  0.00  0.00    +0.230 A 
ATOM      5  O   UNL     1      -3.051   2.297   3.602  0.00  0.00    -0.449 OA
ENDROOT
BRANCH   3   6
ATOM      6  C   UNL     1      -4.762   2.313   6.777  0.00  0.00    +0.266 C 
ATOM      7  O   UNL     1      -5.920   2.648   6.617  0.00  0.00    -0.268 OA
ATOM      8  N   UNL     1      -4.310   2.019   8.012  0.00  0.00    -0.306 N 
ATOM      9  H   UNL     1      -3.387   1.752   8.140  0.00  0.00    +0.149 HD
BRANCH   8  10
ATOM     10  C   UNL     1      -5.215   2.103   9.162  0.00  0.00    +0.140 C 
BRANCH  10  11
ATOM     11  C   UNL     1      -4.469   1.727  10.416  0.00  0.00    -0.030 A 
ATOM     12  C   UNL     1      -4.432   0.408  10.829  0.00  0.00    +0.008 A 
ATOM     13  C   UNL     1      -3.748   0.062  11.979  0.00  0.00    +0.038 A 
ATOM     14  C   UNL     1      -3.099   1.037  12.718  0.00  0.00    +0.123 A 
ATOM     15  C   UNL     1      -3.138   2.357  12.304  0.00  0.00    +0.038 A 
ATOM     16  C   UNL     1      -3.818   2.700  11.151  0.00  0.00    +0.008 A 
ATOM     17  F   UNL     1      -2.431   0.700  13.842  0.00  0.00    -0.205 F 
ENDBRANCH  10  11
ENDBRANCH   8  10
ENDBRANCH   3   6
BRANCH   1  18
ATOM     18  C   UNL     1      -0.660   1.587   4.032  0.00  0.00    +0.020 C 
BRANCH  18  19
ATOM     19  N   UNL     1      -0.574   0.173   3.644  0.00  0.00    +0.390 N 
ATOM     20  H   UNL     1      -0.949  -0.402   4.383  0.00  0.00    -0.080 HD
BRANCH  19  21
ATOM     21  C   UNL     1      -1.347  -0.045   2.414  0.00  0.00    -0.071 C 
ATOM     22  C   UNL     1      -0.591   0.549   1.224  0.00  0.00    -0.013 C 
BRANCH  21  24
ATOM     23  C   UNL     1      -2.470  -2.102   3.281  0.00  0.00    +0.002 C 
ATOM     24  C   UNL     1      -1.545  -1.546   2.196  0.00  0.00    -0.019 C 
ENDBRANCH  21  24
ENDBRANCH  19  21
BRANCH  19  25
ATOM     25  C   UNL     1       0.831  -0.186   3.409  0.00  0.00    -0.040 C 
BRANCH  25  26
ATOM     26  C   UNL     1       1.010  -1.669   3.604  0.00  0.00    -0.046 A 
ATOM     27  C   UNL     1       0.177  -2.358   4.465  0.00  0.00    +0.004 A 
ATOM     28  C   UNL     1       0.340  -3.719   4.645  0.00  0.00    +0.020 A 
ATOM     29  C   UNL     1       1.338  -4.392   3.962  0.00  0.00    +0.042 A 
ATOM     30  C   UNL     1       2.171  -3.703   3.099  0.00  0.00    +0.040 A 
ATOM     31  C   UNL     1       2.004  -2.342   2.916  0.00  0.00    +0.044 A 
ATOM     32 CL   UNL     1       3.046  -1.478   1.830  0.00  0.00    -0.083 Cl
ATOM     33 CL   UNL     1       1.544  -6.101   4.188  0.00  0.00    -0.083 Cl
ENDBRANCH  25  26
ENDBRANCH  19  25
ENDBRANCH  18  19
ENDBRANCH   1  18
TORSDOF 9
