REMARK  Name = ZINC35189295
REMARK  5 active torsions:
REMARK  status: ('A' for Active; 'I' for Inactive)
REMARK    1  A    between atoms: C_1  and  C_2
REMARK    2  A    between atoms: C_5  and  C_8
REMARK    3  A    between atoms: C_11  and  C_14
REMARK    4  A    between atoms: C_16  and  N_21
REMARK    5  A    between atoms: C_19  and  O_20
REMARK                            x       y       z     vdW  Elec       q    Type
REMARK                         _______ _______ _______ _____ _____    ______ ____
ROOT
ATOM      1  C   UNL     1       0.061  -4.251  -0.021  0.00  0.00    +0.124 C 
ATOM      2  N   UNL     1       0.072  -5.046  -1.049  0.00  0.00    -0.178 NA
ATOM      3  N   UNL     1       0.091  -6.419  -0.941  0.00  0.00    -0.250 N 
ATOM      4  C   UNL     1       0.098  -6.944   0.443  0.00  0.00    +0.186 C 
ATOM      5  S   UNL     1       0.083  -5.359   1.379  0.00  0.00    -0.075 S 
ATOM      6  H   UNL     1       0.099  -7.001  -1.717  0.00  0.00    +0.170 HD
ENDROOT
BRANCH   1  11
ATOM      7  C   UNL     1      -0.018   1.503   0.010  0.00  0.00    +0.044 C 
ATOM      8  C   UNL     1       0.002  -0.004   0.002  0.00  0.00    -0.050 A 
ATOM      9  C   UNL     1       0.006  -0.686  -1.202  0.00  0.00    +0.004 A 
ATOM     10  C   UNL     1       0.025  -2.066  -1.216  0.00  0.00    +0.011 A 
ATOM     11  C   UNL     1       0.041  -2.773  -0.013  0.00  0.00    +0.008 A 
ATOM     12  C   UNL     1       0.037  -2.079   1.198  0.00  0.00    +0.011 A 
ATOM     13  C   UNL     1       0.023  -0.699   1.198  0.00  0.00    +0.004 A 
ENDBRANCH   1  11
BRANCH   4  14
ATOM     14  C   UNL     1      -1.133  -7.765   0.724  0.00  0.00    +0.028 A 
ATOM     15  C   UNL     1      -1.686  -8.546  -0.273  0.00  0.00    +0.042 A 
ATOM     16  C   UNL     1      -2.816  -9.300  -0.015  0.00  0.00    +0.127 A 
ATOM     17  C   UNL     1      -3.395  -9.275   1.240  0.00  0.00    +0.036 A 
ATOM     18  C   UNL     1      -2.847  -8.496   2.240  0.00  0.00    +0.048 A 
ATOM     19  C   UNL     1      -1.710  -7.743   1.986  0.00  0.00    +0.123 A 
BRANCH  16  20
ATOM     20  N   UNL     1      -3.406 -10.136  -1.085  0.00  0.00    +0.056 N 
ATOM     21  O   UNL     1      -2.900 -10.158  -2.183  0.00  0.00    -0.126 OA
ATOM     22  O   UNL     1      -4.394 -10.796  -0.861  0.00  0.00    -0.126 OA
ENDBRANCH  16  20
BRANCH  19  23
ATOM     23  O   UNL     1      -1.165  -6.979   2.969  0.00  0.00    -0.506 OA
ATOM     24  H   UNL     1      -1.516  -6.079   3.009  0.00  0.00    +0.292 HD
ENDBRANCH  19  23
ENDBRANCH   4  14
TORSDOF 4
