REMARK  Name = ZINC65248546
REMARK  7 active torsions:
REMARK  status: ('A' for Active; 'I' for Inactive)
REMARK    1  A    between atoms: C_1  and  C_2
REMARK    2  A    between atoms: C_2  and  C_3
REMARK    3  A    between atoms: C_2  and  O_4
REMARK    4  A    between atoms: O_4  and  C_5
REMARK    5  A    between atoms: C_8  and  C_11
REMARK    6  A    between atoms: C_14  and  C_17
REMARK    7  A    between atoms: C_19  and  O_30
REMARK                            x       y       z     vdW  Elec       q    Type
REMARK                         _______ _______ _______ _____ _____    ______ ____
ROOT
ATOM      1  C   UNL     1      -3.925  -0.945  -4.944  0.00  0.00    +0.168 C 
ATOM      2  N   UNL     1      -3.358  -0.729  -6.086  0.00  0.00    -0.067 NA
ATOM      3  O   UNL     1      -4.272  -0.923  -7.149  0.00  0.00    -0.368 OA
ATOM      4  C   UNL     1      -5.523  -1.297  -6.549  0.00  0.00    +0.311 C 
ATOM      5  N   UNL     1      -5.251  -1.304  -5.103  0.00  0.00    -0.289 N 
ATOM      6  H   UNL     1      -5.881  -1.519  -4.398  0.00  0.00    +0.151 HD
ENDROOT
BRANCH   4   7
ATOM      7  C   UNL     1      -6.606  -0.272  -6.891  0.00  0.00    +0.202 C 
ATOM      8  C   UNL     1      -6.796  -0.280  -8.396  0.00  0.00    +0.120 C 
ATOM      9  C   UNL     1      -8.076  -0.566  -8.871  0.00  0.00    +0.035 A 
ATOM     10  C   UNL     1      -8.337  -0.594 -10.258  0.00  0.00    +0.016 A 
ATOM     11  C   UNL     1      -9.591  -0.875 -10.702  0.00  0.00    +0.039 A 
ATOM     12  C   UNL     1     -10.632  -1.137  -9.812  0.00  0.00    +0.125 A 
ATOM     13  C   UNL     1     -10.437  -1.124  -8.450  0.00  0.00    +0.062 A 
ATOM     14  C   UNL     1      -9.165  -0.841  -7.929  0.00  0.00    +0.047 A 
ATOM     15  N   UNL     1      -8.977  -0.827  -6.603  0.00  0.00    -0.284 N 
ATOM     16  C   UNL     1      -7.816  -0.573  -6.037  0.00  0.00    +0.233 C 
ATOM     17  O   UNL     1      -7.717  -0.580  -4.823  0.00  0.00    -0.274 OA
ATOM     18  F   UNL     1     -11.863  -1.411 -10.299  0.00  0.00    -0.205 F 
ATOM     19  H   UNL     1      -9.736  -1.016  -6.029  0.00  0.00    +0.155 HD
BRANCH   8  20
ATOM     20  O   UNL     1      -5.782  -0.025  -9.229  0.00  0.00    -0.509 OA
ATOM     21  H   UNL     1      -6.024  -0.059 -10.165  0.00  0.00    +0.292 HD
ENDBRANCH   8  20
ENDBRANCH   4   7
BRANCH   1  25
ATOM     22  C   UNL     1      -1.965  -0.607  -1.188  0.00  0.00    +0.121 A 
ATOM     23  C   UNL     1      -1.266  -0.348  -2.360  0.00  0.00    +0.046 A 
ATOM     24  C   UNL     1      -1.899  -0.457  -3.580  0.00  0.00    +0.015 A 
ATOM     25  C   UNL     1      -3.243  -0.827  -3.636  0.00  0.00    +0.018 A 
ATOM     26  C   UNL     1      -3.942  -1.087  -2.457  0.00  0.00    +0.015 A 
ATOM     27  C   UNL     1      -3.301  -0.981  -1.241  0.00  0.00    +0.046 A 
BRANCH  22  28
ATOM     28  O   UNL     1      -1.339  -0.499   0.012  0.00  0.00    -0.489 OA
BRANCH  28  30
ATOM     29  C   UNL     1       0.290   1.280  -0.135  0.00  0.00    +0.051 C 
ATOM     30  C   UNL     1       0.064  -0.228  -0.010  0.00  0.00    +0.167 C 
ATOM     31  C   UNL     1       0.703  -0.734   1.285  0.00  0.00    +0.051 C 
ENDBRANCH  28  30
ENDBRANCH  22  28
ENDBRANCH   1  25
TORSDOF 5
