REMARK  Name = ZINC36595158
REMARK  14 active torsions:
REMARK  status: ('A' for Active; 'I' for Inactive)
REMARK    1  A    between atoms: C_1  and  C_2
REMARK    2  A    between atoms: C_2  and  C_3
REMARK    3  A    between atoms: C_3  and  C_4
REMARK    4  A    between atoms: C_4  and  N_5
REMARK    5  A    between atoms: C_6  and  C_8
REMARK    6  A    between atoms: C_8  and  C_10
REMARK    7  A    between atoms: C_8  and  N_18
REMARK    8  A    between atoms: C_13  and  C_17
REMARK    9  A    between atoms: C_15  and  C_16
REMARK   10  A    between atoms: N_18  and  C_19
REMARK   11  A    between atoms: C_19  and  C_20
REMARK   12  A    between atoms: C_23  and  C_25
REMARK   13  A    between atoms: C_26  and  C_28
REMARK   14  A    between atoms: C_28  and  C_29
REMARK                            x       y       z     vdW  Elec       q    Type
REMARK                         _______ _______ _______ _____ _____    ______ ____
ROOT
ATOM      1  N   UNL     1       2.110  -5.855  -4.236  0.00  0.00    -0.278 N 
ATOM      2  C   UNL     1       0.838  -6.301  -4.213  0.00  0.00    +0.221 C 
ATOM      3  O   UNL     1      -0.062  -5.549  -3.906  0.00  0.00    -0.275 OA
ENDROOT
BRANCH   1   4
ATOM      4  C   UNL     1       2.404  -4.462  -3.891  0.00  0.00    +0.193 C 
BRANCH   4   5
ATOM      5  C   UNL     1       1.591  -3.545  -4.768  0.00  0.00    -0.015 A 
ATOM      6  C   UNL     1       0.486  -2.894  -4.250  0.00  0.00    +0.006 A 
ATOM      7  C   UNL     1      -0.260  -2.053  -5.054  0.00  0.00    +0.004 A 
ATOM      8  C   UNL     1       0.099  -1.862  -6.375  0.00  0.00    -0.050 A 
ATOM      9  C   UNL     1       1.204  -2.511  -6.892  0.00  0.00    +0.007 A 
ATOM     10  C   UNL     1       1.953  -3.350  -6.087  0.00  0.00    -0.045 A 
ATOM     11  C   UNL     1       3.160  -4.054  -6.649  0.00  0.00    +0.044 C 
ATOM     12  C   UNL     1      -0.715  -0.945  -7.252  0.00  0.00    +0.044 C 
ENDBRANCH   4   5
BRANCH   4  14
ATOM     13  N   UNL     1       2.466  -3.091  -1.834  0.00  0.00    -0.313 N 
ATOM     14  C   UNL     1       2.053  -4.218  -2.446  0.00  0.00    +0.238 C 
ATOM     15  O   UNL     1       1.400  -5.036  -1.834  0.00  0.00    -0.273 OA
ATOM     16  H   UNL     1       3.048  -2.470  -2.300  0.00  0.00    +0.149 HD
BRANCH  13  17
ATOM     17  C   UNL     1       2.037  -2.802  -0.463  0.00  0.00    +0.104 C 
BRANCH  17  18
ATOM     18  C   UNL     1       2.642  -1.472  -0.008  0.00  0.00    +0.018 C 
BRANCH  18  20
ATOM     19  C   UNL     1       2.798   0.159   1.878  0.00  0.00    +0.004 C 
ATOM     20  C   UNL     1       2.193  -1.171   1.423  0.00  0.00    -0.002 C 
ENDBRANCH  18  20
ENDBRANCH  17  18
ENDBRANCH  13  17
ENDBRANCH   4  14
ENDBRANCH   1   4
BRANCH   1  21
ATOM     21  C   UNL     1       3.198  -6.764  -4.607  0.00  0.00    +0.183 C 
BRANCH  21  22
ATOM     22  C   UNL     1       3.802  -7.359  -3.361  0.00  0.00    +0.122 A 
ATOM     23  C   UNL     1       3.488  -8.553  -2.828  0.00  0.00    +0.046 A 
ATOM     24  C   UNL     1       4.289  -8.709  -1.673  0.00  0.00    +0.045 A 
ATOM     25  C   UNL     1       5.045  -7.601  -1.571  0.00  0.00    +0.102 A 
ATOM     26  O   UNL     1       4.750  -6.789  -2.599  0.00  0.00    -0.463 OA
ATOM     27  C   UNL     1       6.055  -7.321  -0.488  0.00  0.00    +0.086 C 
ENDBRANCH  21  22
ENDBRANCH   1  21
BRANCH   2  28
ATOM     28  C   UNL     1       0.535  -7.734  -4.568  0.00  0.00    +0.131 C 
BRANCH  28  29
ATOM     29  C   UNL     1      -0.949  -7.974  -4.464  0.00  0.00    -0.039 A 
ATOM     30  C   UNL     1      -1.499  -8.391  -3.266  0.00  0.00    +0.005 A 
ATOM     31  C   UNL     1      -2.860  -8.611  -3.171  0.00  0.00    +0.015 A 
ATOM     32  C   UNL     1      -3.672  -8.415  -4.273  0.00  0.00    +0.018 A 
ATOM     33  C   UNL     1      -3.121  -7.997  -5.471  0.00  0.00    +0.015 A 
ATOM     34  C   UNL     1      -1.760  -7.772  -5.565  0.00  0.00    +0.005 A 
ATOM     35 BR   UNL     1      -5.534  -8.716  -4.143  0.00  0.00    -0.050 Br
ENDBRANCH  28  29
ENDBRANCH   2  28
TORSDOF 10
