REMARK  Name = ZINC09689952
REMARK  11 active torsions:
REMARK  status: ('A' for Active; 'I' for Inactive)
REMARK    1  A    between atoms: C_1  and  C_2
REMARK    2  A    between atoms: C_2  and  O_3
REMARK    3  A    between atoms: O_3  and  C_4
REMARK    4  A    between atoms: C_7  and  S_10
REMARK    5  A    between atoms: S_10  and  N_13
REMARK    6  A    between atoms: N_13  and  C_14
REMARK    7  A    between atoms: C_17  and  C_20
REMARK    8  A    between atoms: N_22  and  C_23
REMARK    9  A    between atoms: C_23  and  C_24
REMARK   10  A    between atoms: C_24  and  C_26
REMARK   11  A    between atoms: C_24  and  N_63
REMARK                            x       y       z     vdW  Elec       q    Type
REMARK                         _______ _______ _______ _____ _____    ______ ____
ROOT
ATOM      1  C   UNL     1       1.495   2.026  -0.493  0.00  0.00    +0.048 A 
ATOM      2  C   UNL     1       2.620   1.388   0.022  0.00  0.00    +0.025 A 
ATOM      3  C   UNL     1       3.862   1.966  -0.112  0.00  0.00    +0.015 A 
ATOM      4  C   UNL     1       3.992   3.199  -0.757  0.00  0.00    +0.037 A 
ATOM      5  C   UNL     1       2.859   3.840  -1.269  0.00  0.00    +0.015 A 
ATOM      6  C   UNL     1       1.621   3.254  -1.136  0.00  0.00    +0.025 A 
ENDROOT
BRANCH   4   7
ATOM      7  C   UNL     1       5.321   3.824  -0.899  0.00  0.00    +0.244 C 
ATOM      8  O   UNL     1       5.432   4.896  -1.460  0.00  0.00    -0.270 OA
ATOM      9  N   UNL     1       6.412   3.205  -0.405  0.00  0.00    -0.312 N 
ATOM     10  H   UNL     1       6.323   2.349   0.043  0.00  0.00    +0.149 HD
BRANCH   9  11
ATOM     11  C   UNL     1       7.732   3.825  -0.546  0.00  0.00    +0.097 C 
BRANCH  11  12
ATOM     12  C   UNL     1       8.772   2.983   0.196  0.00  0.00    +0.016 C 
BRANCH  12  17
ATOM     13  C   UNL     1       9.962   5.007   0.842  0.00  0.00    -0.078 C 
ATOM     14  C   UNL     1      11.432   5.339   1.204  0.00  0.00    -0.020 C 
ATOM     15  C   UNL     1      12.005   3.963   1.615  0.00  0.00    -0.020 C 
ATOM     16  C   UNL     1      11.081   2.927   0.950  0.00  0.00    -0.078 C 
ATOM     17  N   UNL     1      10.087   3.692   0.195  0.00  0.00    +0.387 N 
ATOM     18  H   UNL     1      10.405   3.811  -0.774  0.00  0.00    -0.081 HD
ENDBRANCH  12  17
BRANCH  12  19
ATOM     19  C   UNL     1       8.914   1.646  -0.484  0.00  0.00    +0.093 A 
ATOM     20  C   UNL     1       8.346   0.495  -0.083  0.00  0.00    +0.043 A 
ATOM     21  C   UNL     1       8.743  -0.500  -1.005  0.00  0.00    +0.041 A 
ATOM     22  C   UNL     1       9.530   0.102  -1.914  0.00  0.00    +0.195 A 
ATOM     23  O   UNL     1       9.626   1.403  -1.597  0.00  0.00    -0.469 OA
ENDBRANCH  12  19
ENDBRANCH  11  12
ENDBRANCH   9  11
ENDBRANCH   4   7
BRANCH   1  24
ATOM     24  N   UNL     1       0.243   1.437  -0.361  0.00  0.00    -0.216 N 
ATOM     25  H   UNL     1      -0.517   1.970  -0.078  0.00  0.00    +0.174 HD
BRANCH  24  26
ATOM     26  S   UNL     1       0.045  -0.173  -0.693  0.00  0.00    +0.072 S 
ATOM     27  O   UNL     1       1.049  -0.865   0.038  0.00  0.00    -0.150 OA
ATOM     28  O   UNL     1      -1.339  -0.454  -0.539  0.00  0.00    -0.150 OA
BRANCH  26  32
ATOM     29  C   UNL     1       1.004  -0.763  -5.079  0.00  0.00    +0.121 A 
ATOM     30  C   UNL     1       1.982  -0.979  -4.120  0.00  0.00    +0.047 A 
ATOM     31  C   UNL     1       1.687  -0.798  -2.782  0.00  0.00    +0.032 A 
ATOM     32  C   UNL     1       0.418  -0.403  -2.400  0.00  0.00    +0.109 A 
ATOM     33  C   UNL     1      -0.560  -0.193  -3.354  0.00  0.00    +0.032 A 
ATOM     34  C   UNL     1      -0.268  -0.366  -4.693  0.00  0.00    +0.047 A 
BRANCH  29  35
ATOM     35  O   UNL     1       1.292  -0.939  -6.396  0.00  0.00    -0.492 OA
BRANCH  35  37
ATOM     36  C   UNL     1       0.745  -0.947  -8.750  0.00  0.00    +0.048 C 
ATOM     37  C   UNL     1       0.236  -0.699  -7.329  0.00  0.00    +0.225 C 
ENDBRANCH  35  37
ENDBRANCH  29  35
ENDBRANCH  26  32
ENDBRANCH  24  26
ENDBRANCH   1  24
TORSDOF 10
