REMARK  Name = ZINC31773806
REMARK  7 active torsions:
REMARK  status: ('A' for Active; 'I' for Inactive)
REMARK    1  A    between atoms: C_1  and  C_2
REMARK    2  A    between atoms: C_2  and  C_3
REMARK    3  A    between atoms: C_3  and  C_5
REMARK    4  A    between atoms: C_3  and  N_6
REMARK    5  A    between atoms: N_10  and  C_20
REMARK    6  A    between atoms: C_23  and  O_27
REMARK    7  A    between atoms: O_27  and  C_28
REMARK                            x       y       z     vdW  Elec       q    Type
REMARK                         _______ _______ _______ _____ _____    ______ ____
ROOT
ATOM      1  N   UNL     1       2.438   0.204  -0.667  0.00  0.00    +0.391 N 
ATOM      2  C   UNL     1       2.469   1.643  -0.375  0.00  0.00    +0.020 C 
ATOM      3  C   UNL     1       1.106   2.235  -0.604  0.00  0.00    +0.203 C 
ATOM      4  O   UNL     1       1.010   3.434  -0.763  0.00  0.00    -0.277 OA
ATOM      5  N   UNL     1      -0.003   1.491  -0.638  0.00  0.00    -0.270 N 
ATOM      6  C   UNL     1      -0.005   0.041  -0.480  0.00  0.00    +0.090 C 
ATOM      7  C   UNL     1       1.343  -0.450   0.058  0.00  0.00    -0.024 C 
ATOM      8  C   UNL     1       1.442  -0.076   1.562  0.00  0.00    +0.152 C 
ATOM      9  S   UNL     1      -0.279  -0.436   2.114  0.00  0.00    -0.031 S 
ATOM     10  O   UNL     1      -0.734   0.631   2.935  0.00  0.00    -0.174 OA
ATOM     11  O   UNL     1      -0.338  -1.769   2.603  0.00  0.00    -0.174 OA
ATOM     12  C   UNL     1      -1.143  -0.354   0.493  0.00  0.00    +0.187 C 
ATOM     13  H   UNL     1       2.255   0.078  -1.744  0.00  0.00    -0.080 HD
ENDROOT
BRANCH   5  14
ATOM     14  C   UNL     1      -1.229   2.138  -0.841  0.00  0.00    +0.038 A 
ATOM     15  C   UNL     1      -1.720   3.014   0.117  0.00  0.00    +0.027 A 
ATOM     16  C   UNL     1      -2.928   3.651  -0.084  0.00  0.00    +0.049 A 
ATOM     17  C   UNL     1      -3.652   3.417  -1.243  0.00  0.00    +0.138 A 
ATOM     18  C   UNL     1      -3.163   2.541  -2.202  0.00  0.00    +0.084 A 
ATOM     19  C   UNL     1      -1.951   1.906  -2.004  0.00  0.00    +0.047 A 
ATOM     20 CL   UNL     1      -4.069   2.249  -3.654  0.00  0.00    -0.080 Cl
BRANCH  17  21
ATOM     21  O   UNL     1      -4.842   4.045  -1.440  0.00  0.00    -0.494 OA
ATOM     22  C   UNL     1      -5.285   4.933  -0.412  0.00  0.00    +0.277 C 
ENDBRANCH  17  21
ENDBRANCH   5  14
BRANCH   1  23
ATOM     23  C   UNL     1       3.728  -0.425  -0.352  0.00  0.00    -0.071 C 
ATOM     24  C   UNL     1       4.230   0.090   0.998  0.00  0.00    -0.013 C 
BRANCH  23  26
ATOM     25  C   UNL     1       3.071  -2.461  -1.643  0.00  0.00    +0.002 C 
ATOM     26  C   UNL     1       3.552  -1.943  -0.286  0.00  0.00    -0.019 C 
ENDBRANCH  23  26
ENDBRANCH   1  23
TORSDOF 4
