REMARK  Name = ZINC46091155
REMARK  9 active torsions:
REMARK  status: ('A' for Active; 'I' for Inactive)
REMARK    1  A    between atoms: C_1  and  C_2
REMARK    2  A    between atoms: C_2  and  C_4
REMARK    3  A    between atoms: C_2  and  N_14
REMARK    4  A    between atoms: N_9  and  C_10
REMARK    5  A    between atoms: C_10  and  C_11
REMARK    6  A    between atoms: C_11  and  C_12
REMARK    7  A    between atoms: C_11  and  C_13
REMARK    8  A    between atoms: C_17  and  C_20
REMARK    9  A    between atoms: C_20  and  O_21
REMARK                            x       y       z     vdW  Elec       q    Type
REMARK                         _______ _______ _______ _____ _____    ______ ____
ROOT
ATOM      1  C   UNL     1       0.630   1.331  -0.404  0.00  0.00    -0.004 C 
ATOM      2  C   UNL     1       0.002  -0.004   0.002  0.00  0.00    +0.017 C 
ENDROOT
BRANCH   2   3
ATOM      3  C   UNL     1       0.796  -0.610   1.130  0.00  0.00    +0.207 C 
ATOM      4  O   UNL     1       1.696  -1.387   0.889  0.00  0.00    -0.277 OA
ATOM      5  N   UNL     1       0.507  -0.289   2.407  0.00  0.00    -0.242 N 
ATOM      6  C   UNL     1       1.218  -0.831   3.416  0.00  0.00    +0.306 C 
ATOM      7  O   UNL     1       2.119  -1.609   3.174  0.00  0.00    -0.252 OA
ATOM      8  N   UNL     1       0.928  -0.510   4.692  0.00  0.00    -0.299 N 
ATOM      9  H   UNL     1      -0.212   0.332   2.599  0.00  0.00    +0.159 HD
ATOM     10  H   UNL     1       0.209   0.112   4.885  0.00  0.00    +0.150 HD
BRANCH   8  11
ATOM     11  C   UNL     1       1.700  -1.099   5.789  0.00  0.00    +0.108 C 
BRANCH  11  12
ATOM     12  C   UNL     1       1.173  -0.572   7.125  0.00  0.00    -0.000 C 
ATOM     13  C   UNL     1       1.894  -1.280   8.273  0.00  0.00    +0.009 C 
ATOM     14  C   UNL     1       1.426   0.934   7.215  0.00  0.00    +0.009 C 
ENDBRANCH  11  12
ENDBRANCH   8  11
ENDBRANCH   2   3
BRANCH   2  15
ATOM     15  N   UNL     1       0.009  -0.918  -1.148  0.00  0.00    +0.387 N 
ATOM     16  C   UNL     1      -0.619  -2.189  -0.764  0.00  0.00    -0.077 C 
ATOM     17  C   UNL     1      -0.542  -3.173  -1.933  0.00  0.00    -0.013 C 
ATOM     18  C   UNL     1      -1.278  -2.583  -3.140  0.00  0.00    +0.011 C 
ATOM     19  C   UNL     1      -0.663  -1.223  -3.485  0.00  0.00    -0.013 C 
ATOM     20  C   UNL     1      -0.735  -0.311  -2.258  0.00  0.00    -0.077 C 
ATOM     21  H   UNL     1       0.961  -1.089  -1.435  0.00  0.00    -0.081 HD
BRANCH  18  22
ATOM     22  C   UNL     1      -1.137  -3.526  -4.336  0.00  0.00    +0.159 C 
BRANCH  22  23
ATOM     23  O   UNL     1      -1.920  -3.033  -5.426  0.00  0.00    -0.395 OA
ATOM     24  H   UNL     1      -1.878  -3.582  -6.220  0.00  0.00    +0.209 HD
ENDBRANCH  22  23
ENDBRANCH  18  22
ENDBRANCH   2  15
TORSDOF 6
