REMARK  Name = ZINC00999026
REMARK  5 active torsions:
REMARK  status: ('A' for Active; 'I' for Inactive)
REMARK    1  A    between atoms: C_4  and  C_7
REMARK    2  A    between atoms: C_10  and  C_32
REMARK    3  A    between atoms: C_15  and  C_17
REMARK    4  A    between atoms: N_19  and  C_20
REMARK    5  A    between atoms: C_21  and  C_29
REMARK                            x       y       z     vdW  Elec       q    Type
REMARK                         _______ _______ _______ _____ _____    ______ ____
ROOT
ATOM      1  C   UNL     1       3.711  -0.707  -0.038  0.00  0.00    +0.104 C 
ATOM      2  C   UNL     1       4.048  -1.192   1.377  0.00  0.00    +0.063 C 
ATOM      3  C   UNL     1       2.911  -2.069   1.913  0.00  0.00    +0.215 C 
ATOM      4  N   UNL     1       2.581  -3.085   0.908  0.00  0.00    -0.238 N 
ATOM      5  C   UNL     1       2.918  -2.982  -0.412  0.00  0.00    +0.119 A 
ATOM      6  C   UNL     1       2.468  -4.082  -1.046  0.00  0.00    +0.078 A 
ATOM      7  C   UNL     1       1.827  -4.897  -0.086  0.00  0.00    +0.149 A 
ATOM      8  N   UNL     1       1.900  -4.288   1.085  0.00  0.00    -0.164 NA
ATOM      9  N   UNL     1       3.612  -1.879  -0.929  0.00  0.00    -0.322 N 
ATOM     10  H   UNL     1       4.004  -1.885  -1.816  0.00  0.00    +0.148 HD
ENDROOT
BRANCH   1  14
ATOM     11  C   UNL     1      -0.017   1.378   0.010  0.00  0.00    +0.000 A 
ATOM     12  C   UNL     1       1.171   2.086   0.002  0.00  0.00    +0.000 A 
ATOM     13  C   UNL     1       2.377   1.411  -0.013  0.00  0.00    +0.005 A 
ATOM     14  C   UNL     1       2.396   0.029  -0.020  0.00  0.00    -0.027 A 
ATOM     15  C   UNL     1       1.208  -0.679  -0.012  0.00  0.00    +0.005 A 
ATOM     16  C   UNL     1       0.002  -0.004   0.002  0.00  0.00    +0.000 A 
ENDBRANCH   1  14
BRANCH   7  17
ATOM     17  C   UNL     1       1.185  -6.202  -0.345  0.00  0.00    +0.269 C 
ATOM     18  O   UNL     1       1.180  -6.664  -1.470  0.00  0.00    -0.268 OA
ATOM     19  N   UNL     1       0.606  -6.881   0.665  0.00  0.00    -0.274 N 
ATOM     20  H   UNL     1       0.611  -6.513   1.562  0.00  0.00    +0.156 HD
BRANCH  19  21
ATOM     21  C   UNL     1       0.004  -8.106   0.421  0.00  0.00    +0.090 A 
ATOM     22  C   UNL     1      -0.639  -8.934   1.327  0.00  0.00    +0.084 A 
ATOM     23  C   UNL     1      -1.191 -10.176   0.816  0.00  0.00    -0.018 A 
ATOM     24  C   UNL     1      -0.999 -10.363  -0.508  0.00  0.00    -0.004 A 
ATOM     25  S   UNL     1      -0.119  -8.923  -1.040  0.00  0.00    -0.077 S 
ATOM     26  C   UNL     1      -1.445 -11.535  -1.326  0.00  0.00    +0.043 C 
ATOM     27  C   UNL     1      -1.825 -12.674  -0.367  0.00  0.00    +0.005 C 
ATOM     28  C   UNL     1      -2.734 -12.116   0.731  0.00  0.00    +0.005 C 
ATOM     29  C   UNL     1      -1.929 -11.204   1.660  0.00  0.00    +0.037 C 
BRANCH  22  30
ATOM     30  C   UNL     1      -0.753  -8.581   2.710  0.00  0.00    +0.102 C 
ATOM     31  N   UNL     1      -0.844  -8.300   3.807  0.00  0.00    -0.191 NA
ENDBRANCH  22  30
ENDBRANCH  19  21
ENDBRANCH   7  17
BRANCH   3  32
ATOM     32  C   UNL     1       3.357  -2.752   3.208  0.00  0.00    +0.412 C 
ATOM     33  F   UNL     1       3.682  -1.779   4.159  0.00  0.00    -0.168 F 
ATOM     34  F   UNL     1       2.317  -3.551   3.695  0.00  0.00    -0.168 F 
ATOM     35  F   UNL     1       4.478  -3.548   2.953  0.00  0.00    -0.168 F 
ENDBRANCH   3  32
TORSDOF 5
