REMARK  Name = ZINC14888471
REMARK  10 active torsions:
REMARK  status: ('A' for Active; 'I' for Inactive)
REMARK    1  A    between atoms: C_1  and  C_2
REMARK    2  A    between atoms: C_4  and  C_8
REMARK    3  A    between atoms: N_5  and  C_7
REMARK    4  A    between atoms: N_10  and  C_11
REMARK    5  A    between atoms: N_10  and  C_12
REMARK    6  A    between atoms: C_12  and  C_14
REMARK    7  A    between atoms: C_12  and  C_21
REMARK    8  A    between atoms: C_14  and  C_15
REMARK    9  A    between atoms: C_27  and  C_29
REMARK   10  A    between atoms: C_30  and  C_34
REMARK                            x       y       z     vdW  Elec       q    Type
REMARK                         _______ _______ _______ _____ _____    ______ ____
ROOT
ATOM      1  C   UNL     1      -0.654  -1.476  -0.588  0.00  0.00    +0.084 C 
ENDROOT
BRANCH   1   2
ATOM      2  C   UNL     1      -2.134  -1.202  -0.862  0.00  0.00    +0.013 C 
ATOM      3  C   UNL     1      -2.869  -1.002   0.466  0.00  0.00    +0.024 C 
ATOM      4  C   UNL     1      -4.357  -0.763   0.190  0.00  0.00    +0.108 C 
ATOM      5  N   UNL     1      -4.489   0.360  -0.748  0.00  0.00    -0.297 N 
ATOM      6  C   UNL     1      -3.751   0.311  -2.017  0.00  0.00    +0.108 C 
ATOM      7  C   UNL     1      -2.270   0.059  -1.717  0.00  0.00    +0.024 C 
ATOM      8  C   UNL     1      -5.273   1.415  -0.449  0.00  0.00    +0.257 C 
ATOM      9  O   UNL     1      -5.469   2.281  -1.280  0.00  0.00    -0.269 OA
BRANCH   8  10
ATOM     10  C   UNL     1      -5.890   1.520   0.883  0.00  0.00    +0.117 A 
ATOM     11  C   UNL     1      -7.165   1.939   1.246  0.00  0.00    +0.081 A 
ATOM     12  N   UNL     1      -7.377   1.900   2.540  0.00  0.00    -0.146 NA
ATOM     13  N   UNL     1      -6.475   1.520   3.369  0.00  0.00    -0.110 NA
ATOM     14  S   UNL     1      -5.212   1.154   2.492  0.00  0.00    +0.041 S 
ATOM     15  C   UNL     1      -8.203   2.389   0.250  0.00  0.00    +0.069 C 
ENDBRANCH   8  10
ENDBRANCH   1   2
BRANCH   1  18
ATOM     16  C   UNL     1       0.850   0.440  -0.634  0.00  0.00    +0.265 C 
ATOM     17  O   UNL     1       1.239   0.075  -1.727  0.00  0.00    -0.268 OA
ATOM     18  N   UNL     1      -0.049  -0.301   0.043  0.00  0.00    -0.296 N 
ATOM     19  C   UNL     1      -0.420   0.068   1.412  0.00  0.00    +0.132 C 
BRANCH  16  23
ATOM     20  C   UNL     1       1.779   4.357   2.451  0.00  0.00    +0.067 C 
ATOM     21  C   UNL     1       1.776   3.406   1.282  0.00  0.00    +0.061 A 
ATOM     22  C   UNL     1       1.047   2.218   1.190  0.00  0.00    +0.057 A 
ATOM     23  C   UNL     1       1.360   1.691  -0.051  0.00  0.00    +0.123 A 
ATOM     24  N   UNL     1       2.243   2.563  -0.624  0.00  0.00    -0.262 N 
ATOM     25  N   UNL     1       2.457   3.547   0.173  0.00  0.00    -0.176 NA
ATOM     26  C   UNL     1       2.849   2.401  -1.948  0.00  0.00    +0.173 C 
ENDBRANCH  16  23
ENDBRANCH   1  18
BRANCH   1  27
ATOM     27  C   UNL     1      -0.522  -2.682   0.344  0.00  0.00    +0.058 C 
BRANCH  27  28
ATOM     28  C   UNL     1       0.935  -3.027   0.516  0.00  0.00    -0.046 A 
ATOM     29  C   UNL     1       1.538  -3.926  -0.344  0.00  0.00    +0.004 A 
ATOM     30  C   UNL     1       2.875  -4.239  -0.190  0.00  0.00    +0.000 A 
ATOM     31  C   UNL     1       3.607  -3.662   0.830  0.00  0.00    +0.000 A 
ATOM     32  C   UNL     1       3.003  -2.767   1.694  0.00  0.00    +0.000 A 
ATOM     33  C   UNL     1       1.667  -2.450   1.536  0.00  0.00    +0.004 A 
ENDBRANCH  27  28
ENDBRANCH   1  27
TORSDOF 6
