REMARK  Name = ZINC62319815
REMARK  5 active torsions:
REMARK  status: ('A' for Active; 'I' for Inactive)
REMARK    1  A    between atoms: C_1  and  C_2
REMARK    2  A    between atoms: C_2  and  C_3
REMARK    3  A    between atoms: C_2  and  N_4
REMARK    4  A    between atoms: C_6  and  C_16
REMARK    5  A    between atoms: C_14  and  N_15
REMARK                            x       y       z     vdW  Elec       q    Type
REMARK                         _______ _______ _______ _____ _____    ______ ____
ROOT
ATOM      1  N   UNL     1      -1.633  -0.714  -0.011  0.00  0.00    -0.343 N 
ATOM      2  C   UNL     1      -2.518  -0.586   0.987  0.00  0.00    +0.103 A 
ATOM      3  C   UNL     1      -3.796  -1.097   0.905  0.00  0.00    +0.100 A 
ATOM      4  C   UNL     1      -4.202  -1.806  -0.320  0.00  0.00    +0.203 A 
ATOM      5  O   UNL     1      -5.320  -2.275  -0.441  0.00  0.00    -0.286 OA
ATOM      6  C   UNL     1      -3.200  -1.925  -1.391  0.00  0.00    +0.067 A 
ATOM      7  C   UNL     1      -1.929  -1.357  -1.194  0.00  0.00    +0.055 A 
ATOM      8  C   UNL     1      -0.976  -1.458  -2.201  0.00  0.00    +0.026 A 
ATOM      9  C   UNL     1      -1.280  -2.103  -3.382  0.00  0.00    +0.004 A 
ATOM     10  C   UNL     1      -2.531  -2.658  -3.585  0.00  0.00    +0.023 A 
ATOM     11  C   UNL     1      -3.498  -2.583  -2.593  0.00  0.00    +0.037 A 
ENDROOT
BRANCH   3  12
ATOM     12  C   UNL     1      -4.739  -0.936   2.023  0.00  0.00    +0.247 C 
ATOM     13  O   UNL     1      -4.431  -0.259   2.985  0.00  0.00    -0.270 OA
ATOM     14  N   UNL     1      -5.943  -1.540   1.981  0.00  0.00    -0.325 N 
ATOM     15  H   UNL     1      -6.218  -2.019   1.183  0.00  0.00    +0.145 HD
ATOM     16  H   UNL     1      -6.535  -1.496   2.748  0.00  0.00    +0.145 HD
ENDBRANCH   3  12
BRANCH   1  18
ATOM     17  C   UNL     1      -0.402   1.383   0.254  0.00  0.00    +0.030 C 
ATOM     18  C   UNL     1      -0.295  -0.140   0.160  0.00  0.00    +0.081 C 
ATOM     19  C   UNL     1       0.335  -0.688   1.442  0.00  0.00    +0.030 C 
ENDBRANCH   1  18
BRANCH  11  20
ATOM     20  N   UNL     1      -4.755  -3.141  -2.794  0.00  0.00    -0.357 N 
ATOM     21  H   UNL     1      -5.456  -3.005  -2.139  0.00  0.00    +0.142 HD
ATOM     22  H   UNL     1      -4.930  -3.666  -3.591  0.00  0.00    +0.142 HD
ENDBRANCH  11  20
TORSDOF 3
