REMARK  Name = ZINC12362439
REMARK  8 active torsions:
REMARK  status: ('A' for Active; 'I' for Inactive)
REMARK    1  A    between atoms: C_1  and  C_2
REMARK    2  A    between atoms: C_2  and  C_17
REMARK    3  A    between atoms: N_3  and  N_4
REMARK    4  A    between atoms: C_5  and  C_7
REMARK    5  A    between atoms: C_9  and  N_16
REMARK    6  A    between atoms: C_11  and  N_13
REMARK    7  A    between atoms: C_17  and  C_18
REMARK    8  A    between atoms: N_20  and  C_21
REMARK                            x       y       z     vdW  Elec       q    Type
REMARK                         _______ _______ _______ _____ _____    ______ ____
ROOT
ATOM      1  N   UNL     1       0.001   1.395   0.025  0.00  0.00    -0.203 N 
ATOM      2  C   UNL     1       1.160   2.084   0.028  0.00  0.00    +0.263 C 
ATOM      3  O   UNL     1       2.220   1.489   0.022  0.00  0.00    -0.268 OA
ATOM      4  H   UNL     1      -0.845   1.870   0.025  0.00  0.00    +0.178 HD
ENDROOT
BRANCH   2   5
ATOM      5  C   UNL     1       1.141   3.562   0.036  0.00  0.00    +0.042 A 
ATOM      6  C   UNL     1       2.339   4.277   0.038  0.00  0.00    +0.036 A 
ATOM      7  C   UNL     1       2.314   5.663   0.046  0.00  0.00    +0.027 A 
ATOM      8  C   UNL     1       1.097   6.335   0.051  0.00  0.00    +0.055 A 
ATOM      9  C   UNL     1      -0.090   5.627   0.049  0.00  0.00    +0.129 A 
ATOM     10  C   UNL     1      -0.075   4.247   0.036  0.00  0.00    +0.046 A 
BRANCH   9  11
ATOM     11  N   UNL     1      -1.381   6.351   0.054  0.00  0.00    +0.057 N 
ATOM     12  O   UNL     1      -1.396   7.569   0.061  0.00  0.00    -0.126 OA
ATOM     13  O   UNL     1      -2.428   5.729   0.052  0.00  0.00    -0.126 OA
ENDBRANCH   9  11
BRANCH   7  14
ATOM     14  N   UNL     1       3.510   6.384   0.048  0.00  0.00    -0.358 N 
ATOM     15  H   UNL     1       4.359   5.914   0.044  0.00  0.00    +0.142 HD
ATOM     16  H   UNL     1       3.493   7.353   0.053  0.00  0.00    +0.142 HD
ENDBRANCH   7  14
ENDBRANCH   2   5
BRANCH   1  19
ATOM     17  C   UNL     1      -2.397   0.078   0.022  0.00  0.00    +0.063 C 
ATOM     18  C   UNL     1      -1.082  -0.659   0.015  0.00  0.00    +0.043 C 
ATOM     19  N   UNL     1       0.018  -0.005   0.017  0.00  0.00    -0.189 NA
BRANCH  18  20
ATOM     20  C   UNL     1      -1.063  -2.166   0.007  0.00  0.00    +0.148 C 
BRANCH  20  21
ATOM     21  C   UNL     1      -1.655  -2.683   1.292  0.00  0.00    +0.223 C 
ATOM     22  O   UNL     1      -2.054  -1.905   2.133  0.00  0.00    -0.275 OA
ATOM     23  N   UNL     1      -1.742  -4.011   1.508  0.00  0.00    -0.284 N 
ATOM     24  H   UNL     1      -1.499  -4.633   0.805  0.00  0.00    +0.155 HD
BRANCH  23  25
ATOM     25  C   UNL     1      -2.184  -4.491   2.746  0.00  0.00    +0.047 A 
ATOM     26  C   UNL     1      -2.046  -3.709   3.886  0.00  0.00    +0.024 A 
ATOM     27  C   UNL     1      -2.486  -4.184   5.105  0.00  0.00    +0.002 A 
ATOM     28  C   UNL     1      -3.057  -5.441   5.195  0.00  0.00    +0.001 A 
ATOM     29  C   UNL     1      -3.192  -6.224   4.064  0.00  0.00    +0.017 A 
ATOM     30  C   UNL     1      -2.757  -5.753   2.839  0.00  0.00    +0.039 A 
ATOM     31 BR   UNL     1      -2.942  -6.825   1.293  0.00  0.00    -0.048 Br
ENDBRANCH  23  25
ENDBRANCH  20  21
ENDBRANCH  18  20
ENDBRANCH   1  19
TORSDOF 7
