REMARK  Name = ZINC14964983
REMARK  5 active torsions:
REMARK  status: ('A' for Active; 'I' for Inactive)
REMARK    1  A    between atoms: C_3  and  C_11
REMARK    2  A    between atoms: C_11  and  N_56
REMARK    3  A    between atoms: C_14  and  N_17
REMARK    4  A    between atoms: C_18  and  N_22
REMARK    5  A    between atoms: C_23  and  C_25
REMARK                            x       y       z     vdW  Elec       q    Type
REMARK                         _______ _______ _______ _____ _____    ______ ____
ROOT
ATOM      1  C   UNL     1      -2.146   6.431   1.266  0.00  0.00    -0.076 C 
ATOM      2  C   UNL     1      -1.283   5.167   1.288  0.00  0.00    +0.008 C 
ATOM      3  C   UNL     1      -1.577   4.333   0.038  0.00  0.00    +0.106 C 
ATOM      4  C   UNL     1      -1.306   5.180  -1.208  0.00  0.00    +0.008 C 
ATOM      5  C   UNL     1      -2.168   6.444  -1.157  0.00  0.00    -0.076 C 
ATOM      6  N   UNL     1      -1.819   7.214   0.056  0.00  0.00    +0.383 N 
ATOM      7  H   UNL     1      -0.811   7.410   0.048  0.00  0.00    -0.081 HD
ENDROOT
BRANCH   3   8
ATOM      8  N   UNL     1      -0.711   3.151   0.024  0.00  0.00    -0.248 N 
ATOM      9  C   UNL     1      -1.123   1.863   0.017  0.00  0.00    +0.123 A 
ATOM     10  C   UNL     1      -0.013   1.076   0.008  0.00  0.00    +0.065 A 
ATOM     11  C   UNL     1       1.105   1.914   0.002  0.00  0.00    +0.136 A 
ATOM     12  N   UNL     1       0.690   3.155   0.012  0.00  0.00    -0.178 NA
BRANCH   9  13
ATOM     13  N   UNL     1      -2.446   1.421   0.021  0.00  0.00    -0.270 N 
ATOM     14  C   UNL     1      -2.715   0.100   0.016  0.00  0.00    +0.224 C 
ATOM     15  O   UNL     1      -1.807  -0.704   0.008  0.00  0.00    -0.275 OA
ATOM     16  H   UNL     1      -3.172   2.063   0.027  0.00  0.00    +0.156 HD
BRANCH  14  17
ATOM     17  C   UNL     1      -4.145  -0.378   0.020  0.00  0.00    +0.103 C 
ATOM     18  C   UNL     1      -4.211  -1.923   0.157  0.00  0.00    +0.043 C 
ATOM     19  C   UNL     1      -5.588  -2.099   0.845  0.00  0.00    +0.160 C 
ATOM     20  O   UNL     1      -5.702  -0.985   1.745  0.00  0.00    -0.379 OA
ATOM     21  C   UNL     1      -4.879   0.096   1.292  0.00  0.00    +0.172 C 
ENDBRANCH  14  17
ENDBRANCH   9  13
ENDBRANCH   3   8
BRANCH   6  22
ATOM     22  C   UNL     1      -2.557   8.494   0.069  0.00  0.00    -0.024 C 
BRANCH  22  25
ATOM     23  C   UNL     1      -2.818   9.831  -3.363  0.00  0.00    +0.020 A 
ATOM     24  C   UNL     1      -3.323   9.074  -2.286  0.00  0.00    +0.021 A 
ATOM     25  C   UNL     1      -2.429   9.152  -1.280  0.00  0.00    +0.009 A 
ATOM     26  N   UNL     1      -1.389   9.936  -1.695  0.00  0.00    -0.301 N 
ATOM     27  C   UNL     1      -1.633  10.344  -2.976  0.00  0.00    +0.093 A 
ATOM     28  C   UNL     1      -0.265  10.262  -0.938  0.00  0.00    +0.177 A 
ATOM     29  N   UNL     1       0.770  11.007  -1.271  0.00  0.00    -0.231 NA
ATOM     30  C   UNL     1       1.760  11.219  -0.427  0.00  0.00    +0.121 A 
ATOM     31  C   UNL     1       1.694  10.649   0.802  0.00  0.00    +0.068 A 
ATOM     32  S   UNL     1       0.128   9.797   0.689  0.00  0.00    -0.058 S 
ENDBRANCH  22  25
ENDBRANCH   6  22
TORSDOF 5
