REMARK  Name = ZINC40556798
REMARK  6 active torsions:
REMARK  status: ('A' for Active; 'I' for Inactive)
REMARK    1  A    between atoms: C_1  and  C_2
REMARK    2  A    between atoms: C_2  and  C_19
REMARK    3  A    between atoms: N_3  and  N_4
REMARK    4  A    between atoms: N_4  and  C_5
REMARK    5  A    between atoms: C_5  and  N_6
REMARK    6  A    between atoms: C_22  and  N_25
REMARK                            x       y       z     vdW  Elec       q    Type
REMARK                         _______ _______ _______ _____ _____    ______ ____
ROOT
ATOM      1  C   UNL     1       2.163  -2.952   2.770  0.00  0.00    +0.153 C 
ATOM      2  S   UNL     1       2.757  -2.083   1.421  0.00  0.00    -0.017 S 
ENDROOT
BRANCH   1   3
ATOM      3  N   UNL     1       2.101  -2.360   3.979  0.00  0.00    -0.308 N 
ATOM      4  C   UNL     1       2.627  -1.002   4.174  0.00  0.00    +0.126 C 
ATOM      5  C   UNL     1       1.513  -0.125   4.761  0.00  0.00    +0.125 C 
ATOM      6  N   UNL     1       0.919  -0.826   5.908  0.00  0.00    -0.314 N 
ATOM      7  C   UNL     1       0.393  -2.184   5.713  0.00  0.00    +0.125 C 
ATOM      8  C   UNL     1       1.501  -3.059   5.125  0.00  0.00    +0.126 C 
ATOM      9  C   UNL     1       0.855  -0.214   7.155  0.00  0.00    +0.099 A 
ATOM     10  C   UNL     1       1.350   1.076   7.316  0.00  0.00    +0.042 A 
ATOM     11  C   UNL     1       1.281   1.671   8.563  0.00  0.00    +0.005 A 
ATOM     12  C   UNL     1       0.716   0.955   9.610  0.00  0.00    +0.018 A 
ATOM     13  C   UNL     1       0.244  -0.322   9.378  0.00  0.00    +0.084 A 
ATOM     14  N   UNL     1       0.319  -0.863   8.177  0.00  0.00    -0.350 N 
ATOM     15  H   UNL     1      -0.023  -1.761   8.040  0.00  0.00    +0.166 HD
ENDBRANCH   1   3
BRANCH   1  16
ATOM     16  N   UNL     1       1.756  -4.229   2.624  0.00  0.00    -0.218 N 
ATOM     17  H   UNL     1       1.565  -4.579   1.740  0.00  0.00    +0.176 HD
BRANCH  16  20
ATOM     18  C   UNL     1       1.049  -7.167   4.808  0.00  0.00    +0.068 C 
ATOM     19  C   UNL     1       1.339  -6.312   3.601  0.00  0.00    +0.063 C 
ATOM     20  N   UNL     1       1.610  -5.051   3.749  0.00  0.00    -0.185 NA
BRANCH  19  21
ATOM     21  C   UNL     1       1.314  -6.907   2.253  0.00  0.00    -0.002 A 
ATOM     22  C   UNL     1       2.228  -6.484   1.284  0.00  0.00    +0.011 A 
ATOM     23  C   UNL     1       2.203  -7.043   0.025  0.00  0.00    +0.023 A 
ATOM     24  C   UNL     1       1.269  -8.027  -0.282  0.00  0.00    +0.025 A 
ATOM     25  C   UNL     1       0.358  -8.450   0.680  0.00  0.00    +0.023 A 
ATOM     26  C   UNL     1       0.381  -7.900   1.942  0.00  0.00    +0.011 A 
BRANCH  24  27
ATOM     27  N   UNL     1       1.246  -8.590  -1.558  0.00  0.00    -0.358 N 
ATOM     28  H   UNL     1       1.880  -8.296  -2.230  0.00  0.00    +0.142 HD
ATOM     29  H   UNL     1       0.595  -9.277  -1.774  0.00  0.00    +0.142 HD
ENDBRANCH  24  27
ENDBRANCH  19  21
ENDBRANCH  16  20
ENDBRANCH   1  16
TORSDOF 5
