REMARK  Name = ZINC67266804
REMARK  7 active torsions:
REMARK  status: ('A' for Active; 'I' for Inactive)
REMARK    1  A    between atoms: C_1  and  C_2
REMARK    2  A    between atoms: C_2  and  C_3
REMARK    3  A    between atoms: C_3  and  C_5
REMARK    4  A    between atoms: C_3  and  C_6
REMARK    5  A    between atoms: N_8  and  C_9
REMARK    6  A    between atoms: C_9  and  C_10
REMARK    7  A    between atoms: C_19  and  C_23
REMARK                            x       y       z     vdW  Elec       q    Type
REMARK                         _______ _______ _______ _____ _____    ______ ____
ROOT
ATOM      1  C   UNL     1      -3.966  -4.707   0.280  0.00  0.00    +0.236 C 
ATOM      2  O   UNL     1      -4.898  -3.935   0.202  0.00  0.00    -0.274 OA
ATOM      3  N   UNL     1      -4.195  -6.032   0.377  0.00  0.00    -0.263 N 
ATOM      4  C   UNL     1      -5.499  -6.513   0.387  0.00  0.00    +0.165 A 
ATOM      5  N   UNL     1      -6.621  -5.833   0.306  0.00  0.00    -0.229 NA
ATOM      6  C   UNL     1      -7.809  -6.431   0.328  0.00  0.00    +0.054 A 
ATOM      7  C   UNL     1      -7.765  -7.784   0.440  0.00  0.00    +0.015 A 
ATOM      8  S   UNL     1      -6.026  -8.110   0.498  0.00  0.00    -0.057 S 
ATOM      9  C   UNL     1      -8.915  -8.732   0.493  0.00  0.00    +0.052 C 
ATOM     10  C   UNL     1     -10.192  -7.922   0.771  0.00  0.00    +0.024 C 
ATOM     11  C   UNL     1     -10.223  -6.712  -0.168  0.00  0.00    +0.014 C 
ATOM     12  C   UNL     1      -9.144  -5.705   0.236  0.00  0.00    +0.057 C 
ATOM     13  H   UNL     1      -3.450  -6.649   0.440  0.00  0.00    +0.157 HD
ENDROOT
BRANCH  10  14
ATOM     14  C   UNL     1     -11.401  -8.787   0.525  0.00  0.00    -0.044 A 
ATOM     15  C   UNL     1     -11.616  -9.336  -0.726  0.00  0.00    +0.004 A 
ATOM     16  C   UNL     1     -12.725 -10.129  -0.951  0.00  0.00    +0.000 A 
ATOM     17  C   UNL     1     -13.620 -10.373   0.074  0.00  0.00    +0.000 A 
ATOM     18  C   UNL     1     -13.405  -9.824   1.324  0.00  0.00    +0.000 A 
ATOM     19  C   UNL     1     -12.294  -9.035   1.551  0.00  0.00    +0.004 A 
ENDBRANCH  10  14
BRANCH   1  20
ATOM     20  C   UNL     1      -2.552  -4.186   0.270  0.00  0.00    +0.200 C 
BRANCH  20  23
ATOM     21  C   UNL     1      -1.414  -2.036   0.129  0.00  0.00    +0.216 C 
ATOM     22  O   UNL     1      -0.356  -2.625   0.196  0.00  0.00    -0.276 OA
ATOM     23  N   UNL     1      -2.572  -2.725   0.157  0.00  0.00    -0.306 N 
ATOM     24  H   UNL     1      -3.418  -2.254   0.104  0.00  0.00    +0.149 HD
BRANCH  21  25
ATOM     25  C   UNL     1      -1.433  -0.534   0.013  0.00  0.00    +0.072 C 
ATOM     26  C   UNL     1      -2.135  -0.131  -1.286  0.00  0.00    +0.017 C 
BRANCH  25  28
ATOM     27  C   UNL     1      -0.019   1.526   0.010  0.00  0.00    +0.004 C 
ATOM     28  C   UNL     1       0.002  -0.004   0.002  0.00  0.00    +0.009 C 
ENDBRANCH  25  28
ENDBRANCH  21  25
ENDBRANCH  20  23
ENDBRANCH   1  20
TORSDOF 5
