REMARK  Name = ZINC15548600
REMARK  4 active torsions:
REMARK  status: ('A' for Active; 'I' for Inactive)
REMARK    1  A    between atoms: C_3  and  C_6
REMARK    2  A    between atoms: C_15  and  C_16
REMARK    3  A    between atoms: C_15  and  N_42
REMARK    4  A    between atoms: N_18  and  C_19
REMARK                            x       y       z     vdW  Elec       q    Type
REMARK                         _______ _______ _______ _____ _____    ______ ____
ROOT
ATOM      1  C   UNL     1       3.904  -5.972  -0.500  0.00  0.00    +0.002 C 
ATOM      2  C   UNL     1       5.310  -6.414  -0.894  0.00  0.00    -0.046 A 
ATOM      3  C   UNL     1       5.660  -7.732  -1.177  0.00  0.00    +0.010 A 
ATOM      4  C   UNL     1       6.933  -8.036  -1.522  0.00  0.00    +0.045 A 
ATOM      5  S   UNL     1       7.724  -6.435  -1.461  0.00  0.00    -0.101 S 
ATOM      6  C   UNL     1       6.306  -5.488  -0.984  0.00  0.00    -0.010 A 
ATOM      7  C   UNL     1       6.185  -4.021  -0.729  0.00  0.00    +0.024 C 
ATOM      8  C   UNL     1       4.847  -3.779  -0.010  0.00  0.00    -0.072 C 
ATOM      9  N   UNL     1       3.791  -4.515  -0.746  0.00  0.00    +0.393 N 
ATOM     10  H   UNL     1       3.906  -4.339  -1.751  0.00  0.00    -0.080 HD
ENDROOT
BRANCH   1  13
ATOM     11  C   UNL     1       1.252  -8.257  -2.003  0.00  0.00    +0.008 A 
ATOM     12  C   UNL     1       2.124  -7.764  -1.051  0.00  0.00    +0.010 A 
ATOM     13  C   UNL     1       2.891  -6.688  -1.355  0.00  0.00    -0.019 A 
ATOM     14  S   UNL     1       2.382  -6.335  -3.030  0.00  0.00    -0.103 S 
ATOM     15  C   UNL     1       1.189  -7.650  -3.213  0.00  0.00    +0.045 A 
ENDBRANCH   1  13
BRANCH   9  16
ATOM     16  C   UNL     1       2.460  -4.037  -0.325  0.00  0.00    +0.020 C 
BRANCH  16  17
ATOM     17  C   UNL     1       2.259  -4.243   1.154  0.00  0.00    +0.201 C 
ATOM     18  O   UNL     1       3.168  -4.667   1.836  0.00  0.00    -0.278 OA
ATOM     19  N   UNL     1       1.070  -3.956   1.719  0.00  0.00    -0.285 N 
ATOM     20  H   UNL     1       0.319  -3.695   1.163  0.00  0.00    +0.155 HD
BRANCH  19  21
ATOM     21  C   UNL     1       0.917  -4.036   3.110  0.00  0.00    +0.070 A 
ATOM     22  C   UNL     1       0.393  -2.960   3.815  0.00  0.00    +0.065 A 
ATOM     23  C   UNL     1       0.244  -3.042   5.187  0.00  0.00    +0.042 A 
ATOM     24  C   UNL     1       0.617  -4.194   5.857  0.00  0.00    +0.044 A 
ATOM     25  C   UNL     1       1.139  -5.267   5.157  0.00  0.00    +0.042 A 
ATOM     26  C   UNL     1       1.290  -5.191   3.785  0.00  0.00    +0.065 A 
ATOM     27 CL   UNL     1       1.946  -6.538   2.908  0.00  0.00    -0.082 Cl
ATOM     28 CL   UNL     1       0.428  -4.292   7.580  0.00  0.00    -0.083 Cl
ATOM     29 CL   UNL     1      -0.075  -1.515   2.975  0.00  0.00    -0.082 Cl
ENDBRANCH  19  21
ENDBRANCH  16  17
ENDBRANCH   9  16
TORSDOF 4
