REMARK  Name = ZINC06900541
REMARK  4 active torsions:
REMARK  status: ('A' for Active; 'I' for Inactive)
REMARK    1  A    between atoms: C_1  and  C_2
REMARK    2  A    between atoms: N_14  and  C_17
REMARK    3  A    between atoms: C_20  and  C_23
REMARK    4  A    between atoms: C_23  and  C_24
REMARK                            x       y       z     vdW  Elec       q    Type
REMARK                         _______ _______ _______ _____ _____    ______ ____
ROOT
ATOM      1  C   UNL     1       0.015  -2.966  -0.015  0.00  0.00    +0.045 C 
ATOM      2  C   UNL     1       1.279  -2.145  -0.021  0.00  0.00    -0.033 A 
ATOM      3  C   UNL     1       2.499  -2.743  -0.035  0.00  0.00    +0.096 A 
ATOM      4  C   UNL     1       3.667  -1.953  -0.042  0.00  0.00    +0.337 A 
ATOM      5  O   UNL     1       4.754  -2.501  -0.054  0.00  0.00    -0.245 OA
ATOM      6  O   UNL     1       3.611  -0.612  -0.035  0.00  0.00    -0.422 OA
ATOM      7  C   UNL     1       2.431   0.044  -0.020  0.00  0.00    +0.147 A 
ATOM      8  C   UNL     1       1.226  -0.682  -0.013  0.00  0.00    +0.021 A 
ATOM      9  C   UNL     1       0.002  -0.004   0.002  0.00  0.00    +0.015 A 
ATOM     10  C   UNL     1      -0.016   1.360   0.009  0.00  0.00    +0.047 A 
ATOM     11  C   UNL     1       1.175   2.087   0.002  0.00  0.00    +0.131 A 
ATOM     12  C   UNL     1       2.394   1.432  -0.011  0.00  0.00    +0.054 A 
ATOM     13  C   UNL     1       3.688   2.205  -0.012  0.00  0.00    +0.151 C 
ATOM     14  N   UNL     1       3.431   3.595  -0.414  0.00  0.00    -0.293 N 
ATOM     15  C   UNL     1       2.309   4.148   0.362  0.00  0.00    +0.339 C 
ATOM     16  O   UNL     1       1.117   3.445   0.005  0.00  0.00    -0.473 OA
ENDROOT
BRANCH  14  17
ATOM     17  C   UNL     1       4.577   4.380  -0.265  0.00  0.00    +0.032 A 
ATOM     18  C   UNL     1       5.757   3.808   0.194  0.00  0.00    +0.023 A 
ATOM     19  C   UNL     1       6.890   4.585   0.336  0.00  0.00    +0.006 A 
ATOM     20  C   UNL     1       6.848   5.933   0.031  0.00  0.00    -0.037 A 
ATOM     21  C   UNL     1       5.674   6.507  -0.421  0.00  0.00    +0.006 A 
ATOM     22  C   UNL     1       4.539   5.734  -0.570  0.00  0.00    +0.023 A 
BRANCH  20  23
ATOM     23  C   UNL     1       8.084   6.779   0.193  0.00  0.00    +0.160 C 
BRANCH  23  24
ATOM     24  C   UNL     1       8.122   7.351   1.587  0.00  0.00    +0.360 C 
ATOM     25  O   UNL     1       7.236   7.098   2.368  0.00  0.00    -0.246 OA
ATOM     26  O   UNL     1       9.141   8.143   1.960  0.00  0.00    -0.246 OA
ENDBRANCH  23  24
ENDBRANCH  20  23
ENDBRANCH  14  17
TORSDOF 3
