REMARK  Name = ZINC40169274
REMARK  7 active torsions:
REMARK  status: ('A' for Active; 'I' for Inactive)
REMARK    1  A    between atoms: C_1  and  C_2
REMARK    2  A    between atoms: C_2  and  C_4
REMARK    3  A    between atoms: C_2  and  S_18
REMARK    4  A    between atoms: C_4  and  C_6
REMARK    5  A    between atoms: N_12  and  C_17
REMARK    6  A    between atoms: N_15  and  C_16
REMARK    7  A    between atoms: S_18  and  C_19
REMARK                            x       y       z     vdW  Elec       q    Type
REMARK                         _______ _______ _______ _____ _____    ______ ____
ROOT
ATOM      1  C   UNL     1       0.707  -0.490  -1.238  0.00  0.00    +0.176 C 
ATOM      2  O   UNL     1       1.889  -0.763  -1.196  0.00  0.00    -0.291 OA
ENDROOT
BRANCH   1   3
ATOM      3  C   UNL     1      -0.035  -0.633  -2.497  0.00  0.00    +0.021 A 
ATOM      4  C   UNL     1      -1.399  -0.313  -2.548  0.00  0.00    +0.013 A 
ATOM      5  C   UNL     1      -2.094  -0.445  -3.716  0.00  0.00    +0.029 A 
ATOM      6  C   UNL     1      -1.452  -0.898  -4.864  0.00  0.00    +0.070 A 
ATOM      7  C   UNL     1      -0.091  -1.221  -4.826  0.00  0.00    +0.070 A 
ATOM      8  C   UNL     1       0.619  -1.085  -3.649  0.00  0.00    +0.039 A 
ATOM      9  N   UNL     1       0.258  -1.638  -6.110  0.00  0.00    -0.295 N 
ATOM     10  C   UNL     1      -0.839  -1.571  -6.887  0.00  0.00    +0.330 A 
ATOM     11  O   UNL     1      -0.880  -1.865  -8.067  0.00  0.00    -0.246 OA
ATOM     12  N   UNL     1      -1.883  -1.128  -6.162  0.00  0.00    -0.295 N 
ATOM     13  C   UNL     1      -3.246  -0.924  -6.661  0.00  0.00    +0.154 C 
ATOM     14  C   UNL     1       1.589  -2.074  -6.539  0.00  0.00    +0.154 C 
ENDBRANCH   1   3
BRANCH   1  16
ATOM     15  C   UNL     1      -0.019   1.526   0.010  0.00  0.00    +0.028 C 
ATOM     16  C   UNL     1       0.002  -0.004   0.002  0.00  0.00    +0.122 C 
BRANCH  16  17
ATOM     17  S   UNL     1       0.879  -0.605   1.472  0.00  0.00    -0.073 S 
BRANCH  17  18
ATOM     18  C   UNL     1      -0.136  -0.087   2.816  0.00  0.00    +0.211 A 
ATOM     19  N   UNL     1       0.116  -0.310   4.111  0.00  0.00    -0.188 NA
ATOM     20  H   UNL     1      -2.553   1.249   4.265  0.00  0.00    +0.192 HD
ATOM     21  C   UNL     1      -0.845   0.212   4.844  0.00  0.00    +0.209 A 
ATOM     22  N   UNL     1      -1.739   0.786   4.012  0.00  0.00    -0.246 N 
ATOM     23  N   UNL     1      -1.257   0.585   2.709  0.00  0.00    -0.144 NA
ATOM     24  N   UNL     1      -0.923   0.177   6.224  0.00  0.00    -0.328 N 
ATOM     25  H   UNL     1      -0.228  -0.261   6.739  0.00  0.00    +0.145 HD
ATOM     26  H   UNL     1      -1.674   0.592   6.678  0.00  0.00    +0.145 HD
ENDBRANCH  17  18
ENDBRANCH  16  17
ENDBRANCH   1  16
TORSDOF 4
