REMARK  Name = ZINC20220569
REMARK  11 active torsions:
REMARK  status: ('A' for Active; 'I' for Inactive)
REMARK    1  A    between atoms: C_1  and  O_2
REMARK    2  A    between atoms: O_2  and  C_3
REMARK    3  A    between atoms: C_3  and  C_5
REMARK    4  A    between atoms: C_6  and  N_35
REMARK    5  A    between atoms: C_8  and  C_9
REMARK    6  A    between atoms: C_12  and  O_15
REMARK    7  A    between atoms: C_17  and  C_31
REMARK    8  A    between atoms: C_19  and  C_24
REMARK    9  A    between atoms: C_27  and  O_30
REMARK   10  A    between atoms: C_31  and  O_33
REMARK   11  A    between atoms: O_33  and  C_34
REMARK                            x       y       z     vdW  Elec       q    Type
REMARK                         _______ _______ _______ _____ _____    ______ ____
ROOT
ATOM      1  C   UNL     1       8.159   2.602   2.346  0.00  0.00    +0.155 A 
ATOM      2  C   UNL     1       9.379   2.955   1.812  0.00  0.00    +0.065 A 
ATOM      3  C   UNL     1       9.202   4.258   1.147  0.00  0.00    +0.024 A 
ATOM      4  C   UNL     1      10.148   4.973   0.438  0.00  0.00    +0.019 C 
ATOM      5  C   UNL     1       7.806   4.634   1.399  0.00  0.00    +0.079 A 
ATOM      6  C   UNL     1       7.207   5.847   1.106  0.00  0.00    +0.118 C 
ATOM      7  S   UNL     1       5.548   6.098   1.667  0.00  0.00    -0.099 S 
ATOM      8  C   UNL     1       4.874   4.412   1.722  0.00  0.00    +0.170 C 
ATOM      9  C   UNL     1       5.884   3.486   2.345  0.00  0.00    +0.250 C 
ATOM     10  O   UNL     1       5.510   2.645   3.135  0.00  0.00    -0.271 OA
ATOM     11  N   UNL     1       7.196   3.571   2.045  0.00  0.00    -0.270 N 
ENDROOT
BRANCH   4  12
ATOM     12  C   UNL     1      11.444   4.367   0.130  0.00  0.00    -0.024 A 
ATOM     13  C   UNL     1      12.621   5.121   0.251  0.00  0.00    +0.011 A 
ATOM     14  C   UNL     1      13.832   4.545  -0.033  0.00  0.00    +0.046 A 
ATOM     15  C   UNL     1      13.895   3.220  -0.451  0.00  0.00    +0.117 A 
ATOM     16  C   UNL     1      12.732   2.469  -0.579  0.00  0.00    +0.046 A 
ATOM     17  C   UNL     1      11.514   3.031  -0.293  0.00  0.00    +0.011 A 
BRANCH  15  18
ATOM     18  O   UNL     1      15.097   2.658  -0.737  0.00  0.00    -0.507 OA
ATOM     19  H   UNL     1      15.150   1.611  -1.068  0.00  0.00    +0.292 HD
ENDBRANCH  15  18
ENDBRANCH   4  12
BRANCH   8  20
ATOM     20  C   UNL     1       3.611   4.403   2.542  0.00  0.00    -0.025 A 
ATOM     21  C   UNL     1       2.417   4.006   1.968  0.00  0.00    +0.009 A 
ATOM     22  C   UNL     1       1.258   3.997   2.718  0.00  0.00    +0.046 A 
ATOM     23  C   UNL     1       1.291   4.386   4.049  0.00  0.00    +0.117 A 
ATOM     24  C   UNL     1       2.488   4.790   4.622  0.00  0.00    +0.046 A 
ATOM     25  C   UNL     1       3.646   4.792   3.869  0.00  0.00    +0.009 A 
BRANCH  23  26
ATOM     26  O   UNL     1       0.151   4.378   4.790  0.00  0.00    -0.507 OA
ATOM     27  H   UNL     1       0.178   4.687   5.845  0.00  0.00    +0.292 HD
ENDBRANCH  23  26
ENDBRANCH   8  20
BRANCH   2  28
ATOM     28  N   UNL     1      10.550   2.224   1.885  0.00  0.00    -0.356 N 
ATOM     29  H   UNL     1      11.469   2.609   1.418  0.00  0.00    +0.142 HD
ATOM     30  H   UNL     1      10.564   1.258   2.411  0.00  0.00    +0.142 HD
ENDBRANCH   2  28
BRANCH   1  31
ATOM     31  C   UNL     1       7.916   1.428   3.091  0.00  0.00    +0.358 C 
ATOM     32  O   UNL     1       6.897   0.789   2.905  0.00  0.00    -0.243 OA
BRANCH  31  34
ATOM     33  C   UNL     1       8.504  -0.182   4.729  0.00  0.00    +0.280 C 
ATOM     34  O   UNL     1       8.815   1.014   4.011  0.00  0.00    -0.463 OA
ENDBRANCH  31  34
ENDBRANCH   1  31
BRANCH   6  35
ATOM     35  C   UNL     1       7.895   6.848   0.385  0.00  0.00    +0.347 C 
ATOM     36  O   UNL     1       8.433   7.765   0.979  0.00  0.00    -0.244 OA
BRANCH  35  37
ATOM     37  O   UNL     1       7.957   6.788  -0.963  0.00  0.00    -0.464 OA
ATOM     38  C   UNL     1       8.669   7.833  -1.627  0.00  0.00    +0.280 C 
ENDBRANCH  35  37
ENDBRANCH   6  35
TORSDOF 9
