REMARK  Name = ZINC09662625
REMARK  9 active torsions:
REMARK  status: ('A' for Active; 'I' for Inactive)
REMARK    1  A    between atoms: C_1  and  N_2
REMARK    2  A    between atoms: N_2  and  C_3
REMARK    3  A    between atoms: C_11  and  C_13
REMARK    4  A    between atoms: C_13  and  S_14
REMARK    5  A    between atoms: S_14  and  C_15
REMARK    6  A    between atoms: N_25  and  C_26
REMARK    7  A    between atoms: C_26  and  C_27
REMARK    8  A    between atoms: C_27  and  O_28
REMARK    9  A    between atoms: O_28  and  C_29
REMARK                            x       y       z     vdW  Elec       q    Type
REMARK                         _______ _______ _______ _____ _____    ______ ____
ROOT
ATOM      1  C   UNL     1      -0.047  -0.052  -5.284  0.00  0.00    +0.173 A 
ATOM      2  N   UNL     1      -0.058   1.247  -5.117  0.00  0.00    -0.223 NA
ATOM      3  C   UNL     1      -0.079   2.094  -6.166  0.00  0.00    +0.079 A 
ATOM      4  C   UNL     1      -0.090   3.481  -5.988  0.00  0.00    +0.028 A 
ATOM      5  C   UNL     1      -0.111   4.302  -7.079  0.00  0.00    +0.002 A 
ATOM      6  C   UNL     1      -0.122   3.781  -8.367  0.00  0.00    +0.001 A 
ATOM      7  C   UNL     1      -0.112   2.429  -8.573  0.00  0.00    +0.015 A 
ATOM      8  C   UNL     1      -0.090   1.567  -7.478  0.00  0.00    +0.065 A 
ATOM      9  C   UNL     1      -0.078   0.107  -7.639  0.00  0.00    +0.262 A 
ATOM     10  O   UNL     1      -0.086  -0.407  -8.742  0.00  0.00    -0.267 OA
ATOM     11  N   UNL     1      -0.051  -0.646  -6.514  0.00  0.00    -0.285 N 
ENDROOT
BRANCH   1  12
ATOM     12  S   UNL     1      -0.020  -1.082  -3.855  0.00  0.00    -0.078 S 
BRANCH  12  13
ATOM     13  C   UNL     1      -0.023   0.089  -2.470  0.00  0.00    +0.173 C 
BRANCH  13  16
ATOM     14  C   UNL     1      -0.018   1.461   0.010  0.00  0.00    +0.132 C 
ATOM     15  N   UNL     1       0.002  -0.004   0.002  0.00  0.00    -0.299 N 
ATOM     16  C   UNL     1       0.000  -0.672  -1.169  0.00  0.00    +0.226 C 
ATOM     17  O   UNL     1       0.017  -1.884  -1.175  0.00  0.00    -0.275 OA
BRANCH  15  18
ATOM     18  C   UNL     1       0.024  -0.743   1.267  0.00  0.00    +0.098 C 
ATOM     19  C   UNL     1      -1.209  -0.372   2.107  0.00  0.00    +0.046 C 
ATOM     20  C   UNL     1      -1.036  -0.889   3.555  0.00  0.00    +0.168 C 
ATOM     21  S   UNL     1       0.791  -0.893   3.767  0.00  0.00    -0.029 S 
ATOM     22  O   UNL     1       1.229  -2.228   3.981  0.00  0.00    -0.174 OA
ATOM     23  O   UNL     1       1.151   0.119   4.698  0.00  0.00    -0.174 OA
ATOM     24  C   UNL     1       1.295  -0.360   2.077  0.00  0.00    +0.188 C 
ENDBRANCH  15  18
ENDBRANCH  13  16
ENDBRANCH  12  13
ENDBRANCH   1  12
BRANCH  11  25
ATOM     25  C   UNL     1      -0.032  -2.107  -6.617  0.00  0.00    +0.155 C 
BRANCH  25  26
ATOM     26  C   UNL     1      -1.467  -2.636  -6.639  0.00  0.00    +0.181 C 
BRANCH  26  27
ATOM     27  O   UNL     1      -2.124  -2.182  -7.824  0.00  0.00    -0.381 OA
ATOM     28  C   UNL     1      -3.478  -2.623  -7.943  0.00  0.00    +0.194 C 
ENDBRANCH  26  27
ENDBRANCH  25  26
ENDBRANCH  11  25
TORSDOF 7
