REMARK  Name = ZINC42962051
REMARK  5 active torsions:
REMARK  status: ('A' for Active; 'I' for Inactive)
REMARK    1  A    between atoms: C_1  and  C_2
REMARK    2  A    between atoms: C_2  and  N_9
REMARK    3  A    between atoms: N_9  and  N_10
REMARK    4  A    between atoms: N_13  and  C_14
REMARK    5  A    between atoms: C_17  and  O_20
REMARK                            x       y       z     vdW  Elec       q    Type
REMARK                         _______ _______ _______ _____ _____    ______ ____
ROOT
ATOM      1  N   UNL     1      -2.107  -0.036  -1.006  0.00  0.00    -0.234 N 
ATOM      2  C   UNL     1      -3.404  -0.376  -1.133  0.00  0.00    +0.314 C 
ATOM      3  O   UNL     1      -4.049   0.031  -2.081  0.00  0.00    -0.252 OA
ATOM      4  N   UNL     1      -3.988  -1.167  -0.211  0.00  0.00    -0.296 N 
ATOM      5  H   UNL     1      -1.687   0.533  -1.669  0.00  0.00    +0.171 HD
ATOM      6  H   UNL     1      -3.473  -1.491   0.545  0.00  0.00    +0.151 HD
ENDROOT
BRANCH   4   7
ATOM      7  C   UNL     1      -5.398  -1.536  -0.349  0.00  0.00    +0.075 C 
ATOM      8  C   UNL     1      -6.275  -0.437   0.252  0.00  0.00    +0.025 C 
ATOM      9  C   UNL     1      -5.936  -0.267   1.734  0.00  0.00    +0.033 C 
ATOM     10  C   UNL     1      -6.193  -1.584   2.470  0.00  0.00    +0.115 C 
ATOM     11  C   UNL     1      -5.316  -2.684   1.868  0.00  0.00    +0.033 C 
ATOM     12  C   UNL     1      -5.655  -2.853   0.386  0.00  0.00    +0.025 C 
BRANCH  10  13
ATOM     13  O   UNL     1      -5.876  -1.426   3.854  0.00  0.00    -0.392 OA
ATOM     14  H   UNL     1      -6.015  -2.224   4.383  0.00  0.00    +0.210 HD
ENDBRANCH  10  13
ENDBRANCH   4   7
BRANCH   1  15
ATOM     15  N   UNL     1      -1.382  -0.492   0.059  0.00  0.00    -0.232 NA
ATOM     16  H   UNL     1      -1.408  -1.500   0.108  0.00  0.00    +0.145 HD
BRANCH  15  18
ATOM     17  C   UNL     1      -0.019   1.526   0.010  0.00  0.00    +0.031 C 
ATOM     18  C   UNL     1       0.002  -0.004   0.002  0.00  0.00    +0.054 C 
ATOM     19  C   UNL     1       0.632  -0.478  -1.307  0.00  0.00    +0.047 C 
ATOM     20  C   UNL     1       2.169  -0.637  -1.140  0.00  0.00    +0.168 C 
ATOM     21  S   UNL     1       2.220  -1.358   0.560  0.00  0.00    -0.029 S 
ATOM     22  O   UNL     1       3.389  -0.902   1.226  0.00  0.00    -0.174 OA
ATOM     23  O   UNL     1       1.952  -2.752   0.484  0.00  0.00    -0.174 OA
ATOM     24  C   UNL     1       0.751  -0.495   1.257  0.00  0.00    +0.189 C 
ENDBRANCH  15  18
ENDBRANCH   1  15
TORSDOF 4
