REMARK  Name = ZINC03073690
REMARK  12 active torsions:
REMARK  status: ('A' for Active; 'I' for Inactive)
REMARK    1  A    between atoms: C_1  and  C_2
REMARK    2  A    between atoms: C_2  and  O_3
REMARK    3  A    between atoms: O_3  and  C_4
REMARK    4  A    between atoms: C_4  and  C_6
REMARK    5  A    between atoms: C_7  and  C_31
REMARK    6  A    between atoms: C_11  and  C_13
REMARK    7  A    between atoms: C_15  and  O_22
REMARK    8  A    between atoms: C_18  and  O_19
REMARK    9  A    between atoms: O_19  and  C_20
REMARK   10  A    between atoms: O_22  and  C_23
REMARK   11  A    between atoms: C_27  and  C_29
REMARK   12  A    between atoms: C_27  and  C_30
REMARK                            x       y       z     vdW  Elec       q    Type
REMARK                         _______ _______ _______ _____ _____    ______ ____
ROOT
ATOM      1  C   UNL     1      -1.155   3.093  -0.586  0.00  0.00    +0.065 C 
ATOM      2  C   UNL     1      -0.132   3.963  -0.613  0.00  0.00    +0.016 C 
ATOM      3  N   UNL     1       1.046   3.667   0.014  0.00  0.00    -0.321 N 
ATOM      4  C   UNL     1       1.362   2.372   0.328  0.00  0.00    +0.016 C 
ATOM      5  C   UNL     1       0.399   1.429   0.397  0.00  0.00    +0.024 C 
ATOM      6  C   UNL     1      -1.044   1.782   0.137  0.00  0.00    +0.096 C 
ATOM      7  C   UNL     1       0.710   0.096   0.717  0.00  0.00    +0.162 C 
ATOM      8  O   UNL     1      -0.179  -0.732   0.752  0.00  0.00    -0.292 OA
ATOM      9  C   UNL     1       2.123  -0.324   1.017  0.00  0.00    +0.086 C 
ATOM     10  C   UNL     1       2.887   0.874   1.593  0.00  0.00    -0.023 C 
ATOM     11  C   UNL     1       2.807   2.027   0.590  0.00  0.00    +0.058 C 
ATOM     12  C   UNL     1       2.252   1.299   2.918  0.00  0.00    +0.011 C 
ATOM     13  C   UNL     1       4.349   0.487   1.824  0.00  0.00    +0.011 C 
ATOM     14  C   UNL     1      -0.283   5.275  -1.340  0.00  0.00    +0.061 C 
ATOM     15  H   UNL     1       1.750   4.472   0.271  0.00  0.00    +0.152 HD
ENDROOT
BRANCH   6  16
ATOM     16  C   UNL     1      -1.775   1.877   1.452  0.00  0.00    +0.011 A 
ATOM     17  C   UNL     1      -2.876   1.077   1.690  0.00  0.00    +0.053 A 
ATOM     18  C   UNL     1      -3.545   1.159   2.902  0.00  0.00    +0.122 A 
ATOM     19  C   UNL     1      -3.115   2.054   3.872  0.00  0.00    +0.064 A 
ATOM     20  C   UNL     1      -2.018   2.858   3.632  0.00  0.00    +0.063 A 
ATOM     21  C   UNL     1      -1.345   2.771   2.421  0.00  0.00    +0.138 A 
ATOM     22 BR   UNL     1      -1.432   4.077   4.954  0.00  0.00    -0.046 Br
BRANCH  21  23
ATOM     23  O   UNL     1      -0.265   3.563   2.184  0.00  0.00    -0.494 OA
ATOM     24  C   UNL     1      -0.520   4.939   1.897  0.00  0.00    +0.277 C 
ENDBRANCH  21  23
BRANCH  18  25
ATOM     25  O   UNL     1      -4.625   0.368   3.138  0.00  0.00    -0.495 OA
ATOM     26  C   UNL     1      -5.269   0.510   4.405  0.00  0.00    +0.277 C 
ENDBRANCH  18  25
ENDBRANCH   6  16
BRANCH   1  27
ATOM     27  C   UNL     1      -2.361   3.419  -1.250  0.00  0.00    +0.338 C 
ATOM     28  O   UNL     1      -2.464   4.479  -1.838  0.00  0.00    -0.245 OA
BRANCH  27  29
ATOM     29  O   UNL     1      -3.397   2.554  -1.231  0.00  0.00    -0.462 OA
BRANCH  29  31
ATOM     30  C   UNL     1      -5.640   1.849  -1.790  0.00  0.00    +0.048 C 
ATOM     31  C   UNL     1      -4.584   2.949  -1.922  0.00  0.00    +0.229 C 
ENDBRANCH  29  31
ENDBRANCH  27  29
ENDBRANCH   1  27
TORSDOF 6
