REMARK  Name = ZINC33928331
REMARK  6 active torsions:
REMARK  status: ('A' for Active; 'I' for Inactive)
REMARK    1  A    between atoms: C_1  and  C_2
REMARK    2  A    between atoms: N_8  and  C_9
REMARK    3  A    between atoms: C_9  and  C_10
REMARK    4  A    between atoms: C_11  and  C_21
REMARK    5  A    between atoms: N_23  and  N_24
REMARK    6  A    between atoms: C_25  and  C_26
REMARK                            x       y       z     vdW  Elec       q    Type
REMARK                         _______ _______ _______ _____ _____    ______ ____
ROOT
ATOM      1  C   UNL     1       0.910  -0.383   3.558  0.00  0.00    +0.063 A 
ATOM      2  C   UNL     1       0.792  -1.542   4.272  0.00  0.00    +0.170 A 
ATOM      3  N   UNL     1       1.834  -1.629   5.117  0.00  0.00    -0.124 NA
ATOM      4  N   UNL     1       2.593  -0.599   4.975  0.00  0.00    -0.058 NA
ATOM      5  N   UNL     1       2.041   0.223   3.982  0.00  0.00    -0.194 N 
ATOM      6  C   UNL     1       2.561   1.438   3.521  0.00  0.00    +0.240 A 
ATOM      7  C   UNL     1       3.793   2.077   3.990  0.00  0.00    +0.206 A 
ATOM      8  N   UNL     1       3.953   3.193   3.332  0.00  0.00    -0.032 NA
ATOM      9  O   UNL     1       2.866   3.326   2.434  0.00  0.00    -0.239 OA
ATOM     10  N   UNL     1       2.033   2.192   2.598  0.00  0.00    -0.027 NA
ATOM     11  N   UNL     1       4.647   1.580   4.969  0.00  0.00    -0.337 N 
ATOM     12  H   UNL     1       4.445   0.738   5.406  0.00  0.00    +0.144 HD
ATOM     13  H   UNL     1       5.444   2.075   5.215  0.00  0.00    +0.144 HD
ENDROOT
BRANCH   2  14
ATOM     14  C   UNL     1      -0.295  -2.529   4.139  0.00  0.00    +0.285 C 
ATOM     15  O   UNL     1      -1.245  -2.294   3.416  0.00  0.00    -0.267 OA
ATOM     16  N   UNL     1      -0.236  -3.692   4.817  0.00  0.00    -0.202 N 
ATOM     17  H   UNL     1       0.484  -3.849   5.449  0.00  0.00    +0.178 HD
BRANCH  16  18
ATOM     18  N   UNL     1      -1.214  -4.674   4.611  0.00  0.00    -0.187 NA
ATOM     19  C   UNL     1      -1.219  -5.748   5.340  0.00  0.00    +0.141 C 
BRANCH  19  20
ATOM     20  C   UNL     1      -0.289  -5.872   6.477  0.00  0.00    +0.031 A 
ATOM     21  C   UNL     1      -0.282  -4.905   7.487  0.00  0.00    +0.051 A 
ATOM     22  C   UNL     1       0.592  -5.027   8.549  0.00  0.00    +0.021 A 
ATOM     23  C   UNL     1       1.459  -6.103   8.615  0.00  0.00    +0.003 A 
ATOM     24  C   UNL     1       1.458  -7.064   7.620  0.00  0.00    +0.021 A 
ATOM     25  C   UNL     1       0.586  -6.959   6.555  0.00  0.00    +0.051 A 
ATOM     26 CL   UNL     1       0.581  -8.170   5.311  0.00  0.00    -0.083 Cl
ATOM     27 CL   UNL     1      -1.368  -3.553   7.405  0.00  0.00    -0.083 Cl
ENDBRANCH  19  20
ENDBRANCH  16  18
ENDBRANCH   2  14
BRANCH   1  28
ATOM     28  C   UNL     1      -0.035   0.120   2.498  0.00  0.00    -0.019 C 
BRANCH  28  35
ATOM     29  C   UNL     1      -0.387   1.718   0.216  0.00  0.00    -0.013 C 
ATOM     30  C   UNL     1      -0.466   0.191   0.141  0.00  0.00    -0.071 C 
ATOM     31  C   UNL     1       0.017  -0.277  -1.233  0.00  0.00    -0.016 C 
ATOM     32  C   UNL     1      -0.064  -1.804  -1.304  0.00  0.00    -0.003 C 
ATOM     33  C   UNL     1       0.764  -2.403  -0.163  0.00  0.00    -0.019 C 
ATOM     34  C   UNL     1       0.254  -1.856   1.172  0.00  0.00    -0.078 C 
ATOM     35  N   UNL     1       0.382  -0.394   1.187  0.00  0.00    +0.385 N 
ATOM     36  H   UNL     1       1.344  -0.140   1.019  0.00  0.00    -0.081 HD
ENDBRANCH  28  35
ENDBRANCH   1  28
TORSDOF 5
