REMARK  Name = ZINC02447824
REMARK  6 active torsions:
REMARK  status: ('A' for Active; 'I' for Inactive)
REMARK    1  A    between atoms: C_9  and  C_21
REMARK    2  A    between atoms: C_10  and  N_20
REMARK    3  A    between atoms: N_11  and  C_14
REMARK    4  A    between atoms: C_14  and  C_15
REMARK    5  A    between atoms: N_23  and  C_24
REMARK    6  A    between atoms: C_24  and  C_25
REMARK                            x       y       z     vdW  Elec       q    Type
REMARK                         _______ _______ _______ _____ _____    ______ ____
ROOT
ATOM      1  C   UNL     1      -1.173  -2.091   0.003  0.00  0.00    +0.002 A 
ATOM      2  C   UNL     1       0.039  -2.780  -0.013  0.00  0.00    +0.002 A 
ATOM      3  C   UNL     1       1.224  -2.111  -0.021  0.00  0.00    +0.030 A 
ATOM      4  C   UNL     1       1.234  -0.704  -0.013  0.00  0.00    +0.092 A 
ATOM      5  C   UNL     1       0.002  -0.004   0.002  0.00  0.00    +0.090 A 
ATOM      6  C   UNL     1      -1.203  -0.731   0.010  0.00  0.00    +0.030 A 
ATOM      7  N   UNL     1      -0.016   1.334   0.009  0.00  0.00    -0.241 NA
ATOM      8  C   UNL     1       1.122   1.999   0.002  0.00  0.00    +0.122 A 
ATOM      9  C   UNL     1       1.481   3.427   0.005  0.00  0.00    +0.103 A 
ATOM     10  C   UNL     1       2.871   3.483  -0.008  0.00  0.00    +0.113 A 
ATOM     11  N   UNL     1       3.397   2.228  -0.018  0.00  0.00    -0.305 N 
ATOM     12  C   UNL     1       2.397   1.278  -0.014  0.00  0.00    +0.162 A 
ATOM     13  N   UNL     1       2.396  -0.038  -0.021  0.00  0.00    -0.226 NA
ENDROOT
BRANCH   9  14
ATOM     14  C   UNL     1       0.560   4.561   0.019  0.00  0.00    +0.250 C 
ATOM     15  O   UNL     1       0.166   5.038  -1.030  0.00  0.00    -0.270 OA
ATOM     16  N   UNL     1       0.146   5.078   1.193  0.00  0.00    -0.307 N 
ATOM     17  H   UNL     1       0.460   4.697   2.028  0.00  0.00    +0.149 HD
BRANCH  16  18
ATOM     18  C   UNL     1      -0.778   6.215   1.207  0.00  0.00    +0.147 C 
BRANCH  18  19
ATOM     19  C   UNL     1      -1.081   6.598   2.633  0.00  0.00    +0.007 A 
ATOM     20  C   UNL     1      -0.433   7.475   3.438  0.00  0.00    +0.013 A 
ATOM     21  C   UNL     1      -0.897   7.672   4.724  0.00  0.00    +0.008 A 
ATOM     22  C   UNL     1      -1.980   6.976   5.147  0.00  0.00    +0.045 A 
ATOM     23  S   UNL     1      -2.384   6.008   3.702  0.00  0.00    -0.100 S 
ENDBRANCH  18  19
ENDBRANCH  16  18
ENDBRANCH   9  14
BRANCH  10  24
ATOM     24  N   UNL     1       3.606   4.640  -0.009  0.00  0.00    -0.344 N 
ATOM     25  H   UNL     1       4.575   4.598  -0.018  0.00  0.00    +0.144 HD
ATOM     26  H   UNL     1       3.158   5.500  -0.001  0.00  0.00    +0.144 HD
ENDBRANCH  10  24
BRANCH  11  27
ATOM     27  C   UNL     1       4.831   1.928  -0.033  0.00  0.00    +0.199 C 
BRANCH  27  28
ATOM     28  C   UNL     1       5.310   1.831  -1.458  0.00  0.00    +0.125 A 
ATOM     29  C   UNL     1       5.779   2.849  -2.202  0.00  0.00    +0.046 A 
ATOM     30  C   UNL     1       6.114   2.313  -3.466  0.00  0.00    +0.041 A 
ATOM     31  C   UNL     1       5.822   1.001  -3.423  0.00  0.00    +0.195 A 
ATOM     32  O   UNL     1       5.335   0.714  -2.204  0.00  0.00    -0.466 OA
ENDBRANCH  27  28
ENDBRANCH  11  27
TORSDOF 6
