REMARK  Name = ZINC36593734
REMARK  5 active torsions:
REMARK  status: ('A' for Active; 'I' for Inactive)
REMARK    1  A    between atoms: C_1  and  C_2
REMARK    2  A    between atoms: C_7  and  C_9
REMARK    3  A    between atoms: C_17  and  C_19
REMARK    4  A    between atoms: N_25  and  C_26
REMARK    5  A    between atoms: C_26  and  C_27
REMARK                            x       y       z     vdW  Elec       q    Type
REMARK                         _______ _______ _______ _____ _____    ______ ____
ROOT
ATOM      1  C   UNL     1      -0.158  -5.847  -0.019  0.00  0.00    +0.185 C 
ATOM      2  C   UNL     1      -1.625  -5.525   0.356  0.00  0.00    +0.199 C 
ATOM      3  S   UNL     1      -2.484  -6.934  -0.476  0.00  0.00    -0.013 S 
ATOM      4  O   UNL     1      -3.719  -6.485  -1.015  0.00  0.00    -0.173 OA
ATOM      5  O   UNL     1      -2.455  -8.074   0.372  0.00  0.00    -0.173 OA
ATOM      6  C   UNL     1      -1.257  -7.148  -1.840  0.00  0.00    +0.275 C 
ATOM      7  N   UNL     1      -0.013  -6.712  -1.177  0.00  0.00    -0.267 N 
ATOM      8  C   UNL     1       1.198  -7.101  -1.624  0.00  0.00    +0.238 C 
ATOM      9  O   UNL     1       2.204  -6.662  -1.110  0.00  0.00    -0.273 OA
ENDROOT
BRANCH   1  16
ATOM     10  C   UNL     1       3.016   1.308   0.415  0.00  0.00    +0.075 C 
ATOM     11  C   UNL     1       2.436  -0.073   0.251  0.00  0.00    +0.101 A 
ATOM     12  N   UNL     1       2.470  -0.887  -0.785  0.00  0.00    -0.145 NA
ATOM     13  N   UNL     1       1.908  -2.015  -0.699  0.00  0.00    -0.126 NA
ATOM     14  C   UNL     1       1.287  -2.403   0.397  0.00  0.00    +0.188 A 
ATOM     15  N   UNL     1       0.625  -3.599   0.654  0.00  0.00    -0.262 N 
ATOM     16  C   UNL     1       0.560  -4.551  -0.297  0.00  0.00    +0.241 C 
ATOM     17  O   UNL     1       1.079  -4.366  -1.377  0.00  0.00    -0.273 OA
ATOM     18  S   UNL     1       1.513  -1.073   1.409  0.00  0.00    -0.036 S 
ATOM     19  H   UNL     1       0.209  -3.747   1.518  0.00  0.00    +0.157 HD
ENDBRANCH   1  16
BRANCH   8  20
ATOM     20  C   UNL     1       1.300  -8.082  -2.763  0.00  0.00    +0.163 C 
ATOM     21  C   UNL     1       1.339  -9.528  -2.222  0.00  0.00    +0.041 C 
ATOM     22  C   UNL     1       2.860  -9.788  -2.123  0.00  0.00    +0.098 C 
ATOM     23  C   UNL     1       3.464  -8.839  -3.135  0.00  0.00    +0.217 C 
ATOM     24  O   UNL     1       4.593  -8.916  -3.571  0.00  0.00    -0.276 OA
ATOM     25  N   UNL     1       2.567  -7.897  -3.481  0.00  0.00    -0.286 N 
BRANCH  25  26
ATOM     26  C   UNL     1       2.821  -6.826  -4.447  0.00  0.00    +0.135 C 
BRANCH  26  27
ATOM     27  C   UNL     1       3.379  -5.624  -3.730  0.00  0.00    -0.016 C 
ATOM     28  C   UNL     1       4.518  -5.102  -4.114  0.00  0.00    +0.005 C 
ENDBRANCH  26  27
ENDBRANCH  25  26
ENDBRANCH   8  20
TORSDOF 4
