REMARK  Name = ZINC22318602
REMARK  13 active torsions:
REMARK  status: ('A' for Active; 'I' for Inactive)
REMARK    1  A    between atoms: C_1  and  C_2
REMARK    2  A    between atoms: C_5  and  S_8
REMARK    3  A    between atoms: S_8  and  N_11
REMARK    4  A    between atoms: N_11  and  C_12
REMARK    5  A    between atoms: N_11  and  C_31
REMARK    6  A    between atoms: C_12  and  C_13
REMARK    7  A    between atoms: N_15  and  C_16
REMARK    8  A    between atoms: C_16  and  C_17
REMARK    9  A    between atoms: C_17  and  C_19
REMARK   10  A    between atoms: C_17  and  C_20
REMARK   11  A    between atoms: C_20  and  C_21
REMARK   12  A    between atoms: C_34  and  C_38
REMARK   13  A    between atoms: C_35  and  C_37
REMARK                            x       y       z     vdW  Elec       q    Type
REMARK                         _______ _______ _______ _____ _____    ______ ____
ROOT
ATOM      1  N   UNL     1      -6.893   7.937   4.544  0.00  0.00    -0.194 N 
ENDROOT
BRANCH   1   2
ATOM      2  C   UNL     1      -7.003   9.327   4.629  0.00  0.00    +0.052 A 
ATOM      3  C   UNL     1      -8.113   9.902   5.236  0.00  0.00    +0.025 A 
ATOM      4  C   UNL     1      -8.216  11.276   5.322  0.00  0.00    +0.005 A 
ATOM      5  C   UNL     1      -7.222  12.081   4.796  0.00  0.00    -0.047 A 
ATOM      6  C   UNL     1      -6.119  11.512   4.186  0.00  0.00    -0.046 A 
ATOM      7  C   UNL     1      -6.007  10.138   4.101  0.00  0.00    +0.028 A 
ATOM      8  C   UNL     1      -5.038  12.392   3.613  0.00  0.00    +0.044 C 
ATOM      9  C   UNL     1      -7.340  13.580   4.887  0.00  0.00    +0.044 C 
ENDBRANCH   1   2
BRANCH   1  10
ATOM     10  S   UNL     1      -8.076   7.058   3.789  0.00  0.00    +0.075 S 
ATOM     11  O   UNL     1      -8.812   7.971   2.988  0.00  0.00    -0.150 OA
ATOM     12  O   UNL     1      -7.442   5.907   3.246  0.00  0.00    -0.150 OA
BRANCH  10  17
ATOM     13  C   UNL     1     -11.845   5.089   8.069  0.00  0.00    +0.044 C 
ATOM     14  C   UNL     1     -10.904   5.581   7.000  0.00  0.00    -0.050 A 
ATOM     15  C   UNL     1     -11.194   6.738   6.302  0.00  0.00    +0.005 A 
ATOM     16  C   UNL     1     -10.331   7.189   5.321  0.00  0.00    +0.029 A 
ATOM     17  C   UNL     1      -9.176   6.483   5.039  0.00  0.00    +0.109 A 
ATOM     18  C   UNL     1      -8.888   5.323   5.733  0.00  0.00    +0.029 A 
ATOM     19  C   UNL     1      -9.750   4.874   6.717  0.00  0.00    +0.005 A 
ENDBRANCH  10  17
ENDBRANCH   1  10
BRANCH   1  20
ATOM     20  C   UNL     1      -5.732   7.258   5.124  0.00  0.00    +0.227 C 
BRANCH  20  21
ATOM     21  C   UNL     1      -4.599   7.263   4.130  0.00  0.00    +0.232 C 
ATOM     22  O   UNL     1      -4.747   7.784   3.045  0.00  0.00    -0.274 OA
ATOM     23  N   UNL     1      -3.421   6.690   4.448  0.00  0.00    -0.314 N 
ATOM     24  H   UNL     1      -3.287   6.218   5.433  0.00  0.00    +0.149 HD
BRANCH  23  25
ATOM     25  C   UNL     1      -2.320   6.695   3.482  0.00  0.00    +0.107 C 
BRANCH  25  26
ATOM     26  C   UNL     1      -1.107   5.986   4.088  0.00  0.00    +0.007 C 
ATOM     27  C   UNL     1      -0.596   6.784   5.288  0.00  0.00    +0.009 C 
BRANCH  26  28
ATOM     28  C   UNL     1      -0.000   5.881   3.036  0.00  0.00    +0.040 C 
BRANCH  28  29
ATOM     29  C   UNL     1       1.146   5.076   3.592  0.00  0.00    -0.039 A 
ATOM     30  C   UNL     1       2.205   5.703   4.173  0.00  0.00    +0.004 A 
ATOM     31  C   UNL     1       3.273   4.975   4.692  0.00  0.00    +0.001 A 
ATOM     32  C   UNL     1       3.289   3.615   4.634  0.00  0.00    +0.008 A 
ATOM     33  C   UNL     1       2.213   2.932   4.042  0.00  0.00    -0.018 A 
ATOM     34  C   UNL     1       1.127   3.673   3.513  0.00  0.00    -0.015 A 
ATOM     35  C   UNL     1       0.051   2.990   2.921  0.00  0.00    +0.009 A 
ATOM     36  C   UNL     1       0.069   1.631   2.857  0.00  0.00    +0.001 A 
ATOM     37  C   UNL     1       1.135   0.902   3.382  0.00  0.00    +0.001 A 
ATOM     38  C   UNL     1       2.194   1.529   3.963  0.00  0.00    +0.008 A 
ENDBRANCH  28  29
ENDBRANCH  26  28
ENDBRANCH  25  26
ENDBRANCH  23  25
ENDBRANCH  20  21
ENDBRANCH   1  20
TORSDOF 9
