REMARK  Name = ZINC31047007
REMARK  10 active torsions:
REMARK  status: ('A' for Active; 'I' for Inactive)
REMARK    1  A    between atoms: C_1  and  C_2
REMARK    2  A    between atoms: C_7  and  O_8
REMARK    3  A    between atoms: O_8  and  C_9
REMARK    4  A    between atoms: C_9  and  C_10
REMARK    5  A    between atoms: C_10  and  C_12
REMARK    6  A    between atoms: C_10  and  N_13
REMARK    7  A    between atoms: C_14  and  C_16
REMARK    8  A    between atoms: N_21  and  C_23
REMARK    9  A    between atoms: C_23  and  C_24
REMARK   10  A    between atoms: C_26  and  C_29
REMARK                            x       y       z     vdW  Elec       q    Type
REMARK                         _______ _______ _______ _____ _____    ______ ____
ROOT
ATOM      1  C   UNL     1      -0.756   1.594  -1.230  0.00  0.00    +0.058 C 
ATOM      2  C   UNL     1      -0.013   1.086   0.008  0.00  0.00    +0.009 C 
ATOM      3  C   UNL     1      -0.732   1.581   1.266  0.00  0.00    -0.018 C 
ATOM      4  C   UNL     1      -2.185   1.096   1.239  0.00  0.00    -0.078 C 
ATOM      5  N   UNL     1      -2.852   1.610   0.036  0.00  0.00    +0.386 N 
ATOM      6  C   UNL     1      -2.207   1.109  -1.184  0.00  0.00    -0.065 C 
ATOM      7  H   UNL     1      -2.756   2.705   0.042  0.00  0.00    -0.081 HD
ENDROOT
BRANCH   1   9
ATOM      8  N   UNL     1       1.203   1.360  -2.722  0.00  0.00    -0.309 N 
ATOM      9  C   UNL     1      -0.087   1.063  -2.472  0.00  0.00    +0.215 C 
ATOM     10  O   UNL     1      -0.710   0.367  -3.246  0.00  0.00    -0.276 OA
ATOM     11  H   UNL     1       1.769   1.991  -2.020  0.00  0.00    +0.149 HD
BRANCH   8  12
ATOM     12  C   UNL     1       1.853   0.843  -3.929  0.00  0.00    +0.107 C 
ATOM     13  C   UNL     1       2.383  -0.567  -3.659  0.00  0.00    +0.031 C 
BRANCH  12  14
ATOM     14  C   UNL     1       3.016   1.760  -4.314  0.00  0.00    +0.251 C 
BRANCH  14  15
ATOM     15  O   UNL     1       4.018   1.713  -3.296  0.00  0.00    -0.490 OA
BRANCH  15  22
ATOM     16  C   UNL     1       6.009   1.634  -1.294  0.00  0.00    +0.047 C 
ATOM     17  C   UNL     1       6.138   2.478  -2.536  0.00  0.00    -0.009 A 
ATOM     18  C   UNL     1       7.264   3.255  -2.731  0.00  0.00    +0.007 A 
ATOM     19  C   UNL     1       7.382   4.030  -3.869  0.00  0.00    +0.000 A 
ATOM     20  C   UNL     1       6.375   4.029  -4.817  0.00  0.00    +0.004 A 
ATOM     21  C   UNL     1       5.250   3.250  -4.630  0.00  0.00    +0.046 A 
ATOM     22  C   UNL     1       5.126   2.476  -3.485  0.00  0.00    +0.123 A 
ENDBRANCH  15  22
ENDBRANCH  14  15
ENDBRANCH  12  14
ENDBRANCH   8  12
ENDBRANCH   1   9
BRANCH   5  23
ATOM     23  C   UNL     1      -4.284   1.280   0.048  0.00  0.00    +0.022 C 
BRANCH  23  24
ATOM     24  C   UNL     1      -4.959   2.012   1.179  0.00  0.00    +0.211 A 
ATOM     25  N   UNL     1      -5.495   3.205   1.123  0.00  0.00    -0.193 NA
ATOM     26  C   UNL     1      -5.977   3.445   2.363  0.00  0.00    +0.202 A 
ATOM     27  N   UNL     1      -5.701   2.397   3.094  0.00  0.00    -0.056 NA
ATOM     28  O   UNL     1      -5.118   1.567   2.429  0.00  0.00    -0.340 OA
BRANCH  26  29
ATOM     29  C   UNL     1      -6.683   4.671   2.812  0.00  0.00    +0.023 A 
ATOM     30  C   UNL     1      -6.904   5.717   1.919  0.00  0.00    +0.013 A 
ATOM     31  C   UNL     1      -7.567   6.852   2.339  0.00  0.00    +0.021 A 
ATOM     32  C   UNL     1      -8.001   6.958   3.650  0.00  0.00    +0.041 A 
ATOM     33  C   UNL     1      -7.778   5.923   4.543  0.00  0.00    +0.021 A 
ATOM     34  C   UNL     1      -7.122   4.782   4.130  0.00  0.00    +0.013 A 
ATOM     35 CL   UNL     1      -8.827   8.391   4.175  0.00  0.00    -0.084 Cl
ENDBRANCH  26  29
ENDBRANCH  23  24
ENDBRANCH   5  23
TORSDOF 8
