REMARK  Name = ZINC19974124
REMARK  8 active torsions:
REMARK  status: ('A' for Active; 'I' for Inactive)
REMARK    1  A    between atoms: C_1  and  C_2
REMARK    2  A    between atoms: C_3  and  C_9
REMARK    3  A    between atoms: C_4  and  O_8
REMARK    4  A    between atoms: C_9  and  C_10
REMARK    5  A    between atoms: C_9  and  C_18
REMARK    6  A    between atoms: C_13  and  N_15
REMARK    7  A    between atoms: C_19  and  C_25
REMARK    8  A    between atoms: C_23  and  O_24
REMARK                            x       y       z     vdW  Elec       q    Type
REMARK                         _______ _______ _______ _____ _____    ______ ____
ROOT
ATOM      1  C   UNL     1      -0.020  -0.323  -2.560  0.00  0.00    +0.100 C 
ENDROOT
BRANCH   1   4
ATOM      2  C   UNL     1       2.378  -0.984  -0.598  0.00  0.00    +0.068 C 
ATOM      3  C   UNL     1       0.930  -1.339  -0.376  0.00  0.00    +0.068 A 
ATOM      4  C   UNL     1      -0.127  -1.047  -1.243  0.00  0.00    +0.048 A 
ATOM      5  C   UNL     1      -1.268  -1.531  -0.685  0.00  0.00    +0.213 A 
ATOM      6  N   UNL     1      -0.936  -2.108   0.491  0.00  0.00    -0.247 N 
ATOM      7  H   UNL     1      -1.548  -2.539   1.108  0.00  0.00    +0.192 HD
ATOM      8  N   UNL     1       0.448  -1.979   0.658  0.00  0.00    -0.176 NA
BRANCH   5   9
ATOM      9  O   UNL     1      -2.516  -1.450  -1.215  0.00  0.00    -0.492 OA
ATOM     10  H   UNL     1      -2.784  -2.235  -1.712  0.00  0.00    +0.294 HD
ENDBRANCH   5   9
ENDBRANCH   1   4
BRANCH   1  11
ATOM     11  C   UNL     1       1.269  -0.704  -3.240  0.00  0.00    +0.048 A 
ATOM     12  C   UNL     1       2.208   0.152  -3.704  0.00  0.00    +0.041 A 
ATOM     13  N   UNL     1       3.206  -0.581  -4.242  0.00  0.00    -0.278 N 
ATOM     14  N   UNL     1       2.871  -1.935  -4.105  0.00  0.00    -0.136 NA
ATOM     15  H   UNL     1       4.013  -0.232  -4.651  0.00  0.00    +0.189 HD
ATOM     16  C   UNL     1       1.711  -2.010  -3.499  0.00  0.00    +0.236 A 
ATOM     17  C   UNL     1       2.151   1.656  -3.633  0.00  0.00    +0.065 C 
BRANCH  16  18
ATOM     18  O   UNL     1       1.050  -3.155  -3.180  0.00  0.00    -0.491 OA
ATOM     19  H   UNL     1       0.451  -3.469  -3.871  0.00  0.00    +0.294 HD
ENDBRANCH  16  18
ENDBRANCH   1  11
BRANCH   1  20
ATOM     20  C   UNL     1      -1.184  -0.704  -3.438  0.00  0.00    +0.004 A 
ATOM     21  C   UNL     1      -2.141   0.089  -3.979  0.00  0.00    +0.014 A 
ATOM     22  C   UNL     1      -3.124  -0.486  -4.763  0.00  0.00    +0.041 A 
ATOM     23  C   UNL     1      -3.101  -1.826  -4.968  0.00  0.00    +0.164 A 
ATOM     24  S   UNL     1      -1.654  -2.316  -4.044  0.00  0.00    -0.069 S 
BRANCH  23  25
ATOM     25  N   UNL     1      -4.031  -2.664  -5.758  0.00  0.00    +0.063 N 
ATOM     26  O   UNL     1      -4.967  -2.155  -6.329  0.00  0.00    -0.126 OA
ATOM     27  O   UNL     1      -3.854  -3.858  -5.831  0.00  0.00    -0.126 OA
ENDBRANCH  23  25
ENDBRANCH   1  20
TORSDOF 6
