REMARK  Name = ZINC38826063
REMARK  7 active torsions:
REMARK  status: ('A' for Active; 'I' for Inactive)
REMARK    1  A    between atoms: C_1  and  C_2
REMARK    2  A    between atoms: C_4  and  C_16
REMARK    3  A    between atoms: C_6  and  C_15
REMARK    4  A    between atoms: N_8  and  C_9
REMARK    5  A    between atoms: N_17  and  N_18
REMARK    6  A    between atoms: C_19  and  C_21
REMARK    7  A    between atoms: C_24  and  C_27
REMARK                            x       y       z     vdW  Elec       q    Type
REMARK                         _______ _______ _______ _____ _____    ______ ____
ROOT
ATOM      1  N   UNL     1      -4.261   1.697  -0.755  0.00  0.00    -0.205 N 
ATOM      2  C   UNL     1      -5.193   1.808  -1.723  0.00  0.00    +0.263 C 
ATOM      3  O   UNL     1      -5.220   1.006  -2.632  0.00  0.00    -0.271 OA
ATOM      4  H   UNL     1      -4.239   2.339  -0.028  0.00  0.00    +0.177 HD
ENDROOT
BRANCH   2   5
ATOM      5  C   UNL     1      -6.200   2.927  -1.674  0.00  0.00    +0.240 C 
ATOM      6  C   UNL     1      -7.352   2.573  -0.750  0.00  0.00    +0.041 C 
ATOM      7  C   UNL     1      -8.428   2.576  -1.560  0.00  0.00    +0.092 C 
ATOM      8  N   UNL     1      -8.063   2.885  -2.832  0.00  0.00    -0.153 NA
ATOM      9  N   UNL     1      -6.854   3.095  -2.983  0.00  0.00    -0.170 NA
BRANCH   7  10
ATOM     10  C   UNL     1      -9.816   2.284  -1.125  0.00  0.00    +0.002 A 
ATOM     11  C   UNL     1     -10.081   1.984   0.210  0.00  0.00    +0.013 A 
ATOM     12  C   UNL     1     -11.373   1.714   0.611  0.00  0.00    +0.039 A 
ATOM     13  C   UNL     1     -12.407   1.740  -0.311  0.00  0.00    +0.123 A 
ATOM     14  C   UNL     1     -12.148   2.038  -1.639  0.00  0.00    +0.039 A 
ATOM     15  C   UNL     1     -10.859   2.316  -2.048  0.00  0.00    +0.013 A 
ATOM     16  F   UNL     1     -13.670   1.474   0.085  0.00  0.00    -0.205 F 
ENDBRANCH   7  10
ENDBRANCH   2   5
BRANCH   1  18
ATOM     17  C   UNL     1      -2.439   0.552   0.119  0.00  0.00    +0.114 C 
ATOM     18  N   UNL     1      -3.324   0.656  -0.800  0.00  0.00    -0.192 NA
BRANCH  17  21
ATOM     19  C   UNL     1      -0.019   1.526   0.010  0.00  0.00    +0.031 C 
ATOM     20  C   UNL     1       0.002  -0.004   0.002  0.00  0.00    +0.109 C 
ATOM     21  C   UNL     1      -1.432  -0.568   0.070  0.00  0.00    +0.099 C 
ATOM     22  C   UNL     1      -1.448  -1.357   1.360  0.00  0.00    +0.044 C 
ATOM     23  N   UNL     1      -0.311  -1.284   1.922  0.00  0.00    -0.188 NA
ATOM     24  N   UNL     1       0.631  -0.522   1.228  0.00  0.00    -0.221 N 
ATOM     25  C   UNL     1      -2.634  -2.115   1.898  0.00  0.00    +0.063 C 
BRANCH  24  26
ATOM     26  C   UNL     1       1.948  -0.288   1.628  0.00  0.00    +0.052 A 
ATOM     27  C   UNL     1       2.785   0.499   0.846  0.00  0.00    +0.025 A 
ATOM     28  C   UNL     1       4.087   0.728   1.244  0.00  0.00    +0.002 A 
ATOM     29  C   UNL     1       4.559   0.176   2.421  0.00  0.00    +0.000 A 
ATOM     30  C   UNL     1       3.729  -0.608   3.203  0.00  0.00    +0.002 A 
ATOM     31  C   UNL     1       2.424  -0.836   2.813  0.00  0.00    +0.025 A 
ENDBRANCH  24  26
ENDBRANCH  17  21
ENDBRANCH   1  18
TORSDOF 5
