REMARK  Name = ZINC63794472
REMARK  7 active torsions:
REMARK  status: ('A' for Active; 'I' for Inactive)
REMARK    1  A    between atoms: C_1  and  C_2
REMARK    2  A    between atoms: N_4  and  C_5
REMARK    3  A    between atoms: C_8  and  C_11
REMARK    4  A    between atoms: N_13  and  C_14
REMARK    5  A    between atoms: C_14  and  C_15
REMARK    6  A    between atoms: C_15  and  C_17
REMARK    7  A    between atoms: C_15  and  C_23
REMARK                            x       y       z     vdW  Elec       q    Type
REMARK                         _______ _______ _______ _____ _____    ______ ____
ROOT
ATOM      1  C   UNL     1       0.740  -8.803  -4.149  0.00  0.00    +0.064 C 
ENDROOT
BRANCH   1   2
ATOM      2  C   UNL     1       0.981 -10.289  -4.214  0.00  0.00    -0.033 C 
ATOM      3  C   UNL     1       2.041 -10.917  -4.770  0.00  0.00    -0.000 A 
ATOM      4  C   UNL     1       3.241 -10.425  -5.456  0.00  0.00    +0.010 A 
ATOM      5  C   UNL     1       4.147 -11.317  -5.916  0.00  0.00    +0.001 A 
ATOM      6  C   UNL     1       3.969 -12.698  -5.754  0.00  0.00    +0.002 A 
ATOM      7  C   UNL     1       2.892 -13.227  -5.135  0.00  0.00    +0.026 A 
ATOM      8  C   UNL     1       1.876 -12.380  -4.612  0.00  0.00    +0.043 A 
ATOM      9  N   UNL     1       0.758 -12.645  -3.982  0.00  0.00    -0.380 N 
ATOM     10  C   UNL     1       0.088 -11.379  -3.664  0.00  0.00    +0.145 C 
ATOM     11  H   UNL     1       0.429 -13.531  -3.760  0.00  0.00    +0.160 HD
ENDBRANCH   1   2
BRANCH   1  12
ATOM     12  C   UNL     1      -0.550  -8.471  -4.855  0.00  0.00    -0.039 A 
ATOM     13  C   UNL     1      -1.740  -9.017  -4.412  0.00  0.00    +0.004 A 
ATOM     14  C   UNL     1      -2.923  -8.713  -5.060  0.00  0.00    +0.000 A 
ATOM     15  C   UNL     1      -2.915  -7.863  -6.150  0.00  0.00    +0.000 A 
ATOM     16  C   UNL     1      -1.725  -7.316  -6.592  0.00  0.00    +0.000 A 
ATOM     17  C   UNL     1      -0.543  -7.617  -5.942  0.00  0.00    +0.004 A 
ENDBRANCH   1  12
BRANCH   1  18
ATOM     18  C   UNL     1       0.648  -8.364  -2.686  0.00  0.00    +0.117 C 
BRANCH  18  21
ATOM     19  C   UNL     1       0.438  -6.290  -1.424  0.00  0.00    +0.244 C 
ATOM     20  O   UNL     1       0.448  -6.946  -0.401  0.00  0.00    -0.270 OA
ATOM     21  N   UNL     1       0.533  -6.905  -2.620  0.00  0.00    -0.310 N 
ATOM     22  H   UNL     1       0.526  -6.382  -3.436  0.00  0.00    +0.149 HD
BRANCH  19  26
ATOM     23  C   UNL     1       0.108  -2.060  -1.232  0.00  0.00    +0.033 A 
ATOM     24  C   UNL     1       0.118  -2.810  -0.060  0.00  0.00    +0.024 A 
ATOM     25  C   UNL     1       0.225  -4.181  -0.118  0.00  0.00    +0.015 A 
ATOM     26  C   UNL     1       0.323  -4.820  -1.357  0.00  0.00    +0.037 A 
ATOM     27  C   UNL     1       0.313  -4.064  -2.533  0.00  0.00    +0.015 A 
ATOM     28  C   UNL     1       0.201  -2.694  -2.467  0.00  0.00    +0.024 A 
BRANCH  23  32
ATOM     29  C   UNL     1       0.558   1.512  -0.148  0.00  0.00    +0.109 C 
ATOM     30  C   UNL     1       0.586   0.005  -0.161  0.00  0.00    +0.214 C 
ATOM     31  O   UNL     1       1.136  -0.599   0.735  0.00  0.00    -0.276 OA
ATOM     32  N   UNL     1       0.000  -0.672  -1.169  0.00  0.00    -0.286 N 
ATOM     33  H   UNL     1      -0.497  -0.193  -1.850  0.00  0.00    +0.155 HD
ENDBRANCH  23  32
ENDBRANCH  19  26
ENDBRANCH  18  21
ENDBRANCH   1  18
TORSDOF 6
