REMARK  Name = ZINC10153965
REMARK  11 active torsions:
REMARK  status: ('A' for Active; 'I' for Inactive)
REMARK    1  A    between atoms: C_1  and  C_2
REMARK    2  A    between atoms: C_5  and  O_9
REMARK    3  A    between atoms: C_7  and  C_8
REMARK    4  A    between atoms: O_9  and  C_10
REMARK    5  A    between atoms: C_10  and  C_12
REMARK    6  A    between atoms: C_10  and  C_13
REMARK    7  A    between atoms: N_15  and  N_16
REMARK    8  A    between atoms: N_16  and  C_17
REMARK    9  A    between atoms: C_17  and  N_19
REMARK   10  A    between atoms: C_20  and  C_22
REMARK   11  A    between atoms: C_25  and  C_29
REMARK                            x       y       z     vdW  Elec       q    Type
REMARK                         _______ _______ _______ _____ _____    ______ ____
ROOT
ATOM      1  N   UNL     1      -6.058   3.137   0.602  0.00  0.00    -0.245 N 
ATOM      2  H   UNL     1      -6.905   3.586   0.747  0.00  0.00    +0.172 HD
ENDROOT
BRANCH   1   5
ATOM      3  C   UNL     1      -7.179   1.055   0.325  0.00  0.00    +0.270 C 
ATOM      4  O   UNL     1      -8.238   1.617   0.507  0.00  0.00    -0.270 OA
ATOM      5  N   UNL     1      -6.029   1.758   0.358  0.00  0.00    -0.232 N 
ATOM      6  H   UNL     1      -5.182   1.308   0.212  0.00  0.00    +0.173 HD
BRANCH   3   7
ATOM      7  C   UNL     1      -7.149  -0.428   0.063  0.00  0.00    +0.257 C 
ATOM      8  C   UNL     1      -6.429  -1.135   1.213  0.00  0.00    +0.062 C 
BRANCH   7   9
ATOM      9  O   UNL     1      -8.486  -0.922  -0.038  0.00  0.00    -0.480 OA
BRANCH   9  14
ATOM     10  C   UNL     1      -9.252  -5.644  -3.010  0.00  0.00    +0.044 C 
ATOM     11  C   UNL     1      -9.047  -4.381  -2.215  0.00  0.00    -0.047 A 
ATOM     12  C   UNL     1     -10.139  -3.695  -1.716  0.00  0.00    +0.007 A 
ATOM     13  C   UNL     1      -9.954  -2.536  -0.987  0.00  0.00    +0.046 A 
ATOM     14  C   UNL     1      -8.671  -2.062  -0.755  0.00  0.00    +0.122 A 
ATOM     15  C   UNL     1      -7.577  -2.749  -1.260  0.00  0.00    +0.049 A 
ATOM     16  C   UNL     1      -7.768  -3.910  -1.985  0.00  0.00    -0.044 A 
ATOM     17  C   UNL     1      -6.580  -4.661  -2.530  0.00  0.00    +0.044 C 
ENDBRANCH   9  14
ENDBRANCH   7   9
ENDBRANCH   3   7
ENDBRANCH   1   5
BRANCH   1  18
ATOM     18  C   UNL     1      -4.908   3.840   0.634  0.00  0.00    +0.153 C 
ATOM     19  S   UNL     1      -4.943   5.525   0.932  0.00  0.00    -0.017 S 
BRANCH  18  20
ATOM     20  N   UNL     1      -3.731   3.215   0.431  0.00  0.00    -0.263 N 
ATOM     21  C   UNL     1      -2.581   3.917   0.464  0.00  0.00    +0.250 C 
ATOM     22  O   UNL     1      -2.606   5.114   0.675  0.00  0.00    -0.270 OA
ATOM     23  H   UNL     1      -3.711   2.260   0.263  0.00  0.00    +0.157 HD
BRANCH  21  24
ATOM     24  C   UNL     1      -1.290   3.233   0.242  0.00  0.00    +0.038 A 
ATOM     25  C   UNL     1      -1.259   1.859  -0.008  0.00  0.00    +0.013 A 
ATOM     26  C   UNL     1      -0.051   1.225  -0.209  0.00  0.00    +0.005 A 
ATOM     27  C   UNL     1       1.128   1.949  -0.175  0.00  0.00    -0.037 A 
ATOM     28  C   UNL     1       1.104   3.312   0.066  0.00  0.00    +0.017 A 
ATOM     29  C   UNL     1      -0.098   3.957   0.275  0.00  0.00    +0.027 A 
ATOM     30  I   UNL     1       2.896   4.396   0.114  0.00  0.00    -0.044 I 
ATOM     31  C   UNL     1       2.444   1.250  -0.402  0.00  0.00    +0.045 C 
ENDBRANCH  21  24
ENDBRANCH  18  20
ENDBRANCH   1  18
TORSDOF 7
