REMARK  Name = ZINC18116108
REMARK  9 active torsions:
REMARK  status: ('A' for Active; 'I' for Inactive)
REMARK    1  A    between atoms: C_1  and  C_2
REMARK    2  A    between atoms: C_9  and  N_32
REMARK    3  A    between atoms: C_10  and  C_30
REMARK    4  A    between atoms: C_11  and  C_13
REMARK    5  A    between atoms: C_17  and  O_28
REMARK    6  A    between atoms: C_18  and  O_19
REMARK    7  A    between atoms: O_19  and  C_20
REMARK    8  A    between atoms: C_20  and  C_21
REMARK    9  A    between atoms: O_28  and  C_29
REMARK                            x       y       z     vdW  Elec       q    Type
REMARK                         _______ _______ _______ _____ _____    ______ ____
ROOT
ATOM      1  C   UNL     1      -1.368   0.111  -2.922  0.00  0.00    +0.011 A 
ATOM      2  C   UNL     1      -2.483  -0.692  -2.772  0.00  0.00    +0.008 A 
ATOM      3  C   UNL     1      -3.734  -0.214  -3.117  0.00  0.00    +0.004 A 
ATOM      4  C   UNL     1      -3.874   1.069  -3.614  0.00  0.00    +0.049 A 
ATOM      5  C   UNL     1      -2.761   1.878  -3.765  0.00  0.00    +0.162 A 
ATOM      6  C   UNL     1      -1.502   1.399  -3.412  0.00  0.00    +0.166 A 
ENDROOT
BRANCH   1  17
ATOM      7  C   UNL     1      -0.018   1.503   0.010  0.00  0.00    +0.065 C 
ATOM      8  C   UNL     1       0.002  -0.004   0.002  0.00  0.00    +0.041 A 
ATOM      9  C   UNL     1       0.008  -0.790  -1.085  0.00  0.00    +0.049 A 
ATOM     10  C   UNL     1       0.030  -2.135  -0.654  0.00  0.00    +0.245 A 
ATOM     11  N   UNL     1       0.036  -2.141   0.647  0.00  0.00    -0.135 NA
ATOM     12  N   UNL     1       0.024  -0.809   1.090  0.00  0.00    -0.278 N 
ATOM     13  H   UNL     1       0.028  -0.516   2.015  0.00  0.00    +0.189 HD
ATOM     14  O   UNL     1       0.045  -3.173  -1.533  0.00  0.00    -0.421 OA
ATOM     15  C   UNL     1       0.309  -2.890  -2.824  0.00  0.00    +0.201 C 
ATOM     16  C   UNL     1       0.305  -1.648  -3.351  0.00  0.00    +0.098 C 
ATOM     17  C   UNL     1      -0.006  -0.413  -2.545  0.00  0.00    +0.105 C 
BRANCH  15  18
ATOM     18  N   UNL     1       0.604  -3.938  -3.660  0.00  0.00    -0.328 N 
ATOM     19  H   UNL     1       0.617  -4.845  -3.315  0.00  0.00    +0.145 HD
ATOM     20  H   UNL     1       0.800  -3.772  -4.595  0.00  0.00    +0.145 HD
ENDBRANCH  15  18
BRANCH  16  21
ATOM     21  C   UNL     1       0.611  -1.496  -4.742  0.00  0.00    +0.101 C 
ATOM     22  N   UNL     1       0.853  -1.376  -5.846  0.00  0.00    -0.191 NA
ENDBRANCH  16  21
ENDBRANCH   1  17
BRANCH   5  23
ATOM     23  O   UNL     1      -2.897   3.140  -4.253  0.00  0.00    -0.491 OA
ATOM     24  C   UNL     1      -4.220   3.567  -4.589  0.00  0.00    +0.277 C 
ENDBRANCH   5  23
BRANCH   6  25
ATOM     25  O   UNL     1      -0.407   2.193  -3.554  0.00  0.00    -0.483 OA
BRANCH  25  26
ATOM     26  C   UNL     1       0.277   2.136  -4.808  0.00  0.00    +0.264 C 
BRANCH  26  27
ATOM     27  C   UNL     1       1.455   3.075  -4.780  0.00  0.00    -0.010 A 
ATOM     28  C   UNL     1       1.301   4.389  -5.180  0.00  0.00    +0.008 A 
ATOM     29  C   UNL     1       2.382   5.251  -5.154  0.00  0.00    +0.015 A 
ATOM     30  C   UNL     1       3.618   4.798  -4.728  0.00  0.00    +0.018 A 
ATOM     31  C   UNL     1       3.771   3.482  -4.329  0.00  0.00    +0.015 A 
ATOM     32  C   UNL     1       2.689   2.623  -4.350  0.00  0.00    +0.008 A 
ATOM     33 BR   UNL     1       5.096   5.975  -4.694  0.00  0.00    -0.050 Br
ENDBRANCH  26  27
ENDBRANCH  25  26
ENDBRANCH   6  25
TORSDOF 7
