REMARK  Name = ZINC64669553
REMARK  7 active torsions:
REMARK  status: ('A' for Active; 'I' for Inactive)
REMARK    1  A    between atoms: C_1  and  C_2
REMARK    2  A    between atoms: C_5  and  C_7
REMARK    3  A    between atoms: C_7  and  N_8
REMARK    4  A    between atoms: C_9  and  C_11
REMARK    5  A    between atoms: C_14  and  C_16
REMARK    6  A    between atoms: C_17  and  C_27
REMARK    7  A    between atoms: N_20  and  C_21
REMARK                            x       y       z     vdW  Elec       q    Type
REMARK                         _______ _______ _______ _____ _____    ______ ____
ROOT
ATOM      1  C   UNL     1       2.824  -4.661  -6.633  0.00  0.00    +0.112 A 
ATOM      2  C   UNL     1       3.734  -4.552  -7.675  0.00  0.00    +0.100 A 
ATOM      3  N   UNL     1       3.045  -4.192  -8.772  0.00  0.00    -0.235 NA
ATOM      4  C   UNL     1       1.780  -4.074  -8.476  0.00  0.00    +0.200 A 
ATOM      5  N   UNL     1       1.590  -4.359  -7.170  0.00  0.00    -0.324 N 
ENDROOT
BRANCH   2   6
ATOM      6  C   UNL     1       5.194  -4.787  -7.594  0.00  0.00    +0.003 A 
ATOM      7  C   UNL     1       5.894  -4.448  -6.435  0.00  0.00    +0.013 A 
ATOM      8  C   UNL     1       7.253  -4.669  -6.365  0.00  0.00    +0.039 A 
ATOM      9  C   UNL     1       7.924  -5.226  -7.442  0.00  0.00    +0.123 A 
ATOM     10  C   UNL     1       7.234  -5.564  -8.595  0.00  0.00    +0.039 A 
ATOM     11  C   UNL     1       5.873  -5.353  -8.673  0.00  0.00    +0.013 A 
ATOM     12  F   UNL     1       9.256  -5.441  -7.368  0.00  0.00    -0.205 F 
ENDBRANCH   2   6
BRANCH   5  13
ATOM     13  C   UNL     1       0.311  -4.345  -6.456  0.00  0.00    +0.089 C 
ATOM     14  C   UNL     1      -0.300  -2.944  -6.531  0.00  0.00    +0.025 C 
ATOM     15  C   UNL     1      -1.636  -2.930  -5.785  0.00  0.00    +0.002 C 
ATOM     16  C   UNL     1      -2.590  -3.938  -6.428  0.00  0.00    +0.000 C 
ATOM     17  C   UNL     1      -1.979  -5.339  -6.354  0.00  0.00    +0.002 C 
ATOM     18  C   UNL     1      -0.643  -5.353  -7.100  0.00  0.00    +0.025 C 
ENDBRANCH   5  13
BRANCH   1  22
ATOM     19  C   UNL     1       3.108  -5.027  -3.044  0.00  0.00    +0.190 A 
ATOM     20  C   UNL     1       3.929  -6.062  -3.441  0.00  0.00    +0.055 A 
ATOM     21  C   UNL     1       3.933  -6.065  -4.837  0.00  0.00    +0.052 A 
ATOM     22  C   UNL     1       3.114  -5.030  -5.244  0.00  0.00    +0.154 A 
ATOM     23  O   UNL     1       2.622  -4.421  -4.149  0.00  0.00    -0.449 OA
BRANCH  19  25
ATOM     24  N   UNL     1       1.983  -3.620  -1.407  0.00  0.00    -0.302 N 
ATOM     25  C   UNL     1       2.810  -4.653  -1.662  0.00  0.00    +0.280 C 
ATOM     26  O   UNL     1       3.308  -5.275  -0.742  0.00  0.00    -0.267 OA
ATOM     27  H   UNL     1       1.586  -3.124  -2.140  0.00  0.00    +0.150 HD
BRANCH  24  28
ATOM     28  C   UNL     1       1.684  -3.245  -0.023  0.00  0.00    +0.179 C 
BRANCH  28  33
ATOM     29  C   UNL     1      -0.018   1.503   0.010  0.00  0.00    +0.086 C 
ATOM     30  C   UNL     1       0.002  -0.004   0.002  0.00  0.00    +0.102 A 
ATOM     31  C   UNL     1      -1.078  -0.805   0.003  0.00  0.00    +0.045 A 
ATOM     32  C   UNL     1      -0.601  -2.136  -0.007  0.00  0.00    +0.046 A 
ATOM     33  C   UNL     1       0.742  -2.069  -0.013  0.00  0.00    +0.122 A 
ATOM     34  O   UNL     1       1.102  -0.775  -0.013  0.00  0.00    -0.463 OA
ENDBRANCH  28  33
ENDBRANCH  24  28
ENDBRANCH  19  25
ENDBRANCH   1  22
TORSDOF 6
