REMARK  Name = ZINC13636294
REMARK  5 active torsions:
REMARK  status: ('A' for Active; 'I' for Inactive)
REMARK    1  A    between atoms: C_1  and  C_2
REMARK    2  A    between atoms: C_9  and  C_11
REMARK    3  A    between atoms: C_11  and  N_51
REMARK    4  A    between atoms: C_14  and  C_17
REMARK    5  A    between atoms: C_21  and  C_26
REMARK                            x       y       z     vdW  Elec       q    Type
REMARK                         _______ _______ _______ _____ _____    ______ ____
ROOT
ATOM      1  C   UNL     1       0.147   0.024  -1.279  0.00  0.00    +0.066 C 
ATOM      2  C   UNL     1       0.086   1.508  -1.022  0.00  0.00    +0.054 A 
ATOM      3  C   UNL     1      -1.139   2.187  -1.041  0.00  0.00    +0.060 A 
ATOM      4  C   UNL     1      -1.155   3.565  -0.796  0.00  0.00    +0.057 A 
ATOM      5  N   UNL     1      -0.007   4.177  -0.560  0.00  0.00    -0.218 NA
ATOM      6  C   UNL     1       1.134   3.502  -0.553  0.00  0.00    +0.222 A 
ATOM      7  N   UNL     1       1.187   2.196  -0.779  0.00  0.00    -0.219 NA
ATOM      8  N   UNL     1       2.312   4.184  -0.301  0.00  0.00    -0.256 N 
ATOM      9  C   UNL     1       3.486   3.521  -0.288  0.00  0.00    +0.203 C 
ATOM     10  O   UNL     1       3.509   2.327  -0.498  0.00  0.00    -0.277 OA
ATOM     11  C   UNL     1      -2.435   4.351  -0.806  0.00  0.00    +0.060 C 
ATOM     12  C   UNL     1      -3.638   3.449  -0.544  0.00  0.00    -0.001 C 
ATOM     13  C   UNL     1      -3.638   2.289  -1.549  0.00  0.00    +0.083 C 
ATOM     14  C   UNL     1      -2.394   1.463  -1.290  0.00  0.00    +0.167 C 
ATOM     15  O   UNL     1      -2.432   0.251  -1.293  0.00  0.00    -0.292 OA
ATOM     16  C   UNL     1      -4.927   4.259  -0.700  0.00  0.00    +0.008 C 
ATOM     17  H   UNL     1       2.293   5.139  -0.133  0.00  0.00    +0.158 HD
ENDROOT
BRANCH   9  18
ATOM     18  C   UNL     1       4.768   4.264  -0.013  0.00  0.00    +0.019 C 
BRANCH  18  24
ATOM     19  C   UNL     1       7.171   3.997   0.110  0.00  0.00    -0.077 C 
ATOM     20  C   UNL     1       8.302   2.967   0.076  0.00  0.00    -0.006 C 
ATOM     21  C   UNL     1       8.180   2.042   1.290  0.00  0.00    +0.071 C 
ATOM     22  C   UNL     1       6.804   1.371   1.276  0.00  0.00    -0.006 C 
ATOM     23  C   UNL     1       5.717   2.448   1.276  0.00  0.00    -0.077 C 
ATOM     24  N   UNL     1       5.874   3.288   0.069  0.00  0.00    +0.385 N 
ATOM     25  H   UNL     1       5.850   2.686  -0.762  0.00  0.00    -0.081 HD
BRANCH  21  26
ATOM     26  C   UNL     1       9.256   0.988   1.232  0.00  0.00    +0.213 C 
ATOM     27  O   UNL     1       8.953  -0.185   1.183  0.00  0.00    -0.276 OA
ATOM     28  N   UNL     1      10.554   1.349   1.233  0.00  0.00    -0.329 N 
ATOM     29  H   UNL     1      10.797   2.288   1.272  0.00  0.00    +0.145 HD
ATOM     30  H   UNL     1      11.246   0.671   1.196  0.00  0.00    +0.145 HD
ENDBRANCH  21  26
ENDBRANCH  18  24
ENDBRANCH   9  18
TORSDOF 3
