REMARK  Name = ZINC36821757
REMARK  8 active torsions:
REMARK  status: ('A' for Active; 'I' for Inactive)
REMARK    1  A    between atoms: C_1  and  C_2
REMARK    2  A    between atoms: C_5  and  C_8
REMARK    3  A    between atoms: C_14  and  C_16
REMARK    4  A    between atoms: C_16  and  S_17
REMARK    5  A    between atoms: S_17  and  C_18
REMARK    6  A    between atoms: C_21  and  C_29
REMARK    7  A    between atoms: N_22  and  C_23
REMARK    8  A    between atoms: C_29  and  N_30
REMARK                            x       y       z     vdW  Elec       q    Type
REMARK                         _______ _______ _______ _____ _____    ______ ____
ROOT
ATOM      1  S   UNL     1      -0.099 -10.826  -3.036  0.00  0.00    -0.076 S 
ENDROOT
BRANCH   1   2
ATOM      2  C   UNL     1       0.054 -11.880  -4.439  0.00  0.00    +0.197 A 
ATOM      3  N   UNL     1       0.135 -11.503  -5.694  0.00  0.00    -0.122 NA
ATOM      4  N   UNL     1       0.237 -12.533  -6.456  0.00  0.00    -0.135 NA
ATOM      5  C   UNL     1       0.229 -13.622  -5.740  0.00  0.00    +0.122 A 
ATOM      6  N   UNL     1       0.118 -13.246  -4.428  0.00  0.00    -0.276 N 
BRANCH   6   7
ATOM      7  C   UNL     1       0.075 -14.087  -3.306  0.00  0.00    +0.050 A 
ATOM      8  C   UNL     1       1.195 -14.825  -2.947  0.00  0.00    +0.026 A 
ATOM      9  C   UNL     1       1.150 -15.652  -1.842  0.00  0.00    +0.002 A 
ATOM     10  C   UNL     1      -0.009 -15.746  -1.093  0.00  0.00    +0.000 A 
ATOM     11  C   UNL     1      -1.126 -15.012  -1.448  0.00  0.00    +0.002 A 
ATOM     12  C   UNL     1      -1.085 -14.179  -2.549  0.00  0.00    +0.026 A 
ENDBRANCH   6   7
BRANCH   5  13
ATOM     13  C   UNL     1       0.329 -15.033  -6.260  0.00  0.00    -0.001 C 
BRANCH  13  14
ATOM     14  N   UNL     1      -1.019 -15.595  -6.416  0.00  0.00    +0.384 N 
ATOM     15  C   UNL     1      -1.731 -14.917  -7.529  0.00  0.00    -0.078 C 
ATOM     16  C   UNL     1      -2.826 -15.940  -7.925  0.00  0.00    -0.020 C 
ATOM     17  C   UNL     1      -2.104 -17.297  -7.764  0.00  0.00    -0.020 C 
ATOM     18  C   UNL     1      -0.937 -17.021  -6.799  0.00  0.00    -0.078 C 
ATOM     19  H   UNL     1      -1.539 -15.495  -5.557  0.00  0.00    -0.081 HD
ENDBRANCH  13  14
ENDBRANCH   5  13
ENDBRANCH   1   2
BRANCH   1  20
ATOM     20  C   UNL     1      -0.126  -9.155  -3.743  0.00  0.00    +0.173 C 
BRANCH  20  27
ATOM     21  C   UNL     1      -0.589  -3.832  -0.886  0.00  0.00    +0.080 A 
ATOM     22  C   UNL     1      -0.650  -4.438   0.338  0.00  0.00    +0.076 A 
ATOM     23  S   UNL     1      -0.533  -6.157  -0.137  0.00  0.00    -0.060 S 
ATOM     24  C   UNL     1      -0.416  -5.894  -1.901  0.00  0.00    +0.165 A 
ATOM     25  N   UNL     1      -0.479  -4.578  -1.976  0.00  0.00    -0.225 NA
ATOM     26  N   UNL     1      -0.297  -6.827  -2.924  0.00  0.00    -0.264 N 
ATOM     27  C   UNL     1      -0.256  -8.143  -2.634  0.00  0.00    +0.229 C 
ATOM     28  O   UNL     1      -0.324  -8.512  -1.480  0.00  0.00    -0.275 OA
ATOM     29  H   UNL     1      -0.243  -6.532  -3.846  0.00  0.00    +0.157 HD
BRANCH  21  34
ATOM     30  C   UNL     1      -0.833   1.906  -1.305  0.00  0.00    +0.044 C 
ATOM     31  C   UNL     1      -0.769   0.405  -1.196  0.00  0.00    -0.050 A 
ATOM     32  C   UNL     1      -0.653  -0.365  -2.339  0.00  0.00    +0.004 A 
ATOM     33  C   UNL     1      -0.594  -1.741  -2.245  0.00  0.00    +0.010 A 
ATOM     34  C   UNL     1      -0.651  -2.354  -0.994  0.00  0.00    +0.001 A 
ATOM     35  C   UNL     1      -0.768  -1.573   0.154  0.00  0.00    +0.010 A 
ATOM     36  C   UNL     1      -0.821  -0.198   0.048  0.00  0.00    +0.004 A 
ENDBRANCH  21  34
ENDBRANCH  20  27
ENDBRANCH   1  20
TORSDOF 7
