REMARK  Name = ZINC39637236
REMARK  6 active torsions:
REMARK  status: ('A' for Active; 'I' for Inactive)
REMARK    1  A    between atoms: C_1  and  C_2
REMARK    2  A    between atoms: C_7  and  N_12
REMARK    3  A    between atoms: C_9  and  C_11
REMARK    4  A    between atoms: C_13  and  C_15
REMARK    5  A    between atoms: C_26  and  C_28
REMARK    6  A    between atoms: C_30  and  C_35
REMARK                            x       y       z     vdW  Elec       q    Type
REMARK                         _______ _______ _______ _____ _____    ______ ____
ROOT
ATOM      1  C   UNL     1       2.090  -4.479   3.551  0.00  0.00    +0.100 C 
ATOM      2  C   UNL     1       3.632  -4.571   3.543  0.00  0.00    +0.121 C 
ATOM      3  N   UNL     1       3.940  -5.775   4.351  0.00  0.00    -0.296 N 
ATOM      4  C   UNL     1       2.895  -6.754   3.966  0.00  0.00    +0.115 C 
ATOM      5  C   UNL     1       1.610  -5.914   3.828  0.00  0.00    -0.004 C 
ATOM      6  C   UNL     1       0.770  -6.425   2.661  0.00  0.00    -0.010 C 
ATOM      7  C   UNL     1       0.256  -7.830   2.985  0.00  0.00    -0.082 C 
ATOM      8  N   UNL     1      -0.548  -7.789   4.212  0.00  0.00    +0.379 N 
ATOM      9  C   UNL     1       0.291  -7.386   5.347  0.00  0.00    -0.082 C 
ATOM     10  C   UNL     1       0.806  -5.962   5.123  0.00  0.00    -0.010 C 
ATOM     11  C   UNL     1       4.942  -5.941   5.237  0.00  0.00    +0.247 C 
ATOM     12  O   UNL     1       5.657  -5.003   5.529  0.00  0.00    -0.270 OA
ATOM     13  H   UNL     1      -1.299  -7.125   4.098  0.00  0.00    -0.086 HD
ATOM     14  H   UNL     1      -0.936  -8.704   4.390  0.00  0.00    -0.086 HD
ENDROOT
BRANCH  11  15
ATOM     15  C   UNL     1       5.172  -7.266   5.853  0.00  0.00    +0.040 A 
ATOM     16  C   UNL     1       5.864  -7.366   7.060  0.00  0.00    +0.025 A 
ATOM     17  C   UNL     1       6.076  -8.604   7.631  0.00  0.00    +0.058 A 
ATOM     18  C   UNL     1       5.603  -9.746   7.010  0.00  0.00    +0.050 A 
ATOM     19  C   UNL     1       4.915  -9.655   5.811  0.00  0.00    +0.125 A 
ATOM     20  C   UNL     1       4.692  -8.420   5.232  0.00  0.00    +0.051 A 
ATOM     21  F   UNL     1       4.457 -10.774   5.209  0.00  0.00    -0.205 F 
BRANCH  17  22
ATOM     22  C   UNL     1       6.824  -8.713   8.934  0.00  0.00    +0.418 C 
ATOM     23  F   UNL     1       5.920  -8.636   9.999  0.00  0.00    -0.166 F 
ATOM     24  F   UNL     1       7.499  -9.937   8.984  0.00  0.00    -0.166 F 
ATOM     25  F   UNL     1       7.748  -7.667   9.030  0.00  0.00    -0.166 F 
ENDBRANCH  17  22
ENDBRANCH  11  15
BRANCH   1  27
ATOM     26  N   UNL     1       0.433  -3.312   2.132  0.00  0.00    -0.312 N 
ATOM     27  C   UNL     1       1.586  -4.007   2.212  0.00  0.00    +0.218 C 
ATOM     28  O   UNL     1       2.217  -4.252   1.205  0.00  0.00    -0.275 OA
ATOM     29  H   UNL     1      -0.071  -3.116   2.937  0.00  0.00    +0.149 HD
BRANCH  26  35
ATOM     30  C   UNL     1      -3.605  -2.011  -0.407  0.00  0.00    +0.008 C 
ATOM     31  C   UNL     1      -2.087  -2.192  -0.468  0.00  0.00    -0.009 C 
ATOM     32  C   UNL     1      -1.428  -0.856  -0.819  0.00  0.00    +0.003 C 
ATOM     33  C   UNL     1       0.090  -1.037  -0.880  0.00  0.00    +0.002 C 
ATOM     34  C   UNL     1       0.602  -1.517   0.480  0.00  0.00    +0.022 C 
ATOM     35  C   UNL     1      -0.057  -2.853   0.830  0.00  0.00    +0.076 C 
ATOM     36  C   UNL     1      -1.575  -2.672   0.892  0.00  0.00    +0.009 C 
ATOM     37  C   UNL     1      -2.233  -4.008   1.242  0.00  0.00    +0.009 C 
ENDBRANCH  26  35
ENDBRANCH   1  27
TORSDOF 4
