REMARK  Name = ZINC35671239
REMARK  6 active torsions:
REMARK  status: ('A' for Active; 'I' for Inactive)
REMARK    1  A    between atoms: C_1  and  C_2
REMARK    2  A    between atoms: C_5  and  C_8
REMARK    3  A    between atoms: N_10  and  C_11
REMARK    4  A    between atoms: C_16  and  N_17
REMARK    5  A    between atoms: N_17  and  C_18
REMARK    6  A    between atoms: C_21  and  C_24
REMARK                            x       y       z     vdW  Elec       q    Type
REMARK                         _______ _______ _______ _____ _____    ______ ____
ROOT
ATOM      1  C   UNL     1      -0.154  -5.938   1.383  0.00  0.00    +0.203 C 
ATOM      2  C   UNL     1       0.361  -6.365   2.743  0.00  0.00    +0.114 C 
ATOM      3  N   UNL     1      -0.482  -7.252   3.182  0.00  0.00    -0.265 N 
ATOM      4  N   UNL     1      -1.519  -7.487   2.284  0.00  0.00    -0.158 NA
ATOM      5  C   UNL     1      -1.411  -6.767   1.203  0.00  0.00    +0.167 C 
ATOM      6  N   UNL     1       1.490  -5.907   3.382  0.00  0.00    -0.345 N 
ATOM      7  H   UNL     1       2.050  -5.239   2.958  0.00  0.00    +0.143 HD
ATOM      8  H   UNL     1       1.726  -6.253   4.257  0.00  0.00    +0.143 HD
ATOM      9  H   UNL     1      -0.398  -7.700   4.038  0.00  0.00    +0.190 HD
ENDROOT
BRANCH   1  12
ATOM     10  C   UNL     1      -0.501  -3.829   0.213  0.00  0.00    +0.245 C 
ATOM     11  O   UNL     1      -0.260  -4.402  -0.831  0.00  0.00    -0.270 OA
ATOM     12  N   UNL     1      -0.474  -4.508   1.377  0.00  0.00    -0.295 N 
ATOM     13  H   UNL     1      -0.665  -4.051   2.210  0.00  0.00    +0.150 HD
BRANCH  10  18
ATOM     14  C   UNL     1      -1.755   1.788   0.191  0.00  0.00    +0.044 C 
ATOM     15  C   UNL     1      -1.427   0.317   0.197  0.00  0.00    -0.050 A 
ATOM     16  C   UNL     1      -1.153  -0.333  -0.994  0.00  0.00    +0.004 A 
ATOM     17  C   UNL     1      -0.851  -1.679  -0.996  0.00  0.00    +0.013 A 
ATOM     18  C   UNL     1      -0.823  -2.386   0.208  0.00  0.00    +0.037 A 
ATOM     19  C   UNL     1      -1.099  -1.725   1.405  0.00  0.00    +0.013 A 
ATOM     20  C   UNL     1      -1.394  -0.377   1.393  0.00  0.00    +0.004 A 
ENDBRANCH  10  18
ENDBRANCH   1  12
BRANCH   5  21
ATOM     21  N   UNL     1      -2.262  -6.758   0.120  0.00  0.00    -0.196 NA
BRANCH  21  22
ATOM     22  C   UNL     1      -3.489  -7.423   0.190  0.00  0.00    +0.055 A 
ATOM     23  C   UNL     1      -4.087  -7.652   1.423  0.00  0.00    +0.025 A 
ATOM     24  C   UNL     1      -5.299  -8.311   1.489  0.00  0.00    +0.005 A 
ATOM     25  C   UNL     1      -5.918  -8.742   0.329  0.00  0.00    -0.050 A 
ATOM     26  C   UNL     1      -5.325  -8.515  -0.900  0.00  0.00    +0.005 A 
ATOM     27  C   UNL     1      -4.115  -7.853  -0.973  0.00  0.00    +0.025 A 
ATOM     28  C   UNL     1      -7.240  -9.460   0.405  0.00  0.00    +0.044 C 
ENDBRANCH  21  22
ENDBRANCH   5  21
TORSDOF 4
