REMARK  Name = ZINC45230238
REMARK  15 active torsions:
REMARK  status: ('A' for Active; 'I' for Inactive)
REMARK    1  A    between atoms: C_1  and  C_2
REMARK    2  A    between atoms: C_2  and  O_3
REMARK    3  A    between atoms: O_3  and  C_4
REMARK    4  A    between atoms: C_9  and  O_10
REMARK    5  A    between atoms: O_10  and  C_11
REMARK    6  A    between atoms: C_11  and  C_12
REMARK    7  A    between atoms: C_12  and  C_13
REMARK    8  A    between atoms: C_13  and  C_14
REMARK    9  A    between atoms: C_14  and  O_16
REMARK   10  A    between atoms: O_16  and  C_17
REMARK   11  A    between atoms: C_17  and  C_18
REMARK   12  A    between atoms: C_18  and  C_20
REMARK   13  A    between atoms: C_22  and  C_34
REMARK   14  A    between atoms: N_23  and  C_26
REMARK   15  A    between atoms: C_24  and  C_25
REMARK                            x       y       z     vdW  Elec       q    Type
REMARK                         _______ _______ _______ _____ _____    ______ ____
ROOT
ATOM      1  C   UNL     1     -10.969  -0.131   0.268  0.00  0.00    +0.311 C 
ENDROOT
BRANCH   1   2
ATOM      2  C   UNL     1     -12.357  -0.703   0.409  0.00  0.00    +0.202 C 
ATOM      3  O   UNL     1     -12.505  -1.884   0.642  0.00  0.00    -0.288 OA
BRANCH   2   4
ATOM      4  C   UNL     1     -13.525   0.168   0.264  0.00  0.00    +0.042 A 
ATOM      5  C   UNL     1     -13.526   1.609  -0.024  0.00  0.00    +0.034 A 
ATOM      6  C   UNL     1     -14.815   1.985  -0.067  0.00  0.00    +0.017 A 
ATOM      7  N   UNL     1     -15.607   0.899   0.169  0.00  0.00    -0.343 N 
ATOM      8  C   UNL     1     -14.854  -0.199   0.363  0.00  0.00    +0.027 A 
ATOM      9  C   UNL     1     -15.370  -1.586   0.643  0.00  0.00    +0.064 C 
ATOM     10  C   UNL     1     -15.308   3.384  -0.333  0.00  0.00    +0.063 C 
BRANCH   7  11
ATOM     11  C   UNL     1     -17.072   0.924   0.199  0.00  0.00    +0.110 C 
ATOM     12  C   UNL     1     -17.543   1.762   1.399  0.00  0.00    +0.049 C 
ATOM     13  C   UNL     1     -19.066   2.033   1.233  0.00  0.00    +0.168 C 
ATOM     14  S   UNL     1     -19.151   2.374  -0.576  0.00  0.00    -0.029 S 
ATOM     15  O   UNL     1     -20.264   1.682  -1.125  0.00  0.00    -0.174 OA
ATOM     16  O   UNL     1     -19.023   3.773  -0.789  0.00  0.00    -0.174 OA
ATOM     17  C   UNL     1     -17.603   1.543  -1.116  0.00  0.00    +0.191 C 
ENDBRANCH   7  11
ENDBRANCH   2   4
ENDBRANCH   1   2
BRANCH   1  18
ATOM     18  O   UNL     1     -10.005  -1.170   0.451  0.00  0.00    -0.457 OA
BRANCH  18  19
ATOM     19  C   UNL     1      -8.712  -0.825   0.356  0.00  0.00    +0.308 C 
ATOM     20  O   UNL     1      -8.408   0.322   0.127  0.00  0.00    -0.251 OA
BRANCH  19  21
ATOM     21  C   UNL     1      -7.638  -1.867   0.537  0.00  0.00    +0.124 C 
BRANCH  21  22
ATOM     22  C   UNL     1      -6.263  -1.215   0.381  0.00  0.00    +0.052 C 
BRANCH  22  23
ATOM     23  C   UNL     1      -5.173  -2.273   0.564  0.00  0.00    +0.230 C 
BRANCH  23  24
ATOM     24  O   UNL     1      -3.889  -1.664   0.419  0.00  0.00    -0.488 OA
BRANCH  24  30
ATOM     25  C   UNL     1      -1.522  -1.946   0.424  0.00  0.00    +0.162 A 
ATOM     26  C   UNL     1      -0.419  -2.773   0.568  0.00  0.00    +0.049 A 
ATOM     27  C   UNL     1      -0.594  -4.118   0.834  0.00  0.00    +0.004 A 
ATOM     28  C   UNL     1      -1.867  -4.642   0.957  0.00  0.00    +0.004 A 
ATOM     29  C   UNL     1      -2.971  -3.823   0.814  0.00  0.00    +0.049 A 
ATOM     30  C   UNL     1      -2.803  -2.472   0.553  0.00  0.00    +0.162 A 
BRANCH  25  31
ATOM     31  O   UNL     1      -1.351  -0.622   0.163  0.00  0.00    -0.489 OA
BRANCH  31  33
ATOM     32  C   UNL     1      -0.017   1.350  -0.249  0.00  0.00    +0.048 C 
ATOM     33  C   UNL     1      -0.007  -0.152   0.043  0.00  0.00    +0.226 C 
ENDBRANCH  31  33
ENDBRANCH  25  31
ENDBRANCH  24  30
ENDBRANCH  23  24
ENDBRANCH  22  23
ENDBRANCH  21  22
ENDBRANCH  19  21
ENDBRANCH  18  19
ENDBRANCH   1  18
TORSDOF 12
