REMARK  Name = ZINC13300470
REMARK  7 active torsions:
REMARK  status: ('A' for Active; 'I' for Inactive)
REMARK    1  A    between atoms: C_5  and  C_7
REMARK    2  A    between atoms: C_7  and  C_9
REMARK    3  A    between atoms: C_7  and  N_12
REMARK    4  A    between atoms: C_9  and  C_10
REMARK    5  A    between atoms: N_12  and  S_13
REMARK    6  A    between atoms: S_13  and  C_16
REMARK    7  A    between atoms: C_18  and  C_21
REMARK                            x       y       z     vdW  Elec       q    Type
REMARK                         _______ _______ _______ _____ _____    ______ ____
ROOT
ATOM      1  N   UNL     1       0.171   0.264   0.334  0.00  0.00    -0.182 NA
ATOM      2  H   UNL     1       0.924  -0.204   0.728  0.00  0.00    +0.149 HD
ENDROOT
BRANCH   1   3
ATOM      3  S   UNL     1      -1.187  -0.574  -0.106  0.00  0.00    +0.065 S 
ATOM      4  O   UNL     1      -0.938  -1.940   0.199  0.00  0.00    -0.153 OA
ATOM      5  O   UNL     1      -2.295   0.136   0.430  0.00  0.00    -0.153 OA
BRANCH   3   6
ATOM      6  C   UNL     1      -1.321  -0.466  -1.860  0.00  0.00    +0.143 A 
ATOM      7  C   UNL     1      -0.735  -1.240  -2.794  0.00  0.00    +0.051 A 
ATOM      8  C   UNL     1      -1.020  -0.933  -4.173  0.00  0.00    +0.072 A 
ATOM      9  C   UNL     1      -1.861   0.134  -4.417  0.00  0.00    +0.062 A 
ATOM     10  S   UNL     1      -2.259   0.697  -2.829  0.00  0.00    -0.076 S 
BRANCH   8  11
ATOM     11  C   UNL     1      -0.436  -1.718  -5.271  0.00  0.00    +0.387 C 
ATOM     12  O   UNL     1       0.302  -2.652  -5.025  0.00  0.00    -0.241 OA
ATOM     13  O   UNL     1      -0.718  -1.401  -6.551  0.00  0.00    -0.241 OA
ENDBRANCH   8  11
ENDBRANCH   3   6
ENDBRANCH   1   3
BRANCH   1  14
ATOM     14  C   UNL     1       0.236   1.714   0.129  0.00  0.00    +0.119 C 
BRANCH  14  19
ATOM     15  C   UNL     1      -0.488   2.433   3.764  0.00  0.00    +0.000 A 
ATOM     16  C   UNL     1      -1.004   3.713   3.695  0.00  0.00    +0.001 A 
ATOM     17  C   UNL     1      -1.120   4.347   2.472  0.00  0.00    +0.020 A 
ATOM     18  C   UNL     1      -0.718   3.700   1.317  0.00  0.00    +0.046 A 
ATOM     19  C   UNL     1      -0.201   2.419   1.386  0.00  0.00    -0.010 A 
ATOM     20  C   UNL     1      -0.091   1.784   2.609  0.00  0.00    +0.006 A 
ATOM     21 CL   UNL     1      -0.864   4.496  -0.219  0.00  0.00    -0.083 Cl
ENDBRANCH  14  19
BRANCH  14  22
ATOM     22  C   UNL     1       1.672   2.117  -0.210  0.00  0.00    +0.150 C 
BRANCH  22  23
ATOM     23  C   UNL     1       2.076   1.487  -1.518  0.00  0.00    +0.358 C 
ATOM     24  O   UNL     1       1.266   0.869  -2.166  0.00  0.00    -0.246 OA
ATOM     25  O   UNL     1       3.336   1.613  -1.962  0.00  0.00    -0.246 OA
ENDBRANCH  22  23
ENDBRANCH  14  22
ENDBRANCH   1  14
TORSDOF 7
