REMARK  Name = ZINC39912576
REMARK  11 active torsions:
REMARK  status: ('A' for Active; 'I' for Inactive)
REMARK    1  A    between atoms: C_1  and  C_2
REMARK    2  A    between atoms: C_4  and  C_37
REMARK    3  A    between atoms: C_5  and  O_36
REMARK    4  A    between atoms: C_6  and  C_8
REMARK    5  A    between atoms: N_16  and  C_27
REMARK    6  A    between atoms: C_17  and  C_19
REMARK    7  A    between atoms: C_22  and  O_25
REMARK    8  A    between atoms: O_25  and  C_26
REMARK    9  A    between atoms: C_27  and  C_28
REMARK   10  A    between atoms: C_31  and  O_34
REMARK   11  A    between atoms: O_34  and  C_35
REMARK                            x       y       z     vdW  Elec       q    Type
REMARK                         _______ _______ _______ _____ _____    ______ ____
ROOT
ATOM      1  C   UNL     1       0.244  -3.075   2.679  0.00  0.00    +0.102 A 
ATOM      2  C   UNL     1       0.232  -2.381   3.893  0.00  0.00    +0.035 A 
ATOM      3  C   UNL     1       0.178  -3.347   4.880  0.00  0.00    +0.126 A 
ATOM      4  N   UNL     1       0.160  -4.549   4.232  0.00  0.00    -0.272 N 
ATOM      5  H   UNL     1       0.123  -5.416   4.667  0.00  0.00    +0.189 HD
ATOM      6  N   UNL     1       0.193  -4.362   2.961  0.00  0.00    -0.173 NA
ATOM      7  C   UNL     1       0.164  -2.679   6.186  0.00  0.00    +0.266 C 
ATOM      8  O   UNL     1       0.119  -3.252   7.258  0.00  0.00    -0.268 OA
ATOM      9  N   UNL     1       0.207  -1.344   6.031  0.00  0.00    -0.281 N 
ATOM     10  C   UNL     1       0.253  -1.049   4.593  0.00  0.00    +0.142 C 
ENDROOT
BRANCH   1  16
ATOM     11  C   UNL     1      -1.382   0.309  -0.611  0.00  0.00    +0.044 C 
ATOM     12  C   UNL     1      -0.483  -0.849  -0.262  0.00  0.00    -0.049 A 
ATOM     13  C   UNL     1       0.392  -1.351  -1.209  0.00  0.00    +0.010 A 
ATOM     14  C   UNL     1       1.221  -2.413  -0.898  0.00  0.00    -0.008 A 
ATOM     15  C   UNL     1       1.179  -2.980   0.365  0.00  0.00    +0.129 A 
ATOM     16  C   UNL     1       0.296  -2.474   1.323  0.00  0.00    +0.044 A 
ATOM     17  C   UNL     1      -0.530  -1.400   1.002  0.00  0.00    +0.017 A 
ATOM     18  C   UNL     1       2.171  -2.954  -1.935  0.00  0.00    +0.047 C 
BRANCH  15  19
ATOM     19  O   UNL     1       1.993  -4.024   0.671  0.00  0.00    -0.506 OA
ATOM     20  H   UNL     1       2.850  -3.761   1.034  0.00  0.00    +0.292 HD
ENDBRANCH  15  19
ENDBRANCH   1  16
BRANCH  10  21
ATOM     21  C   UNL     1       1.520  -0.306   4.256  0.00  0.00    -0.022 A 
ATOM     22  C   UNL     1       2.739  -0.786   4.698  0.00  0.00    +0.009 A 
ATOM     23  C   UNL     1       3.902  -0.106   4.392  0.00  0.00    +0.046 A 
ATOM     24  C   UNL     1       3.847   1.058   3.639  0.00  0.00    +0.120 A 
ATOM     25  C   UNL     1       2.622   1.537   3.197  0.00  0.00    +0.046 A 
ATOM     26  C   UNL     1       1.462   0.851   3.502  0.00  0.00    +0.009 A 
BRANCH  24  27
ATOM     27  O   UNL     1       4.989   1.728   3.337  0.00  0.00    -0.495 OA
ATOM     28  C   UNL     1       4.856   2.920   2.559  0.00  0.00    +0.277 C 
ENDBRANCH  24  27
ENDBRANCH  10  21
BRANCH   9  29
ATOM     29  C   UNL     1       0.208  -0.354   7.110  0.00  0.00    +0.144 C 
BRANCH  29  30
ATOM     30  C   UNL     1       1.629  -0.056   7.517  0.00  0.00    -0.030 A 
ATOM     31  C   UNL     1       2.234  -0.805   8.508  0.00  0.00    +0.009 A 
ATOM     32  C   UNL     1       3.536  -0.533   8.883  0.00  0.00    +0.046 A 
ATOM     33  C   UNL     1       4.235   0.492   8.264  0.00  0.00    +0.120 A 
ATOM     34  C   UNL     1       3.625   1.242   7.269  0.00  0.00    +0.046 A 
ATOM     35  C   UNL     1       2.325   0.963   6.894  0.00  0.00    +0.009 A 
BRANCH  33  36
ATOM     36  O   UNL     1       5.516   0.761   8.631  0.00  0.00    -0.495 OA
ATOM     37  C   UNL     1       6.175   1.831   7.950  0.00  0.00    +0.277 C 
ENDBRANCH  33  36
ENDBRANCH  29  30
ENDBRANCH   9  29
TORSDOF 7
