REMARK  Name = ZINC63626101
REMARK  8 active torsions:
REMARK  status: ('A' for Active; 'I' for Inactive)
REMARK    1  A    between atoms: C_1  and  C_2
REMARK    2  A    between atoms: C_5  and  N_8
REMARK    3  A    between atoms: C_12  and  N_16
REMARK    4  A    between atoms: N_16  and  C_17
REMARK    5  A    between atoms: C_17  and  C_18
REMARK    6  A    between atoms: C_18  and  C_19
REMARK    7  A    between atoms: C_22  and  O_28
REMARK    8  A    between atoms: O_28  and  C_29
REMARK                            x       y       z     vdW  Elec       q    Type
REMARK                         _______ _______ _______ _____ _____    ______ ____
ROOT
ATOM      1  N   UNL     1       1.411  -7.016   1.141  0.00  0.00    +0.387 N 
ATOM      2  H   UNL     1       1.459  -7.941   0.739  0.00  0.00    -0.085 HD
ATOM      3  H   UNL     1       2.192  -6.467   0.816  0.00  0.00    -0.085 HD
ENDROOT
BRANCH   1   8
ATOM      4  N   UNL     1       0.059  -4.172  -0.021  0.00  0.00    -0.212 N 
ATOM      5  C   UNL     1      -0.030  -4.892  -1.146  0.00  0.00    +0.225 C 
ATOM      6  O   UNL     1      -0.134  -4.436  -2.265  0.00  0.00    -0.275 OA
ATOM      7  C   UNL     1       0.020  -6.364  -0.801  0.00  0.00    +0.090 C 
ATOM      8  C   UNL     1       0.155  -6.371   0.735  0.00  0.00    +0.026 C 
ATOM      9  C   UNL     1       0.172  -4.902   1.096  0.00  0.00    +0.213 C 
ATOM     10  O   UNL     1       0.271  -4.455   2.219  0.00  0.00    -0.277 OA
BRANCH   4  15
ATOM     11  C   UNL     1      -0.016   1.503   0.009  0.00  0.00    +0.044 C 
ATOM     12  C   UNL     1       0.004  -0.004   0.001  0.00  0.00    -0.050 A 
ATOM     13  C   UNL     1       1.156  -0.681   0.357  0.00  0.00    +0.005 A 
ATOM     14  C   UNL     1       1.177  -2.062   0.351  0.00  0.00    +0.024 A 
ATOM     15  C   UNL     1       0.040  -2.771  -0.013  0.00  0.00    +0.044 A 
ATOM     16  C   UNL     1      -1.115  -2.088  -0.370  0.00  0.00    +0.024 A 
ATOM     17  C   UNL     1      -1.132  -0.707  -0.357  0.00  0.00    +0.005 A 
ENDBRANCH   4  15
ENDBRANCH   1   8
BRANCH   1  18
ATOM     18  C   UNL     1       1.458  -7.117   2.606  0.00  0.00    -0.077 C 
BRANCH  18  19
ATOM     19  C   UNL     1       2.766  -7.789   3.029  0.00  0.00    +0.014 C 
BRANCH  19  20
ATOM     20  C   UNL     1       2.815  -7.892   4.532  0.00  0.00    -0.043 C 
ATOM     21  C   UNL     1       2.452  -8.954   5.286  0.00  0.00    +0.002 A 
ATOM     22  C   UNL     1       1.923 -10.280   4.949  0.00  0.00    +0.055 A 
ATOM     23  C   UNL     1       1.643 -11.159   5.941  0.00  0.00    +0.121 A 
ATOM     24  C   UNL     1       1.843 -10.847   7.298  0.00  0.00    +0.047 A 
ATOM     25  C   UNL     1       2.324  -9.654   7.706  0.00  0.00    +0.029 A 
ATOM     26  C   UNL     1       2.661  -8.627   6.715  0.00  0.00    +0.043 A 
ATOM     27  N   UNL     1       3.135  -7.412   6.839  0.00  0.00    -0.380 N 
ATOM     28  C   UNL     1       3.286  -6.830   5.501  0.00  0.00    +0.144 C 
ATOM     29  H   UNL     1       3.352  -6.972   7.676  0.00  0.00    +0.160 HD
BRANCH  23  30
ATOM     30  O   UNL     1       1.153 -12.383   5.614  0.00  0.00    -0.495 OA
ATOM     31  C   UNL     1       0.872 -13.279   6.692  0.00  0.00    +0.277 C 
ENDBRANCH  23  30
ENDBRANCH  19  20
ENDBRANCH  18  19
ENDBRANCH   1  18
TORSDOF 6
