REMARK  Name = ZINC00636932
REMARK  10 active torsions:
REMARK  status: ('A' for Active; 'I' for Inactive)
REMARK    1  A    between atoms: C_1  and  C_2
REMARK    2  A    between atoms: C_2  and  O_3
REMARK    3  A    between atoms: O_3  and  C_4
REMARK    4  A    between atoms: C_4  and  C_6
REMARK    5  A    between atoms: C_7  and  C_29
REMARK    6  A    between atoms: C_11  and  C_13
REMARK    7  A    between atoms: C_16  and  O_20
REMARK    8  A    between atoms: O_20  and  C_21
REMARK    9  A    between atoms: C_25  and  C_27
REMARK   10  A    between atoms: C_25  and  C_28
REMARK                            x       y       z     vdW  Elec       q    Type
REMARK                         _______ _______ _______ _____ _____    ______ ____
ROOT
ATOM      1  C   UNL     1      -0.348   4.216  -0.421  0.00  0.00    +0.065 C 
ATOM      2  C   UNL     1      -1.377   3.355  -0.339  0.00  0.00    +0.016 C 
ATOM      3  N   UNL     1      -1.173   2.070   0.079  0.00  0.00    -0.321 N 
ATOM      4  C   UNL     1       0.079   1.515   0.045  0.00  0.00    +0.016 C 
ATOM      5  C   UNL     1       1.175   2.300  -0.021  0.00  0.00    +0.024 C 
ATOM      6  C   UNL     1       1.045   3.803  -0.049  0.00  0.00    +0.092 C 
ATOM      7  C   UNL     1       2.465   1.743  -0.062  0.00  0.00    +0.162 C 
ATOM      8  O   UNL     1       3.430   2.478  -0.140  0.00  0.00    -0.292 OA
ATOM      9  C   UNL     1       2.672   0.254  -0.010  0.00  0.00    +0.086 C 
ATOM     10  C   UNL     1       1.511  -0.384   0.760  0.00  0.00    -0.023 C 
ATOM     11  C   UNL     1       0.200   0.012   0.076  0.00  0.00    +0.058 C 
ATOM     12  C   UNL     1       1.511   0.123   2.204  0.00  0.00    +0.011 C 
ATOM     13  C   UNL     1       1.657  -1.907   0.750  0.00  0.00    +0.011 C 
ATOM     14  C   UNL     1      -2.764   3.808  -0.714  0.00  0.00    +0.061 C 
ATOM     15  H   UNL     1      -2.018   1.471   0.448  0.00  0.00    +0.152 HD
ENDROOT
BRANCH   6  16
ATOM     16  C   UNL     1       1.376   4.353   1.315  0.00  0.00    -0.034 A 
ATOM     17  C   UNL     1       2.425   5.241   1.465  0.00  0.00    +0.008 A 
ATOM     18  C   UNL     1       2.730   5.748   2.714  0.00  0.00    +0.047 A 
ATOM     19  C   UNL     1       1.983   5.364   3.818  0.00  0.00    +0.138 A 
ATOM     20  C   UNL     1       0.931   4.472   3.665  0.00  0.00    +0.083 A 
ATOM     21  C   UNL     1       0.626   3.973   2.413  0.00  0.00    +0.028 A 
ATOM     22 CL   UNL     1      -0.006   3.989   5.045  0.00  0.00    -0.080 Cl
BRANCH  19  23
ATOM     23  O   UNL     1       2.281   5.862   5.047  0.00  0.00    -0.494 OA
ATOM     24  C   UNL     1       3.377   6.776   5.129  0.00  0.00    +0.277 C 
ENDBRANCH  19  23
ENDBRANCH   6  16
BRANCH   1  25
ATOM     25  C   UNL     1      -0.584   5.538  -0.867  0.00  0.00    +0.338 C 
ATOM     26  O   UNL     1      -1.686   5.856  -1.271  0.00  0.00    -0.245 OA
BRANCH  25  27
ATOM     27  O   UNL     1       0.415   6.446  -0.844  0.00  0.00    -0.462 OA
BRANCH  27  29
ATOM     28  C   UNL     1       1.352   8.643  -1.208  0.00  0.00    +0.048 C 
ATOM     29  C   UNL     1       0.106   7.761  -1.309  0.00  0.00    +0.229 C 
ENDBRANCH  27  29
ENDBRANCH  25  27
ENDBRANCH   1  25
TORSDOF 5
