REMARK  Name = ZINC15683886
REMARK  14 active torsions:
REMARK  status: ('A' for Active; 'I' for Inactive)
REMARK    1  A    between atoms: C_1  and  C_2
REMARK    2  A    between atoms: C_5  and  S_8
REMARK    3  A    between atoms: S_8  and  N_11
REMARK    4  A    between atoms: N_11  and  C_12
REMARK    5  A    between atoms: C_12  and  C_14
REMARK    6  A    between atoms: C_12  and  C_18
REMARK    7  A    between atoms: C_14  and  C_15
REMARK    8  A    between atoms: C_15  and  C_16
REMARK    9  A    between atoms: C_15  and  C_17
REMARK   10  A    between atoms: N_20  and  N_21
REMARK   11  A    between atoms: C_22  and  C_24
REMARK   12  A    between atoms: C_27  and  C_29
REMARK   13  A    between atoms: C_29  and  O_30
REMARK   14  A    between atoms: O_30  and  C_31
REMARK                            x       y       z     vdW  Elec       q    Type
REMARK                         _______ _______ _______ _____ _____    ______ ____
ROOT
ATOM      1  C   UNL     1       1.635   7.788  -0.291  0.00  0.00    +0.248 C 
ATOM      2  O   UNL     1       0.441   7.620  -0.155  0.00  0.00    -0.273 OA
ATOM      3  N   UNL     1       2.428   6.748  -0.618  0.00  0.00    -0.233 N 
ATOM      4  H   UNL     1       3.383   6.883  -0.727  0.00  0.00    +0.173 HD
ENDROOT
BRANCH   3   5
ATOM      5  N   UNL     1       1.875   5.475  -0.801  0.00  0.00    -0.228 N 
ATOM      6  C   UNL     1       2.668   4.436  -1.128  0.00  0.00    +0.295 C 
ATOM      7  O   UNL     1       3.866   4.604  -1.265  0.00  0.00    -0.265 OA
ATOM      8  H   UNL     1       0.920   5.340  -0.692  0.00  0.00    +0.173 HD
BRANCH   6   9
ATOM      9  C   UNL     1       2.089   3.102  -1.319  0.00  0.00    +0.191 A 
ATOM     10  C   UNL     1       2.775   1.969  -1.651  0.00  0.00    +0.055 A 
ATOM     11  C   UNL     1       1.831   0.933  -1.728  0.00  0.00    +0.049 A 
ATOM     12  C   UNL     1       0.624   1.474  -1.450  0.00  0.00    +0.143 A 
ATOM     13  O   UNL     1       0.784   2.780  -1.199  0.00  0.00    -0.452 OA
BRANCH  12  14
ATOM     14  C   UNL     1      -0.686   0.730  -1.424  0.00  0.00    +0.303 C 
BRANCH  14  15
ATOM     15  O   UNL     1      -0.921   0.224  -0.108  0.00  0.00    -0.484 OA
BRANCH  15  16
ATOM     16  C   UNL     1      -2.068  -0.477   0.088  0.00  0.00    +0.121 A 
ATOM     17  C   UNL     1      -2.953  -0.669  -0.963  0.00  0.00    +0.045 A 
ATOM     18  C   UNL     1      -4.116  -1.387  -0.762  0.00  0.00    +0.004 A 
ATOM     19  C   UNL     1      -4.404  -1.904   0.487  0.00  0.00    +0.000 A 
ATOM     20  C   UNL     1      -3.526  -1.709   1.538  0.00  0.00    +0.004 A 
ATOM     21  C   UNL     1      -2.359  -0.997   1.341  0.00  0.00    +0.045 A 
ENDBRANCH  15  16
ENDBRANCH  14  15
ENDBRANCH  12  14
ENDBRANCH   6   9
ENDBRANCH   3   5
BRANCH   1  22
ATOM     22  C   UNL     1       2.231   9.158  -0.094  0.00  0.00    +0.164 C 
BRANCH  22  23
ATOM     23  N   UNL     1       1.169  10.106   0.253  0.00  0.00    -0.178 NA
ATOM     24  H   UNL     1       0.662  10.545  -0.449  0.00  0.00    +0.149 HD
BRANCH  23  25
ATOM     25  S   UNL     1       0.835  10.430   1.842  0.00  0.00    +0.059 S 
ATOM     26  O   UNL     1      -0.148  11.456   1.849  0.00  0.00    -0.153 OA
ATOM     27  O   UNL     1       0.632   9.176   2.478  0.00  0.00    -0.153 OA
BRANCH  25  32
ATOM     28  C   UNL     1       5.823  12.806   4.266  0.00  0.00    +0.044 C 
ATOM     29  C   UNL     1       4.577  12.213   3.661  0.00  0.00    -0.050 A 
ATOM     30  C   UNL     1       3.663  13.029   3.021  0.00  0.00    +0.005 A 
ATOM     31  C   UNL     1       2.521  12.485   2.466  0.00  0.00    +0.029 A 
ATOM     32  C   UNL     1       2.292  11.124   2.550  0.00  0.00    +0.105 A 
ATOM     33  C   UNL     1       3.203  10.309   3.194  0.00  0.00    +0.029 A 
ATOM     34  C   UNL     1       4.348  10.852   3.745  0.00  0.00    +0.005 A 
ENDBRANCH  25  32
ENDBRANCH  23  25
ENDBRANCH  22  23
BRANCH  22  35
ATOM     35  C   UNL     1       2.914   9.607  -1.387  0.00  0.00    +0.033 C 
BRANCH  35  36
ATOM     36  C   UNL     1       3.644  10.930  -1.145  0.00  0.00    -0.015 C 
ATOM     37  C   UNL     1       4.472  11.289  -2.380  0.00  0.00    +0.007 C 
ATOM     38  C   UNL     1       2.621  12.036  -0.877  0.00  0.00    +0.007 C 
ENDBRANCH  35  36
ENDBRANCH  22  35
ENDBRANCH   1  22
TORSDOF 11
