REMARK  Name = ZINC41960925
REMARK  8 active torsions:
REMARK  status: ('A' for Active; 'I' for Inactive)
REMARK    1  A    between atoms: C_1  and  C_2
REMARK    2  A    between atoms: N_11  and  C_15
REMARK    3  A    between atoms: C_15  and  C_16
REMARK    4  A    between atoms: N_18  and  N_19
REMARK    5  A    between atoms: N_19  and  C_20
REMARK    6  A    between atoms: C_20  and  N_22
REMARK    7  A    between atoms: N_22  and  C_23
REMARK    8  A    between atoms: C_23  and  C_24
REMARK                            x       y       z     vdW  Elec       q    Type
REMARK                         _______ _______ _______ _____ _____    ______ ____
ROOT
ATOM      1  C   UNL     1      -0.019   1.526   0.010  0.00  0.00    +0.010 C 
ATOM      2  C   UNL     1       0.002  -0.004   0.002  0.00  0.00    +0.018 C 
ATOM      3  C   UNL     1       0.718  -0.497  -1.258  0.00  0.00    +0.006 C 
ATOM      4  C   UNL     1       0.756  -2.027  -1.256  0.00  0.00    +0.000 C 
ATOM      5  C   UNL     1       1.519  -2.517  -0.023  0.00  0.00    +0.003 C 
ATOM      6  C   UNL     1       0.807  -2.032   1.242  0.00  0.00    +0.035 C 
ATOM      7  C   UNL     1       0.739  -0.509   1.238  0.00  0.00    +0.115 C 
ATOM      8  C   UNL     1       2.128   0.083   1.303  0.00  0.00    +0.247 C 
ATOM      9  O   UNL     1       3.022  -0.055   0.496  0.00  0.00    -0.273 OA
ATOM     10  N   UNL     1       2.163   0.796   2.447  0.00  0.00    -0.215 N 
ATOM     11  C   UNL     1       0.998   0.734   3.103  0.00  0.00    +0.310 C 
ATOM     12  O   UNL     1       0.786   1.296   4.159  0.00  0.00    -0.252 OA
ATOM     13  N   UNL     1       0.086  -0.021   2.460  0.00  0.00    -0.285 N 
ATOM     14  H   UNL     1      -0.822  -0.205   2.747  0.00  0.00    +0.151 HD
ENDROOT
BRANCH  10  15
ATOM     15  C   UNL     1       3.332   1.546   2.915  0.00  0.00    +0.215 C 
BRANCH  15  16
ATOM     16  C   UNL     1       3.277   2.951   2.373  0.00  0.00    +0.247 C 
ATOM     17  O   UNL     1       2.353   3.293   1.666  0.00  0.00    -0.273 OA
ATOM     18  N   UNL     1       4.255   3.827   2.674  0.00  0.00    -0.234 N 
ATOM     19  H   UNL     1       4.995   3.554   3.240  0.00  0.00    +0.173 HD
BRANCH  18  20
ATOM     20  N   UNL     1       4.205   5.134   2.171  0.00  0.00    -0.246 N 
ATOM     21  H   UNL     1       3.466   5.407   1.605  0.00  0.00    +0.172 HD
BRANCH  20  22
ATOM     22  C   UNL     1       5.183   6.011   2.472  0.00  0.00    +0.147 C 
ATOM     23  S   UNL     1       5.121   7.607   1.857  0.00  0.00    -0.017 S 
BRANCH  22  24
ATOM     24  N   UNL     1       6.210   5.631   3.258  0.00  0.00    -0.322 N 
ATOM     25  H   UNL     1       6.245   4.726   3.606  0.00  0.00    +0.148 HD
BRANCH  24  26
ATOM     26  C   UNL     1       7.274   6.584   3.585  0.00  0.00    +0.130 C 
BRANCH  26  27
ATOM     27  C   UNL     1       8.293   5.914   4.471  0.00  0.00    -0.016 C 
ATOM     28  C   UNL     1       9.556   5.903   4.123  0.00  0.00    +0.005 C 
ENDBRANCH  26  27
ENDBRANCH  24  26
ENDBRANCH  22  24
ENDBRANCH  20  22
ENDBRANCH  18  20
ENDBRANCH  15  16
ENDBRANCH  10  15
TORSDOF 7
