REMARK  Name = ZINC44864673
REMARK  7 active torsions:
REMARK  status: ('A' for Active; 'I' for Inactive)
REMARK    1  A    between atoms: C_1  and  C_2
REMARK    2  A    between atoms: C_2  and  C_3
REMARK    3  A    between atoms: C_2  and  C_4
REMARK    4  A    between atoms: C_4  and  C_6
REMARK    5  A    between atoms: C_4  and  C_10
REMARK    6  A    between atoms: N_7  and  O_8
REMARK    7  A    between atoms: C_15  and  O_18
REMARK                            x       y       z     vdW  Elec       q    Type
REMARK                         _______ _______ _______ _____ _____    ______ ____
ROOT
ATOM      1  C   UNL     1      -1.353  -0.549  -0.028  0.00  0.00    +0.144 C 
ENDROOT
BRANCH   1   2
ATOM      2  C   UNL     1      -1.141  -2.040  -0.089  0.00  0.00    +0.226 C 
ATOM      3  O   UNL     1      -1.516  -2.667  -1.057  0.00  0.00    -0.275 OA
ATOM      4  N   UNL     1      -0.534  -2.677   0.932  0.00  0.00    -0.301 N 
ATOM      5  C   UNL     1       0.016  -1.921   2.065  0.00  0.00    +0.110 C 
ATOM      6  C   UNL     1       1.484  -2.317   2.256  0.00  0.00    +0.050 C 
ATOM      7  C   UNL     1       1.583  -3.836   2.408  0.00  0.00    +0.118 C 
ATOM      8  C   UNL     1       1.061  -4.512   1.137  0.00  0.00    +0.050 C 
ATOM      9  C   UNL     1      -0.416  -4.142   0.937  0.00  0.00    +0.110 C 
BRANCH   7  10
ATOM     10  O   UNL     1       2.947  -4.206   2.618  0.00  0.00    -0.392 OA
ATOM     11  H   UNL     1       3.084  -5.158   2.723  0.00  0.00    +0.210 HD
ENDBRANCH   7  10
ENDBRANCH   1   2
BRANCH   1  12
ATOM     12  C   UNL     1      -2.661  -0.256   0.661  0.00  0.00    +0.144 C 
ATOM     13  N   UNL     1      -3.731  -0.068  -0.039  0.00  0.00    -0.076 NA
ATOM     14  N   UNL     1      -2.716  -0.187   2.035  0.00  0.00    -0.343 N 
ATOM     15  H   UNL     1      -1.912  -0.328   2.560  0.00  0.00    +0.144 HD
ATOM     16  H   UNL     1      -3.558   0.002   2.478  0.00  0.00    +0.144 HD
BRANCH  13  17
ATOM     17  O   UNL     1      -4.960   0.208   0.608  0.00  0.00    -0.408 OA
ATOM     18  H   UNL     1      -5.703   0.333   0.002  0.00  0.00    +0.328 HD
ENDBRANCH  13  17
ENDBRANCH   1  12
BRANCH   1  20
ATOM     19  C   UNL     1      -1.576   1.537  -1.384  0.00  0.00    +0.008 C 
ATOM     20  C   UNL     1      -1.384   0.020  -1.447  0.00  0.00    +0.002 C 
ATOM     21  C   UNL     1      -0.065  -0.298  -2.154  0.00  0.00    +0.008 C 
ENDBRANCH   1  20
TORSDOF 5
