REMARK  Name = ZINC21255512
REMARK  8 active torsions:
REMARK  status: ('A' for Active; 'I' for Inactive)
REMARK    1  A    between atoms: C_1  and  C_2
REMARK    2  A    between atoms: C_2  and  C_3
REMARK    3  A    between atoms: C_2  and  O_4
REMARK    4  A    between atoms: O_4  and  C_5
REMARK    5  A    between atoms: C_8  and  C_11
REMARK    6  A    between atoms: C_16  and  C_26
REMARK    7  A    between atoms: C_30  and  O_32
REMARK    8  A    between atoms: O_32  and  C_33
REMARK                            x       y       z     vdW  Elec       q    Type
REMARK                         _______ _______ _______ _____ _____    ______ ____
ROOT
ATOM      1  C   UNL     1       0.693   0.044   1.299  0.00  0.00    +0.032 C 
ATOM      2  C   UNL     1      -0.577   0.648   0.703  0.00  0.00    +0.059 C 
ATOM      3  C   UNL     1      -0.425   2.156   0.582  0.00  0.00    +0.017 C 
ATOM      4  C   UNL     1       0.777   2.700   0.331  0.00  0.00    +0.036 C 
ATOM      5  C   UNL     1       1.066   4.173   0.164  0.00  0.00    +0.136 C 
ATOM      6  N   UNL     1      -0.022   5.045   0.554  0.00  0.00    -0.331 N 
ATOM      7  C   UNL     1      -1.235   5.033  -0.132  0.00  0.00    +0.049 A 
ATOM      8  C   UNL     1      -1.671   6.136  -0.850  0.00  0.00    +0.025 A 
ATOM      9  C   UNL     1      -2.861   6.062  -1.553  0.00  0.00    +0.002 A 
ATOM     10  C   UNL     1      -3.608   4.899  -1.544  0.00  0.00    +0.002 A 
ATOM     11  C   UNL     1      -3.184   3.801  -0.814  0.00  0.00    +0.025 A 
ATOM     12  C   UNL     1      -2.005   3.881  -0.094  0.00  0.00    +0.052 A 
ATOM     13  N   UNL     1      -1.577   2.856   0.740  0.00  0.00    -0.316 N 
ATOM     14  C   UNL     1       1.919   1.875   0.202  0.00  0.00    +0.163 C 
ATOM     15  O   UNL     1       2.990   2.393  -0.049  0.00  0.00    -0.292 OA
ATOM     16  C   UNL     1       1.857   0.386   0.361  0.00  0.00    +0.088 C 
ATOM     17  H   UNL     1       0.101   5.731   1.405  0.00  0.00    +0.147 HD
ATOM     18  H   UNL     1      -2.250   2.626   1.580  0.00  0.00    +0.152 HD
ENDROOT
BRANCH   1  22
ATOM     19  C   UNL     1       0.275  -4.199   1.599  0.00  0.00    +0.121 A 
ATOM     20  C   UNL     1       0.498  -3.440   2.739  0.00  0.00    +0.046 A 
ATOM     21  C   UNL     1       0.632  -2.068   2.639  0.00  0.00    +0.007 A 
ATOM     22  C   UNL     1       0.545  -1.452   1.405  0.00  0.00    -0.043 A 
ATOM     23  C   UNL     1       0.318  -2.205   0.268  0.00  0.00    +0.007 A 
ATOM     24  C   UNL     1       0.188  -3.578   0.362  0.00  0.00    +0.046 A 
BRANCH  19  25
ATOM     25  O   UNL     1       0.142  -5.548   1.695  0.00  0.00    -0.489 OA
BRANCH  25  27
ATOM     26  C   UNL     1      -0.622  -7.442   2.986  0.00  0.00    +0.051 C 
ATOM     27  C   UNL     1       0.123  -6.106   3.010  0.00  0.00    +0.167 C 
ATOM     28  C   UNL     1       1.559  -6.331   3.489  0.00  0.00    +0.051 C 
ENDBRANCH  25  27
ENDBRANCH  19  25
ENDBRANCH   1  22
BRANCH   5  29
ATOM     29  C   UNL     1       1.389   4.435  -1.284  0.00  0.00    -0.019 A 
ATOM     30  C   UNL     1       2.624   4.951  -1.634  0.00  0.00    +0.006 A 
ATOM     31  C   UNL     1       2.925   5.188  -2.962  0.00  0.00    +0.004 A 
ATOM     32  C   UNL     1       1.990   4.920  -3.942  0.00  0.00    +0.045 A 
ATOM     33  C   UNL     1       0.749   4.407  -3.594  0.00  0.00    +0.120 A 
ATOM     34  C   UNL     1       0.451   4.166  -2.260  0.00  0.00    +0.051 A 
BRANCH  33  35
ATOM     35  O   UNL     1      -0.173   4.143  -4.556  0.00  0.00    -0.495 OA
ATOM     36  C   UNL     1       0.203   4.417  -5.907  0.00  0.00    +0.277 C 
ENDBRANCH  33  35
ENDBRANCH   5  29
TORSDOF 5
