REMARK  Name = ZINC13368794
REMARK  9 active torsions:
REMARK  status: ('A' for Active; 'I' for Inactive)
REMARK    1  A    between atoms: C_1  and  C_2
REMARK    2  A    between atoms: C_8  and  S_21
REMARK    3  A    between atoms: C_12  and  C_14
REMARK    4  A    between atoms: N_16  and  C_17
REMARK    5  A    between atoms: C_17  and  C_18
REMARK    6  A    between atoms: C_18  and  N_62
REMARK    7  A    between atoms: C_19  and  N_62
REMARK    8  A    between atoms: C_20  and  N_62
REMARK    9  A    between atoms: S_21  and  N_24
REMARK                            x       y       z     vdW  Elec       q    Type
REMARK                         _______ _______ _______ _____ _____    ______ ____
ROOT
ATOM      1  C   UNL     1      -1.044   3.967   0.033  0.00  0.00    +0.109 C 
ATOM      2  C   UNL     1       0.399   4.402   0.022  0.00  0.00    +0.217 C 
ATOM      3  O   UNL     1       0.677   5.582   0.026  0.00  0.00    -0.276 OA
ATOM      4  N   UNL     1       1.381   3.478   0.008  0.00  0.00    -0.259 N 
ATOM      5  C   UNL     1       1.179   2.095   0.002  0.00  0.00    +0.040 A 
ATOM      6  C   UNL     1      -0.017   1.374   0.010  0.00  0.00    +0.026 A 
ATOM      7  C   UNL     1       0.002  -0.004   0.002  0.00  0.00    +0.030 A 
ATOM      8  C   UNL     1       1.206  -0.684  -0.014  0.00  0.00    +0.106 A 
ATOM      9  C   UNL     1       2.394   0.022  -0.021  0.00  0.00    +0.034 A 
ATOM     10  C   UNL     1       2.381   1.404  -0.013  0.00  0.00    -0.022 A 
ATOM     11  C   UNL     1       3.512   2.407  -0.018  0.00  0.00    +0.069 C 
ATOM     12  C   UNL     1       2.815   3.777  -0.004  0.00  0.00    +0.171 C 
ENDROOT
BRANCH  12  13
ATOM     13  C   UNL     1       3.175   4.562  -1.240  0.00  0.00    +0.234 C 
ATOM     14  O   UNL     1       2.427   4.568  -2.194  0.00  0.00    -0.274 OA
ATOM     15  N   UNL     1       4.329   5.257  -1.284  0.00  0.00    -0.316 N 
ATOM     16  H   UNL     1       4.928   5.253  -0.520  0.00  0.00    +0.149 HD
BRANCH  15  17
ATOM     17  C   UNL     1       4.679   6.020  -2.485  0.00  0.00    +0.085 C 
BRANCH  17  18
ATOM     18  C   UNL     1       6.028   6.711  -2.275  0.00  0.00    -0.061 C 
BRANCH  18  21
ATOM     19  C   UNL     1       5.444   8.590  -3.686  0.00  0.00    -0.097 C 
ATOM     20  C   UNL     1       7.765   7.958  -3.411  0.00  0.00    -0.097 C 
ATOM     21  N   UNL     1       6.377   7.459  -3.501  0.00  0.00    +0.377 N 
ATOM     22  H   UNL     1       6.301   6.829  -4.308  0.00  0.00    -0.083 HD
ENDBRANCH  18  21
ENDBRANCH  17  18
ENDBRANCH  15  17
ENDBRANCH  12  13
BRANCH   8  23
ATOM     23  S   UNL     1       1.226  -2.446  -0.025  0.00  0.00    +0.061 S 
ATOM     24  O   UNL     1       2.481  -2.841   0.512  0.00  0.00    -0.153 OA
ATOM     25  O   UNL     1      -0.009  -2.869   0.536  0.00  0.00    -0.153 OA
BRANCH  23  26
ATOM     26  N   UNL     1       1.216  -2.926  -1.609  0.00  0.00    -0.177 NA
ATOM     27  C   UNL     1      -0.056  -3.147  -2.259  0.00  0.00    +0.109 C 
ATOM     28  C   UNL     1      -0.503  -4.610  -2.056  0.00  0.00    +0.017 C 
ATOM     29  C   UNL     1       0.338  -5.515  -2.854  0.00  0.00    +0.001 C 
ATOM     30  C   UNL     1       1.813  -5.511  -2.464  0.00  0.00    +0.001 C 
ATOM     31  C   UNL     1       2.516  -4.381  -3.176  0.00  0.00    +0.017 C 
ATOM     32  C   UNL     1       2.507  -3.116  -2.299  0.00  0.00    +0.109 C 
ENDBRANCH  23  26
ENDBRANCH   8  23
TORSDOF 6
