REMARK  Name = ZINC09193829
REMARK  9 active torsions:
REMARK  status: ('A' for Active; 'I' for Inactive)
REMARK    1  A    between atoms: N_9  and  C_10
REMARK    2  A    between atoms: C_10  and  C_11
REMARK    3  A    between atoms: N_13  and  C_14
REMARK    4  A    between atoms: N_13  and  C_22
REMARK    5  A    between atoms: C_14  and  C_15
REMARK    6  A    between atoms: C_22  and  C_24
REMARK    7  A    between atoms: C_22  and  C_29
REMARK    8  A    between atoms: N_31  and  C_32
REMARK    9  A    between atoms: C_32  and  C_33
REMARK                            x       y       z     vdW  Elec       q    Type
REMARK                         _______ _______ _______ _____ _____    ______ ____
ROOT
ATOM      1  C   UNL     1       0.878  -4.984  -1.445  0.00  0.00    +0.238 C 
ATOM      2  O   UNL     1       1.454  -4.094  -2.034  0.00  0.00    -0.274 OA
ATOM      3  N   UNL     1      -0.438  -5.189  -1.653  0.00  0.00    -0.280 N 
ENDROOT
BRANCH   1   4
ATOM      4  C   UNL     1       1.633  -5.860  -0.479  0.00  0.00    +0.241 C 
BRANCH   4  13
ATOM      5  C   UNL     1       6.032  -3.243   0.760  0.00  0.00    +0.002 A 
ATOM      6  C   UNL     1       4.760  -3.025   1.275  0.00  0.00    +0.002 A 
ATOM      7  C   UNL     1       3.703  -3.785   0.860  0.00  0.00    +0.029 A 
ATOM      8  C   UNL     1       3.900  -4.785  -0.086  0.00  0.00    +0.090 A 
ATOM      9  C   UNL     1       5.184  -5.011  -0.611  0.00  0.00    +0.113 A 
ATOM     10  C   UNL     1       6.251  -4.217  -0.169  0.00  0.00    +0.032 A 
ATOM     11  N   UNL     1       5.093  -6.024  -1.496  0.00  0.00    -0.129 NA
ATOM     12  N   UNL     1       3.880  -6.445  -1.568  0.00  0.00    -0.064 NA
ATOM     13  N   UNL     1       3.073  -5.699  -0.696  0.00  0.00    -0.235 N 
ENDBRANCH   4  13
ENDBRANCH   1   4
BRANCH   3  14
ATOM     14  C   UNL     1      -1.155  -6.197  -0.869  0.00  0.00    +0.144 C 
BRANCH  14  15
ATOM     15  C   UNL     1      -1.780  -5.545   0.337  0.00  0.00    -0.030 A 
ATOM     16  C   UNL     1      -1.014  -5.293   1.460  0.00  0.00    +0.008 A 
ATOM     17  C   UNL     1      -1.585  -4.690   2.565  0.00  0.00    +0.038 A 
ATOM     18  C   UNL     1      -2.927  -4.349   2.551  0.00  0.00    +0.123 A 
ATOM     19  C   UNL     1      -3.694  -4.607   1.427  0.00  0.00    +0.038 A 
ATOM     20  C   UNL     1      -3.120  -5.205   0.322  0.00  0.00    +0.008 A 
ATOM     21  F   UNL     1      -3.487  -3.764   3.632  0.00  0.00    -0.205 F 
ENDBRANCH  14  15
ENDBRANCH   3  14
BRANCH   3  22
ATOM     22  C   UNL     1      -1.150  -4.403  -2.664  0.00  0.00    +0.199 C 
BRANCH  22  23
ATOM     23  C   UNL     1      -1.939  -5.328  -3.555  0.00  0.00    +0.019 A 
ATOM     24  C   UNL     1      -1.870  -5.481  -4.900  0.00  0.00    +0.013 A 
ATOM     25  C   UNL     1      -2.700  -6.402  -5.513  0.00  0.00    +0.008 A 
ATOM     26  C   UNL     1      -3.557  -7.124  -4.751  0.00  0.00    +0.045 A 
ATOM     27  S   UNL     1      -3.200  -6.512  -3.112  0.00  0.00    -0.099 S 
ENDBRANCH  22  23
BRANCH  22  28
ATOM     28  C   UNL     1      -2.089  -3.441  -1.982  0.00  0.00    +0.239 C 
ATOM     29  O   UNL     1      -1.858  -3.067  -0.852  0.00  0.00    -0.273 OA
ATOM     30  N   UNL     1      -3.185  -2.997  -2.628  0.00  0.00    -0.311 N 
ATOM     31  H   UNL     1      -3.370  -3.297  -3.532  0.00  0.00    +0.149 HD
BRANCH  30  32
ATOM     32  C   UNL     1      -4.098  -2.062  -1.966  0.00  0.00    +0.135 C 
BRANCH  32  33
ATOM     33  C   UNL     1      -5.252  -1.720  -2.910  0.00  0.00    +0.135 C 
ATOM     34  C   UNL     1      -6.181  -0.668  -2.265  0.00  0.00    +0.035 C 
ATOM     35  C   UNL     1      -7.597  -1.093  -2.714  0.00  0.00    +0.031 C 
ATOM     36  C   UNL     1      -7.356  -2.351  -3.577  0.00  0.00    +0.160 C 
ATOM     37  O   UNL     1      -6.090  -2.877  -3.120  0.00  0.00    -0.375 OA
ENDBRANCH  32  33
ENDBRANCH  30  32
ENDBRANCH  22  28
ENDBRANCH   3  22
TORSDOF 9
