REMARK  Name = ZINC64901699
REMARK  6 active torsions:
REMARK  status: ('A' for Active; 'I' for Inactive)
REMARK    1  A    between atoms: C_1  and  C_2
REMARK    2  A    between atoms: C_3  and  C_27
REMARK    3  A    between atoms: C_9  and  C_12
REMARK    4  A    between atoms: C_12  and  N_13
REMARK    5  A    between atoms: C_14  and  C_16
REMARK    6  A    between atoms: N_20  and  C_22
REMARK                            x       y       z     vdW  Elec       q    Type
REMARK                         _______ _______ _______ _____ _____    ______ ____
ROOT
ATOM      1  N   UNL     1      -1.310  -1.423   5.394  0.00  0.00    -0.311 N 
ATOM      2  C   UNL     1      -1.547  -1.215   6.704  0.00  0.00    +0.218 C 
ATOM      3  O   UNL     1      -0.620  -1.076   7.473  0.00  0.00    -0.275 OA
ATOM      4  H   UNL     1      -2.052  -1.533   4.778  0.00  0.00    +0.149 HD
ENDROOT
BRANCH   2   5
ATOM      5  C   UNL     1      -2.964  -1.154   7.213  0.00  0.00    +0.101 C 
ATOM      6  C   UNL     1      -3.652  -2.534   7.103  0.00  0.00    +0.110 C 
ATOM      7  C   UNL     1      -3.420  -3.173   8.454  0.00  0.00    +0.217 C 
ATOM      8  O   UNL     1      -3.550  -4.355   8.696  0.00  0.00    -0.276 OA
ATOM      9  N   UNL     1      -3.047  -2.241   9.348  0.00  0.00    -0.298 N 
ATOM     10  C   UNL     1      -2.994  -0.908   8.738  0.00  0.00    +0.121 C 
BRANCH   9  11
ATOM     11  C   UNL     1      -2.735  -2.520  10.752  0.00  0.00    +0.076 C 
ATOM     12  C   UNL     1      -1.604  -3.565  10.844  0.00  0.00    +0.022 C 
ATOM     13  C   UNL     1      -1.989  -4.435  12.067  0.00  0.00    +0.002 C 
ATOM     14  C   UNL     1      -3.530  -4.533  11.945  0.00  0.00    +0.002 C 
ATOM     15  C   UNL     1      -3.960  -3.135  11.452  0.00  0.00    +0.022 C 
ENDBRANCH   9  11
ENDBRANCH   2   5
BRANCH   1  16
ATOM     16  C   UNL     1       0.068  -1.482   4.899  0.00  0.00    +0.139 C 
BRANCH  16  25
ATOM     17  C   UNL     1      -0.018   1.503   0.010  0.00  0.00    +0.046 C 
ATOM     18  C   UNL     1       0.002  -0.004   0.002  0.00  0.00    -0.022 A 
ATOM     19  C   UNL     1       0.009  -0.797  -1.081  0.00  0.00    +0.017 A 
ATOM     20  N   UNL     1       0.028  -2.110  -0.699  0.00  0.00    -0.358 N 
ATOM     21  H   UNL     1       0.036  -2.867  -1.305  0.00  0.00    +0.166 HD
ATOM     22  C   UNL     1       0.035  -2.197   0.676  0.00  0.00    +0.047 A 
ATOM     23  C   UNL     1       0.025  -0.882   1.175  0.00  0.00    +0.003 A 
ATOM     24  C   UNL     1       0.035  -0.659   2.553  0.00  0.00    +0.015 A 
ATOM     25  C   UNL     1       0.057  -1.723   3.411  0.00  0.00    -0.030 A 
ATOM     26  C   UNL     1       0.071  -3.022   2.924  0.00  0.00    +0.007 A 
ATOM     27  C   UNL     1       0.052  -3.264   1.567  0.00  0.00    +0.026 A 
ATOM     28  C   UNL     1      -0.004  -0.311  -2.508  0.00  0.00    +0.063 C 
ENDBRANCH  16  25
ENDBRANCH   1  16
TORSDOF 4
