REMARK  Name = ZINC08860904
REMARK  10 active torsions:
REMARK  status: ('A' for Active; 'I' for Inactive)
REMARK    1  A    between atoms: C_1  and  C_2
REMARK    2  A    between atoms: C_2  and  O_3
REMARK    3  A    between atoms: O_3  and  C_4
REMARK    4  A    between atoms: C_6  and  C_20
REMARK    5  A    between atoms: C_9  and  O_10
REMARK    6  A    between atoms: O_10  and  C_11
REMARK    7  A    between atoms: C_11  and  C_13
REMARK    8  A    between atoms: N_21  and  N_22
REMARK    9  A    between atoms: C_23  and  C_25
REMARK   10  A    between atoms: C_29  and  C_30
REMARK                            x       y       z     vdW  Elec       q    Type
REMARK                         _______ _______ _______ _____ _____    ______ ____
ROOT
ATOM      1  C   UNL     1       3.511   1.641   0.025  0.00  0.00    +0.163 A 
ATOM      2  C   UNL     1       4.622   0.817   0.003  0.00  0.00    +0.059 A 
ATOM      3  C   UNL     1       4.457  -0.569  -0.063  0.00  0.00    -0.002 A 
ATOM      4  C   UNL     1       3.172  -1.116  -0.107  0.00  0.00    +0.013 A 
ATOM      5  C   UNL     1       2.070  -0.288  -0.081  0.00  0.00    +0.051 A 
ATOM      6  C   UNL     1       2.233   1.088  -0.020  0.00  0.00    +0.173 A 
ENDROOT
BRANCH   3   7
ATOM      7  C   UNL     1       5.638  -1.453  -0.087  0.00  0.00    +0.138 C 
ATOM      8  N   UNL     1       5.483  -2.740  -0.149  0.00  0.00    -0.187 NA
BRANCH   8   9
ATOM      9  N   UNL     1       6.605  -3.579  -0.171  0.00  0.00    -0.203 N 
ATOM     10  C   UNL     1       6.444  -4.916  -0.235  0.00  0.00    +0.267 C 
ATOM     11  O   UNL     1       5.326  -5.394  -0.273  0.00  0.00    -0.268 OA
ATOM     12  H   UNL     1       7.496  -3.199  -0.141  0.00  0.00    +0.178 HD
BRANCH  10  13
ATOM     13  C   UNL     1       7.624  -5.799  -0.259  0.00  0.00    +0.079 A 
ATOM     14  C   UNL     1       9.037  -5.395  -0.227  0.00  0.00    +0.054 A 
ATOM     15  C   UNL     1       9.747  -6.534  -0.264  0.00  0.00    +0.196 A 
ATOM     16  O   UNL     1       8.904  -7.576  -0.324  0.00  0.00    -0.467 OA
ATOM     17  C   UNL     1       7.633  -7.162  -0.322  0.00  0.00    +0.114 A 
ATOM     18  C   UNL     1       6.416  -8.050  -0.380  0.00  0.00    +0.087 C 
ENDBRANCH  10  13
ENDBRANCH   8   9
ENDBRANCH   3   7
BRANCH   1  19
ATOM     19  O   UNL     1       3.667   2.990   0.089  0.00  0.00    -0.489 OA
BRANCH  19  21
ATOM     20  C   UNL     1       4.981   5.015   0.202  0.00  0.00    +0.048 C 
ATOM     21  C   UNL     1       5.007   3.487   0.132  0.00  0.00    +0.226 C 
ENDBRANCH  19  21
ENDBRANCH   1  19
BRANCH   6  22
ATOM     22  O   UNL     1       1.143   1.900   0.001  0.00  0.00    -0.419 OA
BRANCH  22  23
ATOM     23  C   UNL     1       0.720   2.387  -1.181  0.00  0.00    +0.346 C 
ATOM     24  O   UNL     1       1.360   2.172  -2.191  0.00  0.00    -0.244 OA
BRANCH  23  25
ATOM     25  C   UNL     1      -0.519   3.188  -1.249  0.00  0.00    +0.072 A 
ATOM     26  C   UNL     1      -1.260   3.433  -0.091  0.00  0.00    +0.016 A 
ATOM     27  C   UNL     1      -2.414   4.186  -0.161  0.00  0.00    +0.001 A 
ATOM     28  C   UNL     1      -2.843   4.689  -1.377  0.00  0.00    +0.001 A 
ATOM     29  C   UNL     1      -2.117   4.447  -2.529  0.00  0.00    +0.015 A 
ATOM     30  C   UNL     1      -0.958   3.700  -2.473  0.00  0.00    +0.027 A 
ATOM     31  I   UNL     1       0.140   3.333  -4.219  0.00  0.00    -0.043 I 
ENDBRANCH  23  25
ENDBRANCH  22  23
ENDBRANCH   6  22
TORSDOF 8
