REMARK  Name = ZINC24937181
REMARK  9 active torsions:
REMARK  status: ('A' for Active; 'I' for Inactive)
REMARK    1  A    between atoms: C_1  and  C_2
REMARK    2  A    between atoms: C_2  and  C_3
REMARK    3  A    between atoms: C_3  and  C_4
REMARK    4  A    between atoms: C_7  and  C_10
REMARK    5  A    between atoms: C_10  and  C_33
REMARK    6  A    between atoms: N_13  and  C_17
REMARK    7  A    between atoms: C_17  and  C_18
REMARK    8  A    between atoms: C_20  and  O_21
REMARK    9  A    between atoms: C_30  and  C_32
REMARK                            x       y       z     vdW  Elec       q    Type
REMARK                         _______ _______ _______ _____ _____    ______ ____
ROOT
ATOM      1  C   UNL     1       1.411   1.823  -0.029  0.00  0.00    +0.135 C 
ATOM      2  C   UNL     1      -0.039   1.382  -0.010  0.00  0.00    +0.251 C 
ATOM      3  O   UNL     1      -1.021   2.093   0.008  0.00  0.00    -0.272 OA
ATOM      4  N   UNL     1      -0.010   0.035  -0.024  0.00  0.00    -0.220 N 
ATOM      5  C   UNL     1       1.244  -0.432  -0.049  0.00  0.00    +0.310 C 
ATOM      6  O   UNL     1       1.524  -1.614  -0.065  0.00  0.00    -0.252 OA
ATOM      7  N   UNL     1       2.159   0.554  -0.054  0.00  0.00    -0.281 N 
ATOM      8  C   UNL     1       1.706   2.646  -1.285  0.00  0.00    +0.047 C 
ATOM      9  H   UNL     1       3.258   0.564  -0.071  0.00  0.00    +0.152 HD
ENDROOT
BRANCH   1  13
ATOM     10  C   UNL     1       2.350   4.054   3.490  0.00  0.00    -0.047 A 
ATOM     11  C   UNL     1       3.329   3.306   2.864  0.00  0.00    +0.004 A 
ATOM     12  C   UNL     1       3.025   2.584   1.725  0.00  0.00    +0.006 A 
ATOM     13  C   UNL     1       1.742   2.610   1.212  0.00  0.00    -0.015 A 
ATOM     14  C   UNL     1       0.764   3.362   1.835  0.00  0.00    +0.006 A 
ATOM     15  C   UNL     1       1.066   4.080   2.978  0.00  0.00    +0.004 A 
BRANCH  10  16
ATOM     16  C   UNL     1       2.681   4.842   4.732  0.00  0.00    +0.035 C 
BRANCH  16  18
ATOM     17  C   UNL     1       3.478   7.046   5.597  0.00  0.00    +0.004 C 
ATOM     18  C   UNL     1       3.142   6.246   4.337  0.00  0.00    +0.001 C 
ENDBRANCH  16  18
ENDBRANCH  10  16
ENDBRANCH   1  13
BRANCH   4  19
ATOM     19  C   UNL     1      -1.204  -0.815  -0.012  0.00  0.00    +0.154 C 
BRANCH  19  20
ATOM     20  C   UNL     1      -1.708  -0.992  -1.421  0.00  0.00    -0.012 A 
ATOM     21  C   UNL     1      -1.016  -0.492  -2.478  0.00  0.00    +0.093 A 
ATOM     22  C   UNL     1      -1.506  -0.676  -3.787  0.00  0.00    +0.285 A 
ATOM     23  O   UNL     1      -2.654  -1.329  -4.025  0.00  0.00    -0.425 OA
ATOM     24  C   UNL     1      -3.393  -1.845  -3.020  0.00  0.00    +0.141 A 
ATOM     25  C   UNL     1      -2.961  -1.703  -1.688  0.00  0.00    +0.022 A 
ATOM     26  C   UNL     1      -3.723  -2.236  -0.642  0.00  0.00    +0.014 A 
ATOM     27  C   UNL     1      -4.886  -2.894  -0.918  0.00  0.00    +0.024 A 
ATOM     28  C   UNL     1      -5.321  -3.038  -2.235  0.00  0.00    +0.037 A 
ATOM     29  C   UNL     1      -4.577  -2.516  -3.283  0.00  0.00    +0.070 A 
ATOM     30  N   UNL     1      -6.512  -3.714  -2.501  0.00  0.00    -0.286 N 
ATOM     31  C   UNL     1      -6.625  -4.469  -3.612  0.00  0.00    +0.214 C 
ATOM     32  O   UNL     1      -5.723  -4.496  -4.421  0.00  0.00    -0.276 OA
ATOM     33  C   UNL     1      -7.874  -5.280  -3.848  0.00  0.00    +0.109 C 
ATOM     34  H   UNL     1      -7.359  -3.630  -1.804  0.00  0.00    +0.155 HD
BRANCH  22  35
ATOM     35  O   UNL     1      -0.873  -0.228  -4.726  0.00  0.00    -0.480 OA
ATOM     36  H   UNL     1      -1.242  -0.363  -5.753  0.00  0.00    +0.295 HD
ENDBRANCH  22  35
ENDBRANCH  19  20
ENDBRANCH   4  19
TORSDOF 6
