REMARK  Name = ZINC15733816
REMARK  5 active torsions:
REMARK  status: ('A' for Active; 'I' for Inactive)
REMARK    1  A    between atoms: C_1  and  C_2
REMARK    2  A    between atoms: C_7  and  S_8
REMARK    3  A    between atoms: S_8  and  N_11
REMARK    4  A    between atoms: N_15  and  C_17
REMARK    5  A    between atoms: C_17  and  C_18
REMARK                            x       y       z     vdW  Elec       q    Type
REMARK                         _______ _______ _______ _____ _____    ______ ____
ROOT
ATOM      1  S   UNL     1       0.026   0.183   2.725  0.00  0.00    +0.062 S 
ATOM      2  O   UNL     1      -1.014   1.148   2.637  0.00  0.00    -0.153 OA
ATOM      3  O   UNL     1       0.076  -0.790   3.759  0.00  0.00    -0.153 OA
ENDROOT
BRANCH   1  10
ATOM      4  C   UNL     1      -0.018   1.503   0.010  0.00  0.00    +0.046 C 
ATOM      5  C   UNL     1       0.002  -0.004   0.002  0.00  0.00    -0.023 A 
ATOM      6  C   UNL     1       0.006  -0.683  -1.197  0.00  0.00    +0.016 A 
ATOM      7  C   UNL     1       0.025  -2.075  -1.205  0.00  0.00    +0.011 A 
ATOM      8  C   UNL     1       0.040  -2.783   0.012  0.00  0.00    +0.049 A 
ATOM      9  C   UNL     1       0.035  -2.079   1.210  0.00  0.00    +0.055 A 
ATOM     10  C   UNL     1       0.023  -0.701   1.201  0.00  0.00    +0.110 A 
ATOM     11  N   UNL     1       0.058  -4.134  -0.284  0.00  0.00    -0.357 N 
ATOM     12  H   UNL     1       0.068  -4.844   0.377  0.00  0.00    +0.166 HD
ATOM     13  C   UNL     1       0.057  -4.328  -1.609  0.00  0.00    +0.028 A 
ATOM     14  C   UNL     1       0.033  -3.099  -2.252  0.00  0.00    +0.046 A 
ATOM     15  C   UNL     1       0.021  -2.974  -3.663  0.00  0.00    +0.165 C 
ATOM     16  O   UNL     1       0.038  -1.885  -4.198  0.00  0.00    -0.292 OA
ATOM     17  C   UNL     1      -0.011  -4.248  -4.479  0.00  0.00    +0.080 C 
ATOM     18  C   UNL     1       0.732  -5.362  -3.741  0.00  0.00    +0.014 C 
ATOM     19  C   UNL     1       0.085  -5.629  -2.377  0.00  0.00    +0.054 C 
ENDBRANCH   1  10
BRANCH   1  20
ATOM     20  N   UNL     1       1.449   1.026   2.799  0.00  0.00    -0.162 NA
ATOM     21  C   UNL     1       2.651   0.424   3.397  0.00  0.00    +0.112 C 
ATOM     22  C   UNL     1       3.216   1.401   4.435  0.00  0.00    +0.032 C 
ATOM     23  C   UNL     1       3.396   2.774   3.782  0.00  0.00    +0.087 C 
ATOM     24  N   UNL     1       2.097   3.271   3.312  0.00  0.00    -0.284 NA
ATOM     25  C   UNL     1       1.543   2.392   2.264  0.00  0.00    +0.195 C 
BRANCH  24  26
ATOM     26  C   UNL     1       2.204   4.655   2.833  0.00  0.00    +0.120 C 
BRANCH  26  27
ATOM     27  C   UNL     1       2.537   5.562   3.989  0.00  0.00    -0.033 A 
ATOM     28  C   UNL     1       1.521   6.136   4.731  0.00  0.00    +0.008 A 
ATOM     29  C   UNL     1       1.825   6.968   5.792  0.00  0.00    +0.038 A 
ATOM     30  C   UNL     1       3.147   7.226   6.112  0.00  0.00    +0.123 A 
ATOM     31  C   UNL     1       4.164   6.651   5.368  0.00  0.00    +0.038 A 
ATOM     32  C   UNL     1       3.857   5.815   4.311  0.00  0.00    +0.008 A 
ATOM     33  F   UNL     1       3.446   8.039   7.149  0.00  0.00    -0.205 F 
ENDBRANCH  26  27
ENDBRANCH  24  26
ENDBRANCH   1  20
TORSDOF 4
