REMARK  Name = ZINC13388309
REMARK  8 active torsions:
REMARK  status: ('A' for Active; 'I' for Inactive)
REMARK    1  A    between atoms: C_1  and  C_2
REMARK    2  A    between atoms: C_2  and  C_4
REMARK    3  A    between atoms: C_2  and  N_58
REMARK    4  A    between atoms: C_7  and  S_16
REMARK    5  A    between atoms: N_8  and  C_9
REMARK    6  A    between atoms: S_16  and  C_17
REMARK    7  A    between atoms: C_17  and  C_18
REMARK    8  A    between atoms: C_26  and  C_27
REMARK                            x       y       z     vdW  Elec       q    Type
REMARK                         _______ _______ _______ _____ _____    ______ ____
ROOT
ATOM      1  C   UNL     1      -3.493  -4.558   1.836  0.00  0.00    +0.125 A 
ATOM      2  N   UNL     1      -3.361  -4.133   0.611  0.00  0.00    -0.135 NA
ATOM      3  N   UNL     1      -2.942  -2.918   0.608  0.00  0.00    -0.122 NA
ATOM      4  C   UNL     1      -2.782  -2.496   1.841  0.00  0.00    +0.196 A 
ATOM      5  N   UNL     1      -3.125  -3.532   2.665  0.00  0.00    -0.275 N 
ENDROOT
BRANCH   5   6
ATOM      6  C   UNL     1      -3.105  -3.541   4.068  0.00  0.00    +0.050 A 
ATOM      7  C   UNL     1      -2.234  -4.383   4.746  0.00  0.00    +0.028 A 
ATOM      8  C   UNL     1      -2.214  -4.387   6.127  0.00  0.00    +0.022 A 
ATOM      9  C   UNL     1      -3.067  -3.560   6.835  0.00  0.00    +0.041 A 
ATOM     10  C   UNL     1      -3.940  -2.723   6.161  0.00  0.00    +0.022 A 
ATOM     11  C   UNL     1      -3.961  -2.712   4.780  0.00  0.00    +0.028 A 
ATOM     12 CL   UNL     1      -3.043  -3.571   8.570  0.00  0.00    -0.084 Cl
ENDBRANCH   5   6
BRANCH   1  14
ATOM     13  C   UNL     1      -5.468  -6.046   2.030  0.00  0.00    -0.005 C 
ATOM     14  C   UNL     1      -3.960  -5.927   2.261  0.00  0.00    -0.002 C 
BRANCH  14  20
ATOM     15  C   UNL     1      -3.670  -8.299   1.879  0.00  0.00    -0.078 C 
ATOM     16  C   UNL     1      -3.036  -9.331   0.942  0.00  0.00    -0.019 C 
ATOM     17  C   UNL     1      -1.512  -9.198   1.002  0.00  0.00    -0.004 C 
ATOM     18  C   UNL     1      -1.116  -7.770   0.620  0.00  0.00    -0.019 C 
ATOM     19  C   UNL     1      -1.805  -6.784   1.566  0.00  0.00    -0.078 C 
ATOM     20  N   UNL     1      -3.270  -6.945   1.442  0.00  0.00    +0.386 N 
ATOM     21  H   UNL     1      -3.537  -6.819   0.459  0.00  0.00    -0.081 HD
ENDBRANCH  14  20
ENDBRANCH   1  14
BRANCH   4  22
ATOM     22  S   UNL     1      -2.225  -0.900   2.338  0.00  0.00    -0.081 S 
BRANCH  22  23
ATOM     23  C   UNL     1      -1.979  -0.133   0.718  0.00  0.00    +0.117 C 
BRANCH  23  24
ATOM     24  C   UNL     1      -1.489   1.280   0.900  0.00  0.00    +0.023 A 
ATOM     25  C   UNL     1      -2.307   2.486   1.019  0.00  0.00    +0.025 A 
ATOM     26  C   UNL     1      -3.682   2.735   1.008  0.00  0.00    +0.012 A 
ATOM     27  C   UNL     1      -4.139   4.015   1.146  0.00  0.00    +0.001 A 
ATOM     28  C   UNL     1      -3.247   5.068   1.298  0.00  0.00    +0.004 A 
ATOM     29  C   UNL     1      -1.888   4.844   1.312  0.00  0.00    +0.047 A 
ATOM     30  C   UNL     1      -1.398   3.550   1.172  0.00  0.00    +0.136 A 
ATOM     31  O   UNL     1      -0.155   3.030   1.153  0.00  0.00    -0.448 OA
ATOM     32  C   UNL     1      -0.197   1.692   0.987  0.00  0.00    +0.221 A 
BRANCH  32  33
ATOM     33  C   UNL     1       0.977   0.812   0.918  0.00  0.00    +0.421 C 
ATOM     34  O   UNL     1       0.831  -0.386   0.772  0.00  0.00    -0.237 OA
ATOM     35  O   UNL     1       2.217   1.334   1.011  0.00  0.00    -0.237 OA
ENDBRANCH  32  33
ENDBRANCH  23  24
ENDBRANCH  22  23
ENDBRANCH   4  22
TORSDOF 7
