REMARK  Name = ZINC05669508
REMARK  4 active torsions:
REMARK  status: ('A' for Active; 'I' for Inactive)
REMARK    1  A    between atoms: C_9  and  O_21
REMARK    2  A    between atoms: C_10  and  C_11
REMARK    3  A    between atoms: N_12  and  N_13
REMARK    4  A    between atoms: C_14  and  C_15
REMARK                            x       y       z     vdW  Elec       q    Type
REMARK                         _______ _______ _______ _____ _____    ______ ____
ROOT
ATOM      1  C   UNL     1      -0.168   6.245   0.116  0.00  0.00    +0.142 C 
ATOM      2  N   UNL     1      -0.554   7.486   0.109  0.00  0.00    -0.189 NA
ENDROOT
BRANCH   1  12
ATOM      3  C   UNL     1       2.635   1.917   0.176  0.00  0.00    +0.001 A 
ATOM      4  C   UNL     1       1.268   2.185   0.138  0.00  0.00    +0.001 A 
ATOM      5  C   UNL     1       0.806   3.467   0.135  0.00  0.00    +0.009 A 
ATOM      6  C   UNL     1       1.716   4.531   0.158  0.00  0.00    -0.006 A 
ATOM      7  C   UNL     1       3.107   4.262   0.191  0.00  0.00    -0.017 A 
ATOM      8  C   UNL     1       3.547   2.927   0.199  0.00  0.00    +0.008 A 
ATOM      9  C   UNL     1       4.019   5.331   0.214  0.00  0.00    +0.012 A 
ATOM     10  C   UNL     1       3.582   6.619   0.206  0.00  0.00    +0.046 A 
ATOM     11  C   UNL     1       2.224   6.933   0.174  0.00  0.00    +0.126 A 
ATOM     12  C   UNL     1       1.265   5.921   0.149  0.00  0.00    +0.044 A 
BRANCH  11  13
ATOM     13  O   UNL     1       1.833   8.234   0.167  0.00  0.00    -0.506 OA
ATOM     14  H   UNL     1       1.699   8.609   1.048  0.00  0.00    +0.292 HD
ENDBRANCH  11  13
ENDBRANCH   1  12
BRANCH   2  15
ATOM     15  N   UNL     1      -1.920   7.795   0.078  0.00  0.00    -0.221 N 
ATOM     16  C   UNL     1      -2.329   9.110   0.070  0.00  0.00    +0.142 C 
ATOM     17  H   UNL     1      -2.578   7.083   0.061  0.00  0.00    +0.176 HD
ATOM     18  H   UNL     1      -1.646  11.018   0.269  0.00  0.00    +0.157 HD
ATOM     19  N   UNL     1      -1.388  10.034   0.194  0.00  0.00    -0.384 N 
ATOM     20  H   UNL     1      -0.399   9.761   0.214  0.00  0.00    +0.157 HD
BRANCH  16  21
ATOM     21  C   UNL     1      -3.766   9.439  -0.079  0.00  0.00    +0.187 A 
ATOM     22  C   UNL     1      -4.927   8.521  -0.119  0.00  0.00    +0.191 A 
ATOM     23  N   UNL     1      -5.938   9.345  -0.264  0.00  0.00    -0.033 NA
ATOM     24  O   UNL     1      -5.528  10.481  -0.304  0.00  0.00    -0.240 OA
ATOM     25  N   UNL     1      -4.332  10.619  -0.202  0.00  0.00    -0.044 NA
ATOM     26  N   UNL     1      -4.943   7.135  -0.027  0.00  0.00    -0.339 N 
ATOM     27  H   UNL     1      -4.108   6.641   0.001  0.00  0.00    +0.144 HD
ATOM     28  H   UNL     1      -5.788   6.661   0.008  0.00  0.00    +0.144 HD
ENDBRANCH  16  21
ENDBRANCH   2  15
TORSDOF 4
