REMARK  Name = ZINC16924285
REMARK  9 active torsions:
REMARK  status: ('A' for Active; 'I' for Inactive)
REMARK    1  A    between atoms: C_1  and  C_2
REMARK    2  A    between atoms: C_2  and  O_3
REMARK    3  A    between atoms: O_3  and  C_4
REMARK    4  A    between atoms: C_7  and  N_10
REMARK    5  A    between atoms: C_13  and  C_18
REMARK    6  A    between atoms: C_18  and  C_19
REMARK    7  A    between atoms: N_21  and  C_22
REMARK    8  A    between atoms: C_24  and  C_29
REMARK    9  A    between atoms: C_27  and  O_28
REMARK                            x       y       z     vdW  Elec       q    Type
REMARK                         _______ _______ _______ _____ _____    ______ ____
ROOT
ATOM      1  N   UNL     1       0.031   1.416   0.415  0.00  0.00    -0.200 N 
ATOM      2  C   UNL     1       0.044   0.094   0.370  0.00  0.00    +0.241 C 
ATOM      3  O   UNL     1      -0.974  -0.565   0.403  0.00  0.00    -0.274 OA
ATOM      4  C   UNL     1       1.423  -0.543   0.276  0.00  0.00    +0.151 C 
ATOM      5  S   UNL     1       2.467   0.969   0.271  0.00  0.00    -0.054 S 
ATOM      6  C   UNL     1       1.147   2.167   0.381  0.00  0.00    +0.286 C 
ATOM      7  O   UNL     1       1.236   3.379   0.416  0.00  0.00    -0.262 OA
ENDROOT
BRANCH   1  11
ATOM      8  C   UNL     1      -3.656   3.353   0.657  0.00  0.00    +0.121 A 
ATOM      9  C   UNL     1      -3.327   2.627  -0.478  0.00  0.00    +0.047 A 
ATOM     10  C   UNL     1      -2.107   1.986  -0.559  0.00  0.00    +0.027 A 
ATOM     11  C   UNL     1      -1.209   2.068   0.496  0.00  0.00    +0.045 A 
ATOM     12  C   UNL     1      -1.540   2.790   1.635  0.00  0.00    +0.027 A 
ATOM     13  C   UNL     1      -2.758   3.436   1.712  0.00  0.00    +0.047 A 
BRANCH   8  14
ATOM     14  O   UNL     1      -4.857   3.985   0.737  0.00  0.00    -0.492 OA
BRANCH  14  16
ATOM     15  C   UNL     1      -6.517   5.351   1.841  0.00  0.00    +0.048 C 
ATOM     16  C   UNL     1      -5.129   4.714   1.935  0.00  0.00    +0.225 C 
ENDBRANCH  14  16
ENDBRANCH   8  14
ENDBRANCH   1  11
BRANCH   4  17
ATOM     17  C   UNL     1       1.583  -1.334  -1.024  0.00  0.00    +0.120 C 
BRANCH  17  18
ATOM     18  C   UNL     1       2.911  -2.045  -1.019  0.00  0.00    +0.219 C 
ATOM     19  O   UNL     1       3.657  -1.930  -0.069  0.00  0.00    -0.275 OA
ATOM     20  N   UNL     1       3.271  -2.809  -2.069  0.00  0.00    -0.283 N 
ATOM     21  H   UNL     1       2.714  -2.835  -2.863  0.00  0.00    +0.155 HD
BRANCH  20  22
ATOM     22  C   UNL     1       4.449  -3.565  -2.015  0.00  0.00    +0.076 A 
ATOM     23  C   UNL     1       4.869  -4.113  -0.812  0.00  0.00    +0.030 A 
ATOM     24  C   UNL     1       6.032  -4.859  -0.761  0.00  0.00    -0.048 A 
ATOM     25  C   UNL     1       6.779  -5.059  -1.907  0.00  0.00    +0.007 A 
ATOM     26  C   UNL     1       6.367  -4.516  -3.110  0.00  0.00    +0.047 A 
ATOM     27  C   UNL     1       5.199  -3.773  -3.170  0.00  0.00    +0.138 A 
ATOM     28  C   UNL     1       6.487  -5.454   0.547  0.00  0.00    +0.044 C 
BRANCH  27  29
ATOM     29  O   UNL     1       4.789  -3.243  -4.354  0.00  0.00    -0.505 OA
ATOM     30  H   UNL     1       5.133  -2.356  -4.527  0.00  0.00    +0.292 HD
ENDBRANCH  27  29
ENDBRANCH  20  22
ENDBRANCH  17  18
ENDBRANCH   4  17
TORSDOF 7
