REMARK  Name = ZINC20779632
REMARK  8 active torsions:
REMARK  status: ('A' for Active; 'I' for Inactive)
REMARK    1  A    between atoms: C_1  and  C_2
REMARK    2  A    between atoms: C_2  and  C_3
REMARK    3  A    between atoms: C_4  and  O_10
REMARK    4  A    between atoms: C_7  and  C_9
REMARK    5  A    between atoms: O_10  and  C_11
REMARK    6  A    between atoms: C_11  and  C_12
REMARK    7  A    between atoms: C_14  and  C_17
REMARK    8  A    between atoms: C_18  and  C_27
REMARK                            x       y       z     vdW  Elec       q    Type
REMARK                         _______ _______ _______ _____ _____    ______ ____
ROOT
ATOM      1  C   UNL     1       2.061   5.460   1.154  0.00  0.00    +0.265 A 
ATOM      2  N   UNL     1       1.922   6.310   0.167  0.00  0.00    -0.188 NA
ATOM      3  C   UNL     1       3.178   6.662  -0.188  0.00  0.00    +0.204 A 
ATOM      4  N   UNL     1       3.998   6.012   0.596  0.00  0.00    -0.056 NA
ATOM      5  O   UNL     1       3.372   5.322   1.373  0.00  0.00    -0.334 OA
ENDROOT
BRANCH   3   6
ATOM      6  C   UNL     1       3.556   7.610  -1.266  0.00  0.00    +0.047 A 
ATOM      7  C   UNL     1       2.576   8.234  -2.035  0.00  0.00    +0.049 A 
ATOM      8  N   UNL     1       2.913   9.080  -2.987  0.00  0.00    -0.259 NA
ATOM      9  C   UNL     1       4.173   9.359  -3.257  0.00  0.00    +0.113 A 
ATOM     10  C   UNL     1       5.206   8.773  -2.542  0.00  0.00    -0.043 A 
ATOM     11  C   UNL     1       4.901   7.886  -1.531  0.00  0.00    -0.034 A 
ATOM     12  C   UNL     1       5.969   7.218  -0.709  0.00  0.00    +0.017 C 
ATOM     13  C   UNL     1       7.320   7.337  -1.418  0.00  0.00    -0.077 C 
ATOM     14  N   UNL     1       7.529   8.743  -1.795  0.00  0.00    +0.382 N 
ATOM     15  C   UNL     1       6.628   9.118  -2.891  0.00  0.00    -0.045 C 
ATOM     16  C   UNL     1       1.121   7.944  -1.772  0.00  0.00    +0.066 C 
ATOM     17  H   UNL     1       7.326   9.390  -0.928  0.00  0.00    -0.085 HD
ATOM     18  H   UNL     1       8.569   8.885  -2.122  0.00  0.00    -0.085 HD
ENDBRANCH   3   6
BRANCH   1  19
ATOM     19  C   UNL     1       0.951   4.771   1.905  0.00  0.00    +0.327 C 
BRANCH  19  20
ATOM     20  O   UNL     1       0.635   3.535   1.260  0.00  0.00    -0.481 OA
BRANCH  20  22
ATOM     21  C   UNL     1      -0.718   1.572   1.248  0.00  0.00    +0.083 A 
ATOM     22  C   UNL     1      -0.353   2.784   1.815  0.00  0.00    +0.142 A 
ATOM     23  C   UNL     1      -1.015   3.223   2.957  0.00  0.00    +0.049 A 
ATOM     24  C   UNL     1      -2.012   2.420   3.489  0.00  0.00    +0.026 A 
ATOM     25  C   UNL     1      -2.316   1.223   2.870  0.00  0.00    +0.039 A 
ATOM     26  N   UNL     1      -1.672   0.838   1.786  0.00  0.00    -0.253 NA
ATOM     27  C   UNL     1      -3.398   0.344   3.443  0.00  0.00    +0.065 C 
BRANCH  21  29
ATOM     28  C   UNL     1      -0.753   1.593  -1.232  0.00  0.00    +0.010 C 
ATOM     29  C   UNL     1      -0.013   1.086   0.008  0.00  0.00    +0.056 C 
ENDBRANCH  21  29
ENDBRANCH  20  22
ENDBRANCH  19  20
ENDBRANCH   1  19
TORSDOF 5
