REMARK  Name = ZINC57522824
REMARK  5 active torsions:
REMARK  status: ('A' for Active; 'I' for Inactive)
REMARK    1  A    between atoms: C_4  and  C_7
REMARK    2  A    between atoms: C_7  and  C_8
REMARK    3  A    between atoms: N_11  and  C_14
REMARK    4  A    between atoms: C_14  and  C_15
REMARK    5  A    between atoms: N_20  and  C_21
REMARK                            x       y       z     vdW  Elec       q    Type
REMARK                         _______ _______ _______ _____ _____    ______ ____
ROOT
ATOM      1  C   UNL     1       5.474  -3.233   4.762  0.00  0.00    +0.019 C 
ENDROOT
BRANCH   1   2
ATOM      2  C   UNL     1       6.775  -3.988   4.668  0.00  0.00    +0.204 C 
ATOM      3  O   UNL     1       7.278  -4.197   3.585  0.00  0.00    -0.277 OA
ATOM      4  N   UNL     1       7.379  -4.431   5.788  0.00  0.00    -0.242 N 
ATOM      5  C   UNL     1       8.543  -5.106   5.704  0.00  0.00    +0.306 C 
ATOM      6  O   UNL     1       9.047  -5.315   4.619  0.00  0.00    -0.252 OA
ATOM      7  N   UNL     1       9.147  -5.549   6.825  0.00  0.00    -0.295 N 
ATOM      8  H   UNL     1       6.977  -4.264   6.655  0.00  0.00    +0.159 HD
ATOM      9  H   UNL     1       8.745  -5.382   7.691  0.00  0.00    +0.151 HD
BRANCH   7  10
ATOM     10  C   UNL     1      10.412  -6.283   6.733  0.00  0.00    +0.097 C 
ATOM     11  C   UNL     1      11.580  -5.284   6.687  0.00  0.00    +0.046 C 
ATOM     12  C   UNL     1      12.902  -6.074   6.907  0.00  0.00    +0.168 C 
ATOM     13  S   UNL     1      12.378  -7.246   8.228  0.00  0.00    -0.029 S 
ATOM     14  O   UNL     1      12.864  -8.544   7.914  0.00  0.00    -0.174 OA
ATOM     15  O   UNL     1      12.674  -6.676   9.496  0.00  0.00    -0.174 OA
ATOM     16  C   UNL     1      10.559  -7.208   7.965  0.00  0.00    +0.188 C 
ENDBRANCH   7  10
ENDBRANCH   1   2
BRANCH   1  20
ATOM     17  C   UNL     1       4.171  -0.963   1.399  0.00  0.00    -0.010 C 
ATOM     18  C   UNL     1       3.192  -1.919   2.088  0.00  0.00    -0.015 C 
ATOM     19  C   UNL     1       3.701  -2.233   3.496  0.00  0.00    -0.078 C 
ATOM     20  N   UNL     1       5.024  -2.862   3.413  0.00  0.00    +0.385 N 
ATOM     21  C   UNL     1       5.985  -1.925   2.819  0.00  0.00    -0.078 C 
ATOM     22  C   UNL     1       5.565  -1.599   1.385  0.00  0.00    -0.015 C 
ATOM     23  H   UNL     1       4.967  -3.691   2.841  0.00  0.00    -0.081 HD
BRANCH  17  24
ATOM     24  C   UNL     1       3.711  -0.707  -0.038  0.00  0.00    +0.038 C 
BRANCH  24  28
ATOM     25  C   UNL     1      -0.017   1.378   0.010  0.00  0.00    +0.000 A 
ATOM     26  C   UNL     1       1.171   2.086   0.002  0.00  0.00    +0.000 A 
ATOM     27  C   UNL     1       2.377   1.411  -0.013  0.00  0.00    +0.003 A 
ATOM     28  C   UNL     1       2.396   0.029  -0.020  0.00  0.00    -0.047 A 
ATOM     29  C   UNL     1       1.208  -0.679  -0.012  0.00  0.00    +0.003 A 
ATOM     30  C   UNL     1       0.002  -0.004   0.002  0.00  0.00    +0.000 A 
ENDBRANCH  24  28
ENDBRANCH  17  24
ENDBRANCH   1  20
TORSDOF 5
