REMARK  Name = ZINC05182639
REMARK  8 active torsions:
REMARK  status: ('A' for Active; 'I' for Inactive)
REMARK    1  A    between atoms: C_1  and  C_2
REMARK    2  A    between atoms: C_2  and  C_3
REMARK    3  A    between atoms: C_9  and  C_10
REMARK    4  A    between atoms: C_9  and  N_60
REMARK    5  A    between atoms: C_11  and  O_28
REMARK    6  A    between atoms: C_16  and  C_20
REMARK    7  A    between atoms: C_17  and  C_19
REMARK    8  A    between atoms: N_22  and  C_23
REMARK                            x       y       z     vdW  Elec       q    Type
REMARK                         _______ _______ _______ _____ _____    ______ ____
ROOT
ATOM      1  C   UNL     1       2.847   0.323  -2.424  0.00  0.00    -0.011 A 
ATOM      2  C   UNL     1       3.741  -0.447  -3.146  0.00  0.00    +0.119 A 
ATOM      3  C   UNL     1       4.830  -1.032  -2.509  0.00  0.00    +0.049 A 
ATOM      4  C   UNL     1       5.032  -0.852  -1.157  0.00  0.00    +0.050 A 
ATOM      5  C   UNL     1       4.144  -0.081  -0.418  0.00  0.00    +0.136 A 
ATOM      6  C   UNL     1       3.042   0.503  -1.059  0.00  0.00    +0.037 A 
ATOM      7  C   UNL     1       2.320   1.243  -0.005  0.00  0.00    +0.085 A 
ATOM      8  C   UNL     1       3.025   1.036   1.140  0.00  0.00    +0.115 A 
ATOM      9  O   UNL     1       4.087   0.262   0.886  0.00  0.00    -0.459 OA
ATOM     10  C   UNL     1       2.664   1.594   2.493  0.00  0.00    +0.087 C 
ENDROOT
BRANCH   7  11
ATOM     11  C   UNL     1       1.090   2.035  -0.159  0.00  0.00    +0.248 C 
ATOM     12  O   UNL     1       1.157   3.242  -0.299  0.00  0.00    -0.270 OA
ATOM     13  N   UNL     1      -0.111   1.424  -0.146  0.00  0.00    -0.308 N 
ATOM     14  H   UNL     1      -0.162   0.456  -0.113  0.00  0.00    +0.149 HD
BRANCH  13  15
ATOM     15  C   UNL     1      -1.339   2.222  -0.186  0.00  0.00    +0.073 C 
ATOM     16  C   UNL     1      -1.757   2.621   1.244  0.00  0.00    +0.022 C 
ATOM     17  C   UNL     1      -3.304   2.544   1.222  0.00  0.00    +0.002 C 
ATOM     18  C   UNL     1      -3.572   1.303   0.335  0.00  0.00    +0.002 C 
ATOM     19  C   UNL     1      -2.493   1.383  -0.764  0.00  0.00    +0.022 C 
ENDBRANCH  13  15
ENDBRANCH   7  11
BRANCH   2  20
ATOM     20  O   UNL     1       3.555  -0.633  -4.480  0.00  0.00    -0.507 OA
ATOM     21  H   UNL     1       3.017  -1.406  -4.698  0.00  0.00    +0.292 HD
ENDBRANCH   2  20
BRANCH   1  22
ATOM     22  C   UNL     1       1.665   0.957  -3.111  0.00  0.00    -0.038 C 
BRANCH  22  28
ATOM     23  C   UNL     1       0.996   2.745  -4.599  0.00  0.00    -0.068 C 
ATOM     24  C   UNL     1       1.522   3.884  -5.475  0.00  0.00    -0.015 C 
ATOM     25  C   UNL     1       2.197   4.934  -4.588  0.00  0.00    -0.003 C 
ATOM     26  C   UNL     1       3.322   4.269  -3.790  0.00  0.00    -0.019 C 
ATOM     27  C   UNL     1       2.743   3.119  -2.963  0.00  0.00    -0.078 C 
ATOM     28  N   UNL     1       2.130   2.132  -3.877  0.00  0.00    +0.384 N 
ATOM     29  H   UNL     1       2.834   1.828  -4.559  0.00  0.00    -0.081 HD
BRANCH  23  31
ATOM     30  C   UNL     1      -0.853   2.300  -6.220  0.00  0.00    +0.002 C 
ATOM     31  C   UNL     1       0.338   1.684  -5.484  0.00  0.00    -0.019 C 
ENDBRANCH  23  31
ENDBRANCH  22  28
ENDBRANCH   1  22
TORSDOF 6
