REMARK  Name = ZINC64137667
REMARK  10 active torsions:
REMARK  status: ('A' for Active; 'I' for Inactive)
REMARK    1  A    between atoms: C_1  and  C_2
REMARK    2  A    between atoms: C_2  and  O_3
REMARK    3  A    between atoms: O_3  and  C_4
REMARK    4  A    between atoms: C_4  and  C_6
REMARK    5  A    between atoms: C_12  and  C_14
REMARK    6  A    between atoms: C_14  and  C_16
REMARK    7  A    between atoms: C_14  and  S_17
REMARK    8  A    between atoms: S_17  and  C_18
REMARK    9  A    between atoms: C_22  and  C_27
REMARK   10  A    between atoms: N_23  and  C_24
REMARK                            x       y       z     vdW  Elec       q    Type
REMARK                         _______ _______ _______ _____ _____    ______ ____
ROOT
ATOM      1  C   UNL     1       5.431  -8.646   4.761  0.00  0.00    +0.238 C 
ATOM      2  N   UNL     1       5.138  -9.007   3.364  0.00  0.00    -0.237 N 
ATOM      3  N   UNL     1       3.886  -9.632   3.368  0.00  0.00    -0.169 NA
ATOM      4  C   UNL     1       3.391  -9.694   4.576  0.00  0.00    +0.147 C 
ATOM      5  N   UNL     1       4.257  -9.119   5.513  0.00  0.00    -0.282 N 
ATOM      6  H   UNL     1       5.702  -8.843   2.591  0.00  0.00    +0.171 HD
ENDROOT
BRANCH   4   7
ATOM      7  C   UNL     1       2.149 -10.265   4.894  0.00  0.00    +0.022 C 
ATOM      8  C   UNL     1       1.285 -10.940   4.030  0.00  0.00    +0.006 A 
ATOM      9  C   UNL     1       1.363 -11.253   2.656  0.00  0.00    +0.010 A 
ATOM     10  C   UNL     1       0.351 -11.937   2.063  0.00  0.00    +0.001 A 
ATOM     11  C   UNL     1      -0.775 -12.345   2.780  0.00  0.00    +0.002 A 
ATOM     12  C   UNL     1      -0.916 -12.079   4.102  0.00  0.00    +0.026 A 
ATOM     13  C   UNL     1       0.100 -11.368   4.791  0.00  0.00    +0.043 A 
ATOM     14  N   UNL     1       0.201 -10.992   6.051  0.00  0.00    -0.380 N 
ATOM     15  C   UNL     1       1.469 -10.283   6.245  0.00  0.00    +0.152 C 
ATOM     16  H   UNL     1      -0.459 -11.161   6.742  0.00  0.00    +0.160 HD
ENDBRANCH   4   7
BRANCH   5  17
ATOM     17  C   UNL     1       4.041  -9.008   6.958  0.00  0.00    +0.078 C 
ATOM     18  C   UNL     1       5.095  -8.257   7.775  0.00  0.00    +0.024 C 
ATOM     19  C   UNL     1       4.990  -9.780   7.876  0.00  0.00    +0.024 C 
ENDBRANCH   5  17
BRANCH   1  20
ATOM     20  S   UNL     1       5.610  -6.849   4.928  0.00  0.00    -0.106 S 
BRANCH  20  21
ATOM     21  C   UNL     1       4.042  -6.191   4.296  0.00  0.00    +0.133 C 
ATOM     22  C   UNL     1       3.918  -6.512   2.805  0.00  0.00    +0.029 C 
BRANCH  21  29
ATOM     23  C   UNL     1       0.525  -2.670   3.702  0.00  0.00    +0.101 C 
ATOM     24  C   UNL     1       1.895  -1.988   3.685  0.00  0.00    +0.033 C 
ATOM     25  C   UNL     1       2.779  -2.600   4.776  0.00  0.00    +0.108 C 
ATOM     26  N   UNL     1       2.827  -4.056   4.585  0.00  0.00    -0.301 N 
ATOM     27  C   UNL     1       1.563  -4.799   4.496  0.00  0.00    +0.108 C 
ATOM     28  C   UNL     1       0.693  -4.163   3.408  0.00  0.00    +0.033 C 
ATOM     29  C   UNL     1       4.009  -4.697   4.492  0.00  0.00    +0.228 C 
ATOM     30  O   UNL     1       5.046  -4.072   4.567  0.00  0.00    -0.274 OA
BRANCH  23  31
ATOM     31  C   UNL     1      -0.359  -2.048   2.652  0.00  0.00    +0.310 C 
ATOM     32  O   UNL     1      -0.809  -2.728   1.760  0.00  0.00    -0.251 OA
BRANCH  31  33
ATOM     33  O   UNL     1      -0.647  -0.738   2.707  0.00  0.00    -0.465 OA
BRANCH  33  35
ATOM     34  C   UNL     1      -1.705   1.282   1.908  0.00  0.00    +0.048 C 
ATOM     35  C   UNL     1      -1.491  -0.215   1.679  0.00  0.00    +0.229 C 
ENDBRANCH  33  35
ENDBRANCH  31  33
ENDBRANCH  23  31
ENDBRANCH  21  29
ENDBRANCH  20  21
ENDBRANCH   1  20
TORSDOF 8
