REMARK  Name = ZINC46288781
REMARK  5 active torsions:
REMARK  status: ('A' for Active; 'I' for Inactive)
REMARK    1  A    between atoms: C_1  and  N_2
REMARK    2  A    between atoms: N_2  and  C_3
REMARK    3  A    between atoms: C_5  and  C_10
REMARK    4  A    between atoms: C_10  and  N_11
REMARK    5  A    between atoms: C_17  and  C_20
REMARK                            x       y       z     vdW  Elec       q    Type
REMARK                         _______ _______ _______ _____ _____    ______ ____
ROOT
ATOM      1  N   UNL     1      -1.584  -2.898   0.527  0.00  0.00    -0.295 N 
ATOM      2  C   UNL     1      -1.917  -3.533   1.668  0.00  0.00    +0.302 C 
ATOM      3  O   UNL     1      -1.072  -4.141   2.295  0.00  0.00    -0.253 OA
ATOM      4  N   UNL     1      -3.188  -3.493   2.114  0.00  0.00    -0.286 N 
ATOM      5  C   UNL     1      -4.245  -2.863   1.310  0.00  0.00    +0.110 C 
ATOM      6  C   UNL     1      -5.391  -3.864   1.131  0.00  0.00    +0.032 C 
ATOM      7  C   UNL     1      -5.854  -4.354   2.505  0.00  0.00    +0.078 C 
ATOM      8  C   UNL     1      -4.698  -5.065   3.211  0.00  0.00    +0.032 C 
ATOM      9  C   UNL     1      -3.545  -4.083   3.411  0.00  0.00    +0.110 C 
ATOM     10  H   UNL     1      -2.271  -2.473  -0.011  0.00  0.00    +0.151 HD
ENDROOT
BRANCH   7  11
ATOM     11  C   UNL     1      -7.004  -5.313   2.334  0.00  0.00    +0.219 C 
ATOM     12  O   UNL     1      -7.036  -6.058   1.377  0.00  0.00    -0.275 OA
ATOM     13  N   UNL     1      -7.997  -5.343   3.245  0.00  0.00    -0.301 N 
ATOM     14  C   UNL     1      -8.142  -4.427   4.385  0.00  0.00    +0.108 C 
ATOM     15  C   UNL     1      -9.405  -4.857   5.161  0.00  0.00    +0.020 C 
ATOM     16  C   UNL     1      -9.584  -6.340   4.739  0.00  0.00    +0.020 C 
ATOM     17  C   UNL     1      -9.121  -6.297   3.258  0.00  0.00    +0.108 C 
ENDBRANCH   7  11
BRANCH   1  18
ATOM     18  C   UNL     1      -0.184  -2.849   0.098  0.00  0.00    +0.144 C 
BRANCH  18  23
ATOM     19  C   UNL     1      -1.508   0.264   0.582  0.00  0.00    +0.130 C 
ATOM     20  N   UNL     1      -0.190  -0.005   0.002  0.00  0.00    -0.323 N 
ATOM     21  C   UNL     1       1.020   0.452   0.689  0.00  0.00    +0.130 C 
ATOM     22  C   UNL     1      -0.088  -0.696  -1.200  0.00  0.00    +0.103 A 
ATOM     23  C   UNL     1      -0.081  -2.087  -1.198  0.00  0.00    +0.008 A 
ATOM     24  C   UNL     1       0.021  -2.761  -2.401  0.00  0.00    +0.010 A 
ATOM     25  C   UNL     1       0.114  -2.018  -3.571  0.00  0.00    +0.018 A 
ATOM     26  C   UNL     1       0.101  -0.640  -3.500  0.00  0.00    +0.084 A 
ATOM     27  N   UNL     1      -0.003  -0.023  -2.338  0.00  0.00    -0.349 N 
ATOM     28  H   UNL     1      -0.013   0.946  -2.316  0.00  0.00    +0.167 HD
ENDBRANCH  18  23
ENDBRANCH   1  18
TORSDOF 3
