REMARK  Name = ZINC26779408
REMARK  5 active torsions:
REMARK  status: ('A' for Active; 'I' for Inactive)
REMARK    1  A    between atoms: C_1  and  C_2
REMARK    2  A    between atoms: C_2  and  O_4
REMARK    3  A    between atoms: O_4  and  C_5
REMARK    4  A    between atoms: C_8  and  C_11
REMARK    5  A    between atoms: C_19  and  C_21
REMARK                            x       y       z     vdW  Elec       q    Type
REMARK                         _______ _______ _______ _____ _____    ______ ____
ROOT
ATOM      1  C   UNL     1      -2.565   1.490   0.020  0.00  0.00    +0.028 C 
ATOM      2  C   UNL     1      -1.313   1.978  -0.175  0.00  0.00    +0.082 A 
ATOM      3  C   UNL     1      -0.108   1.293  -0.665  0.00  0.00    +0.288 A 
ATOM      4  O   UNL     1      -0.132   0.115  -0.967  0.00  0.00    -0.265 OA
ATOM      5  N   UNL     1       1.018   2.013  -0.773  0.00  0.00    -0.169 N 
ATOM      6  C   UNL     1       0.994   3.333  -0.422  0.00  0.00    +0.200 A 
ATOM      7  S   UNL     1      -0.681   3.628   0.095  0.00  0.00    -0.044 S 
ATOM      8  N   UNL     1       2.175   3.856  -0.596  0.00  0.00    -0.200 NA
ATOM      9  C   UNL     1       3.011   2.915  -1.061  0.00  0.00    +0.184 A 
ATOM     10  N   UNL     1       2.360   1.785  -1.185  0.00  0.00    -0.141 NA
ENDROOT
BRANCH   9  11
ATOM     11  C   UNL     1       4.444   3.121  -1.383  0.00  0.00    +0.035 A 
ATOM     12  C   UNL     1       5.027   4.375  -1.209  0.00  0.00    +0.013 A 
ATOM     13  C   UNL     1       6.360   4.561  -1.510  0.00  0.00    +0.001 A 
ATOM     14  C   UNL     1       7.120   3.506  -1.985  0.00  0.00    +0.001 A 
ATOM     15  C   UNL     1       6.548   2.260  -2.160  0.00  0.00    +0.016 A 
ATOM     16  C   UNL     1       5.215   2.060  -1.856  0.00  0.00    +0.029 A 
ATOM     17 BR   UNL     1       4.436   0.352  -2.088  0.00  0.00    -0.050 Br
ENDBRANCH   9  11
BRANCH   1  21
ATOM     18  C   UNL     1      -3.292  -2.674  -0.317  0.00  0.00    +0.132 A 
ATOM     19  C   UNL     1      -4.194  -1.767  -0.862  0.00  0.00    +0.047 A 
ATOM     20  C   UNL     1      -3.963  -0.414  -0.756  0.00  0.00    +0.011 A 
ATOM     21  C   UNL     1      -2.817   0.048  -0.096  0.00  0.00    -0.024 A 
ATOM     22  C   UNL     1      -1.909  -0.870   0.446  0.00  0.00    +0.011 A 
ATOM     23  C   UNL     1      -2.153  -2.221   0.339  0.00  0.00    +0.047 A 
BRANCH  18  24
ATOM     24  O   UNL     1      -3.525  -4.007  -0.425  0.00  0.00    -0.426 OA
BRANCH  24  26
ATOM     25  C   UNL     1      -3.394  -6.069  -1.778  0.00  0.00    +0.136 C 
ATOM     26  C   UNL     1      -3.266  -4.577  -1.613  0.00  0.00    +0.309 C 
ATOM     27  O   UNL     1      -2.931  -3.892  -2.551  0.00  0.00    -0.251 OA
ENDBRANCH  24  26
ENDBRANCH  18  24
ENDBRANCH   1  21
TORSDOF 4
