REMARK  Name = ZINC40051603
REMARK  6 active torsions:
REMARK  status: ('A' for Active; 'I' for Inactive)
REMARK    1  A    between atoms: C_1  and  C_2
REMARK    2  A    between atoms: C_11  and  S_21
REMARK    3  A    between atoms: N_12  and  C_15
REMARK    4  A    between atoms: S_21  and  C_22
REMARK    5  A    between atoms: C_22  and  C_23
REMARK    6  A    between atoms: C_23  and  C_25
REMARK                            x       y       z     vdW  Elec       q    Type
REMARK                         _______ _______ _______ _____ _____    ______ ____
ROOT
ATOM      1  C   UNL     1       0.949   3.019   1.046  0.00  0.00    +0.007 C 
ATOM      2  C   UNL     1       0.535   1.628   0.565  0.00  0.00    -0.013 C 
ATOM      3  C   UNL     1       1.125   1.382  -0.821  0.00  0.00    +0.004 C 
ATOM      4  C   UNL     1       2.664   1.365  -0.767  0.00  0.00    +0.010 C 
ATOM      5  C   UNL     1       3.079   0.361   0.256  0.00  0.00    +0.040 C 
ATOM      6  C   UNL     1       4.392  -0.283   0.288  0.00  0.00    +0.053 A 
ATOM      7  C   UNL     1       4.663  -0.992   1.482  0.00  0.00    +0.109 A 
ATOM      8  N   UNL     1       5.775  -1.687   1.681  0.00  0.00    -0.216 NA
ATOM      9  C   UNL     1       6.693  -1.674   0.724  0.00  0.00    +0.178 A 
ATOM     10  N   UNL     1       6.520  -0.981  -0.435  0.00  0.00    -0.256 N 
ATOM     11  C   UNL     1       5.394  -0.285  -0.705  0.00  0.00    +0.264 A 
ATOM     12  O   UNL     1       5.251   0.314  -1.759  0.00  0.00    -0.267 OA
ATOM     13  S   UNL     1       3.286  -0.705   2.565  0.00  0.00    -0.101 S 
ATOM     14  C   UNL     1       2.545   0.716   1.663  0.00  0.00    +0.061 C 
ATOM     15  C   UNL     1       1.026   0.579   1.576  0.00  0.00    +0.018 C 
ENDROOT
BRANCH  10  16
ATOM     16  C   UNL     1       7.550  -0.989  -1.384  0.00  0.00    +0.052 A 
ATOM     17  C   UNL     1       7.577  -1.963  -2.374  0.00  0.00    +0.026 A 
ATOM     18  C   UNL     1       8.593  -1.969  -3.308  0.00  0.00    +0.002 A 
ATOM     19  C   UNL     1       9.585  -1.006  -3.259  0.00  0.00    +0.000 A 
ATOM     20  C   UNL     1       9.562  -0.035  -2.275  0.00  0.00    +0.002 A 
ATOM     21  C   UNL     1       8.544  -0.021  -1.341  0.00  0.00    +0.026 A 
ENDBRANCH  10  16
BRANCH   9  22
ATOM     22  S   UNL     1       8.184  -2.583   0.960  0.00  0.00    -0.079 S 
BRANCH  22  23
ATOM     23  C   UNL     1       7.987  -3.332   2.600  0.00  0.00    +0.156 C 
BRANCH  23  24
ATOM     24  C   UNL     1       9.210  -4.148   2.930  0.00  0.00    +0.172 C 
ATOM     25  O   UNL     1      10.126  -4.218   2.136  0.00  0.00    -0.291 OA
BRANCH  24  26
ATOM     26  C   UNL     1       9.291  -4.831   4.162  0.00  0.00    +0.024 C 
ATOM     27  C   UNL     1      10.337  -5.612   4.618  0.00  0.00    +0.006 A 
ATOM     28  C   UNL     1      11.585  -5.972   4.057  0.00  0.00    +0.010 A 
ATOM     29  C   UNL     1      12.435  -6.770   4.742  0.00  0.00    +0.001 A 
ATOM     30  C   UNL     1      12.133  -7.275   6.016  0.00  0.00    +0.002 A 
ATOM     31  C   UNL     1      10.969  -6.993   6.640  0.00  0.00    +0.026 A 
ATOM     32  C   UNL     1       9.987  -6.129   5.964  0.00  0.00    +0.043 A 
ATOM     33  N   UNL     1       8.810  -5.703   6.325  0.00  0.00    -0.380 N 
ATOM     34  C   UNL     1       8.255  -4.856   5.264  0.00  0.00    +0.152 C 
ATOM     35  H   UNL     1       8.371  -5.911   7.164  0.00  0.00    +0.160 HD
ENDBRANCH  24  26
ENDBRANCH  23  24
ENDBRANCH  22  23
ENDBRANCH   9  22
TORSDOF 5
