REMARK  Name = ZINC03947513
REMARK  7 active torsions:
REMARK  status: ('A' for Active; 'I' for Inactive)
REMARK    1  A    between atoms: C_1  and  O_2
REMARK    2  A    between atoms: O_2  and  C_3
REMARK    3  A    between atoms: C_8  and  O_9
REMARK    4  A    between atoms: O_9  and  C_10
REMARK    5  A    between atoms: C_27  and  C_30
REMARK    6  A    between atoms: C_30  and  C_32
REMARK    7  A    between atoms: C_32  and  O_33
REMARK                            x       y       z     vdW  Elec       q    Type
REMARK                         _______ _______ _______ _____ _____    ______ ____
ROOT
ATOM      1  C   UNL     1       7.573  -2.352   0.244  0.00  0.00    +0.162 A 
ATOM      2  C   UNL     1       6.384  -1.743  -0.119  0.00  0.00    +0.057 A 
ATOM      3  C   UNL     1       6.208  -0.384   0.071  0.00  0.00    +0.012 A 
ATOM      4  C   UNL     1       7.221   0.378   0.635  0.00  0.00    +0.128 A 
ATOM      5  C   UNL     1       8.417  -0.234   0.996  0.00  0.00    +0.095 A 
ATOM      6  C   UNL     1       8.596  -1.592   0.803  0.00  0.00    +0.165 A 
ATOM      7  O   UNL     1       7.086   1.711   0.863  0.00  0.00    -0.488 OA
ATOM      8  C   UNL     1       5.996   2.393   0.277  0.00  0.00    +0.274 C 
ATOM      9  C   UNL     1       4.732   1.557   0.466  0.00  0.00    +0.226 C 
ATOM     10  C   UNL     1       4.914   0.259  -0.338  0.00  0.00    +0.138 C 
ATOM     11  C   UNL     1       3.714  -0.611  -0.029  0.00  0.00    +0.178 C 
ATOM     12  O   UNL     1       3.811  -1.800   0.188  0.00  0.00    -0.291 OA
ATOM     13  C   UNL     1       2.416   0.094  -0.012  0.00  0.00    +0.060 A 
ATOM     14  C   UNL     1       1.221  -0.629  -0.008  0.00  0.00    +0.018 A 
ATOM     15  C   UNL     1       0.002  -0.004   0.002  0.00  0.00    +0.047 A 
ATOM     16  C   UNL     1      -0.017   1.398   0.010  0.00  0.00    +0.128 A 
ATOM     17  C   UNL     1       1.180   2.125   0.002  0.00  0.00    +0.040 A 
ATOM     18  C   UNL     1       2.412   1.506  -0.004  0.00  0.00    +0.138 A 
ATOM     19  O   UNL     1       3.562   2.221   0.002  0.00  0.00    -0.483 OA
ATOM     20  C   UNL     1       0.815   3.584  -0.006  0.00  0.00    +0.091 C 
ATOM     21  C   UNL     1      -0.687   3.535  -0.386  0.00  0.00    +0.206 C 
ATOM     22  O   UNL     1      -1.087   2.217   0.035  0.00  0.00    -0.484 OA
ENDROOT
BRANCH   1  24
ATOM     23  C   UNL     1       6.649  -4.405  -0.524  0.00  0.00    +0.277 C 
ATOM     24  O   UNL     1       7.741  -3.689   0.055  0.00  0.00    -0.491 OA
ENDBRANCH   1  24
BRANCH   6  25
ATOM     25  O   UNL     1       9.768  -2.182   1.158  0.00  0.00    -0.491 OA
ATOM     26  C   UNL     1      10.773  -1.340   1.726  0.00  0.00    +0.277 C 
ENDBRANCH   6  25
BRANCH  21  27
ATOM     27  C   UNL     1      -1.461   4.591   0.362  0.00  0.00    -0.011 C 
ATOM     28  C   UNL     1      -2.029   5.573  -0.292  0.00  0.00    +0.013 C 
BRANCH  27  29
ATOM     29  C   UNL     1      -1.580   4.515   1.862  0.00  0.00    +0.189 C 
BRANCH  29  30
ATOM     30  O   UNL     1      -2.354   5.620   2.335  0.00  0.00    -0.391 OA
ATOM     31  H   UNL     1      -2.473   5.635   3.294  0.00  0.00    +0.210 HD
ENDBRANCH  29  30
ENDBRANCH  27  29
ENDBRANCH  21  27
TORSDOF 5
