REMARK  Name = ZINC27331447
REMARK  9 active torsions:
REMARK  status: ('A' for Active; 'I' for Inactive)
REMARK    1  A    between atoms: C_1  and  C_2
REMARK    2  A    between atoms: C_4  and  C_14
REMARK    3  A    between atoms: C_6  and  S_9
REMARK    4  A    between atoms: C_7  and  C_8
REMARK    5  A    between atoms: S_9  and  N_12
REMARK    6  A    between atoms: N_12  and  C_13
REMARK    7  A    between atoms: N_16  and  N_17
REMARK    8  A    between atoms: C_18  and  C_20
REMARK    9  A    between atoms: C_27  and  C_30
REMARK                            x       y       z     vdW  Elec       q    Type
REMARK                         _______ _______ _______ _____ _____    ______ ____
ROOT
ATOM      1  C   UNL     1       1.282  -2.118  -0.444  0.00  0.00    +0.260 C 
ATOM      2  O   UNL     1       0.256  -2.737  -0.239  0.00  0.00    -0.269 OA
ATOM      3  N   UNL     1       2.420  -2.778  -0.735  0.00  0.00    -0.230 N 
ATOM      4  H   UNL     1       3.348  -2.218  -0.921  0.00  0.00    +0.173 HD
ENDROOT
BRANCH   1   8
ATOM      5  C   UNL     1       3.717   2.223  -0.798  0.00  0.00    +0.044 C 
ATOM      6  C   UNL     1       2.448   1.450  -0.544  0.00  0.00    -0.045 A 
ATOM      7  C   UNL     1       2.456   0.072  -0.610  0.00  0.00    +0.016 A 
ATOM      8  C   UNL     1       1.280  -0.641  -0.375  0.00  0.00    +0.040 A 
ATOM      9  C   UNL     1       0.103   0.045  -0.074  0.00  0.00    +0.042 A 
ATOM     10  C   UNL     1       0.108   1.423  -0.011  0.00  0.00    +0.109 A 
ATOM     11  C   UNL     1       1.278   2.125  -0.246  0.00  0.00    -0.021 A 
ATOM     12  C   UNL     1       1.277   3.630  -0.176  0.00  0.00    +0.046 C 
BRANCH  10  13
ATOM     13  S   UNL     1      -1.378   2.293   0.361  0.00  0.00    +0.058 S 
ATOM     14  O   UNL     1      -2.396   1.312   0.509  0.00  0.00    -0.153 OA
ATOM     15  O   UNL     1      -1.060   3.220   1.390  0.00  0.00    -0.153 OA
BRANCH  13  16
ATOM     16  N   UNL     1      -1.772   3.186  -0.976  0.00  0.00    -0.193 NA
ATOM     17  C   UNL     1      -2.110   2.513  -2.233  0.00  0.00    +0.127 C 
ATOM     18  H   UNL     1      -1.618   4.275  -0.960  0.00  0.00    +0.148 HD
ENDBRANCH  13  16
ENDBRANCH  10  13
ENDBRANCH   1   8
BRANCH   3  19
ATOM     19  N   UNL     1       2.421  -4.178  -0.800  0.00  0.00    -0.230 N 
ATOM     20  C   UNL     1       3.560  -4.838  -1.091  0.00  0.00    +0.267 C 
ATOM     21  O   UNL     1       4.587  -4.218  -1.297  0.00  0.00    -0.268 OA
ATOM     22  H   UNL     1       1.493  -4.738  -0.615  0.00  0.00    +0.173 HD
BRANCH  20  23
ATOM     23  C   UNL     1       3.561  -6.302  -1.160  0.00  0.00    +0.076 A 
ATOM     24  C   UNL     1       4.606  -7.161  -1.445  0.00  0.00    +0.024 A 
ATOM     25  C   UNL     1       4.353  -8.523  -1.446  0.00  0.00    -0.036 A 
ATOM     26  C   UNL     1       3.072  -8.910  -1.172  0.00  0.00    -0.006 A 
ATOM     27  S   UNL     1       2.211  -7.442  -0.906  0.00  0.00    -0.088 S 
ATOM     28  C   UNL     1       2.543 -10.310  -1.119  0.00  0.00    +0.043 C 
ATOM     29  C   UNL     1       3.569 -11.240  -1.782  0.00  0.00    +0.009 C 
ATOM     30  C   UNL     1       4.958 -10.922  -1.221  0.00  0.00    -0.009 C 
ATOM     31  C   UNL     1       5.430  -9.563  -1.739  0.00  0.00    +0.039 C 
ATOM     32  C   UNL     1       5.945 -12.005  -1.663  0.00  0.00    +0.008 C 
ENDBRANCH  20  23
ENDBRANCH   3  19
TORSDOF 5
