REMARK  Name = ZINC39978362
REMARK  5 active torsions:
REMARK  status: ('A' for Active; 'I' for Inactive)
REMARK    1  A    between atoms: C_7  and  C_10
REMARK    2  A    between atoms: C_11  and  C_12
REMARK    3  A    between atoms: C_11  and  C_14
REMARK    4  A    between atoms: N_16  and  C_17
REMARK    5  A    between atoms: C_21  and  C_24
REMARK                            x       y       z     vdW  Elec       q    Type
REMARK                         _______ _______ _______ _____ _____    ______ ____
ROOT
ATOM      1  C   UNL     1       0.211  -5.569  -0.031  0.00  0.00    +0.256 C 
ATOM      2  O   UNL     1      -0.989  -5.369  -0.019  0.00  0.00    -0.269 OA
ATOM      3  N   UNL     1       0.684  -6.831  -0.042  0.00  0.00    -0.286 N 
ATOM      4  H   UNL     1       1.641  -6.990  -0.052  0.00  0.00    +0.151 HD
ENDROOT
BRANCH   3   5
ATOM      5  C   UNL     1      -0.247  -7.962  -0.040  0.00  0.00    +0.217 C 
ATOM      6  N   UNL     1       0.465  -9.233   0.235  0.00  0.00    -0.226 NA
ATOM      7  N   UNL     1       0.527 -10.167  -0.870  0.00  0.00    -0.233 NA
ATOM      8  C   UNL     1      -0.685 -10.093  -1.742  0.00  0.00    +0.234 C 
ATOM      9  S   UNL     1      -0.926  -8.259  -1.728  0.00  0.00    -0.093 S 
ATOM     10  H   UNL     1       1.384  -9.058   0.613  0.00  0.00    +0.143 HD
ATOM     11  H   UNL     1       0.678 -11.108  -0.539  0.00  0.00    +0.142 HD
BRANCH   8  12
ATOM     12  C   UNL     1      -0.396 -10.613  -3.152  0.00  0.00    +0.415 C 
ATOM     13  F   UNL     1       0.018 -11.947  -3.081  0.00  0.00    -0.168 F 
ATOM     14  F   UNL     1      -1.556 -10.524  -3.929  0.00  0.00    -0.168 F 
ATOM     15  F   UNL     1       0.616  -9.842  -3.735  0.00  0.00    -0.168 F 
ENDBRANCH   8  12
ENDBRANCH   3   5
BRANCH   1  17
ATOM     16  C   UNL     1       0.661  -3.133  -0.022  0.00  0.00    +0.030 C 
ATOM     17  C   UNL     1       1.148  -4.431  -0.033  0.00  0.00    +0.114 C 
BRANCH  16  24
ATOM     18  C   UNL     1      -0.016   1.350   0.009  0.00  0.00    +0.001 A 
ATOM     19  C   UNL     1       1.157   2.116   0.002  0.00  0.00    +0.002 A 
ATOM     20  C   UNL     1       2.383   1.546  -0.012  0.00  0.00    +0.026 A 
ATOM     21  C   UNL     1       2.489   0.080  -0.021  0.00  0.00    +0.043 A 
ATOM     22  N   UNL     1       3.523  -0.719  -0.035  0.00  0.00    -0.380 N 
ATOM     23  C   UNL     1       3.062  -2.111  -0.039  0.00  0.00    +0.149 C 
ATOM     24  C   UNL     1       1.551  -2.052  -0.024  0.00  0.00    -0.018 C 
ATOM     25  C   UNL     1       1.231  -0.699  -0.013  0.00  0.00    +0.003 A 
ATOM     26  C   UNL     1       0.002  -0.004   0.002  0.00  0.00    +0.010 A 
ATOM     27  H   UNL     1       4.450  -0.435  -0.043  0.00  0.00    +0.160 HD
ENDBRANCH  16  24
BRANCH  17  28
ATOM     28  C   UNL     1       2.560  -4.666  -0.048  0.00  0.00    +0.104 C 
ATOM     29  N   UNL     1       3.681  -4.853  -0.059  0.00  0.00    -0.191 NA
ENDBRANCH  17  28
ENDBRANCH   1  17
TORSDOF 5
