REMARK  Name = ZINC01171698
REMARK  6 active torsions:
REMARK  status: ('A' for Active; 'I' for Inactive)
REMARK    1  A    between atoms: C_1  and  C_2
REMARK    2  A    between atoms: N_7  and  C_8
REMARK    3  A    between atoms: C_8  and  C_10
REMARK    4  A    between atoms: C_8  and  C_19
REMARK    5  A    between atoms: C_15  and  N_16
REMARK    6  A    between atoms: C_28  and  O_29
REMARK                            x       y       z     vdW  Elec       q    Type
REMARK                         _______ _______ _______ _____ _____    ______ ____
ROOT
ATOM      1  C   UNL     1      -1.430   2.144   0.045  0.00  0.00    +0.138 C 
ENDROOT
BRANCH   1   8
ATOM      2  C   UNL     1      -5.851   4.516  -1.000  0.00  0.00    +0.044 C 
ATOM      3  C   UNL     1      -5.385   3.083  -0.996  0.00  0.00    -0.046 A 
ATOM      4  C   UNL     1      -6.253   2.054  -1.335  0.00  0.00    +0.021 A 
ATOM      5  C   UNL     1      -5.795   0.752  -1.322  0.00  0.00    +0.084 A 
ATOM      6  C   UNL     1      -3.689   1.430  -0.662  0.00  0.00    +0.097 A 
ATOM      7  C   UNL     1      -4.083   2.764  -0.654  0.00  0.00    +0.045 A 
ATOM      8  N   UNL     1      -2.384   1.095  -0.320  0.00  0.00    -0.319 N 
ATOM      9  H   UNL     1      -2.105   0.166  -0.324  0.00  0.00    +0.148 HD
ATOM     10  N   UNL     1      -4.521   0.402  -0.997  0.00  0.00    -0.350 N 
ATOM     11  H   UNL     1      -4.205  -0.576  -1.004  0.00  0.00    +0.166 HD
ENDBRANCH   1   8
BRANCH   1  12
ATOM     12  C   UNL     1      -0.025   1.631  -0.136  0.00  0.00    +0.021 A 
ATOM     13  C   UNL     1       0.716   1.252   0.980  0.00  0.00    +0.010 A 
ATOM     14  C   UNL     1       1.986   0.779   0.850  0.00  0.00    +0.010 A 
ATOM     15  C   UNL     1       2.561   0.671  -0.427  0.00  0.00    +0.004 A 
ATOM     16  C   UNL     1       3.872   0.188  -0.602  0.00  0.00    +0.011 A 
ATOM     17  C   UNL     1       4.366   0.109  -1.873  0.00  0.00    +0.020 A 
ATOM     18  C   UNL     1       3.576   0.504  -2.951  0.00  0.00    +0.111 A 
ATOM     19  N   UNL     1       2.357   0.954  -2.784  0.00  0.00    -0.251 NA
ATOM     20  C   UNL     1       1.814   1.055  -1.567  0.00  0.00    +0.113 A 
ATOM     21  C   UNL     1       0.500   1.541  -1.393  0.00  0.00    +0.148 A 
BRANCH  21  22
ATOM     22  O   UNL     1      -0.237   1.915  -2.471  0.00  0.00    -0.504 OA
ATOM     23  H   UNL     1      -0.080   2.825  -2.758  0.00  0.00    +0.292 HD
ENDBRANCH  21  22
ENDBRANCH   1  12
BRANCH   1  24
ATOM     24  C   UNL     1      -1.641   2.535   1.486  0.00  0.00    +0.007 A 
ATOM     25  C   UNL     1      -2.329   1.690   2.337  0.00  0.00    +0.008 A 
ATOM     26  C   UNL     1      -2.518   2.046   3.659  0.00  0.00    +0.000 A 
ATOM     27  C   UNL     1      -2.026   3.251   4.128  0.00  0.00    +0.002 A 
ATOM     28  C   UNL     1      -1.343   4.097   3.276  0.00  0.00    +0.033 A 
ATOM     29  C   UNL     1      -1.150   3.739   1.954  0.00  0.00    +0.131 A 
BRANCH  29  30
ATOM     30  N   UNL     1      -0.418   4.645   1.041  0.00  0.00    +0.057 N 
ATOM     31  O   UNL     1       0.064   5.680   1.467  0.00  0.00    -0.126 OA
ATOM     32  O   UNL     1      -0.296   4.356  -0.136  0.00  0.00    -0.126 OA
ENDBRANCH  29  30
ENDBRANCH   1  24
TORSDOF 5
