REMARK  Name = ZINC01700086
REMARK  8 active torsions:
REMARK  status: ('A' for Active; 'I' for Inactive)
REMARK    1  A    between atoms: C_1  and  C_2
REMARK    2  A    between atoms: C_2  and  C_3
REMARK    3  A    between atoms: C_2  and  C_4
REMARK    4  A    between atoms: C_2  and  C_5
REMARK    5  A    between atoms: C_8  and  N_12
REMARK    6  A    between atoms: N_12  and  S_13
REMARK    7  A    between atoms: S_13  and  C_16
REMARK    8  A    between atoms: C_19  and  N_22
REMARK                            x       y       z     vdW  Elec       q    Type
REMARK                         _______ _______ _______ _____ _____    ______ ____
ROOT
ATOM      1  N   UNL     1       0.560   1.546  -0.449  0.00  0.00    -0.216 N 
ATOM      2  H   UNL     1      -0.319   1.919  -0.278  0.00  0.00    +0.174 HD
ENDROOT
BRANCH   1   6
ATOM      3  C   UNL     1       3.916   4.011  -0.406  0.00  0.00    -0.028 A 
ATOM      4  C   UNL     1       3.947   2.791   0.244  0.00  0.00    +0.007 A 
ATOM      5  C   UNL     1       2.834   1.974   0.236  0.00  0.00    +0.025 A 
ATOM      6  C   UNL     1       1.685   2.373  -0.435  0.00  0.00    +0.049 A 
ATOM      7  C   UNL     1       1.656   3.599  -1.087  0.00  0.00    +0.040 A 
ATOM      8  C   UNL     1       2.771   4.415  -1.071  0.00  0.00    +0.023 A 
ATOM      9 BR   UNL     1       2.733   6.084  -1.959  0.00  0.00    -0.050 Br
BRANCH   3  11
ATOM     10  C   UNL     1       6.253   4.222   0.394  0.00  0.00    +0.015 C 
ATOM     11  C   UNL     1       5.130   4.903  -0.391  0.00  0.00    -0.012 C 
ATOM     12  C   UNL     1       5.594   5.158  -1.827  0.00  0.00    +0.015 C 
ATOM     13  C   UNL     1       4.778   6.234   0.275  0.00  0.00    +0.015 C 
ENDBRANCH   3  11
ENDBRANCH   1   6
BRANCH   1  14
ATOM     14  S   UNL     1       0.725  -0.071  -0.764  0.00  0.00    +0.072 S 
ATOM     15  O   UNL     1       1.736  -0.555   0.110  0.00  0.00    -0.150 OA
ATOM     16  O   UNL     1      -0.588  -0.617  -0.786  0.00  0.00    -0.150 OA
BRANCH  14  17
ATOM     17  C   UNL     1       1.360  -0.221  -2.401  0.00  0.00    +0.109 A 
ATOM     18  C   UNL     1       0.496  -0.204  -3.481  0.00  0.00    +0.030 A 
ATOM     19  C   UNL     1       0.992  -0.315  -4.765  0.00  0.00    +0.024 A 
ATOM     20  C   UNL     1       2.358  -0.456  -4.971  0.00  0.00    +0.025 A 
ATOM     21  C   UNL     1       3.222  -0.479  -3.884  0.00  0.00    +0.024 A 
ATOM     22  C   UNL     1       2.721  -0.362  -2.602  0.00  0.00    +0.030 A 
BRANCH  20  23
ATOM     23  N   UNL     1       2.862  -0.575  -6.268  0.00  0.00    -0.358 N 
ATOM     24  H   UNL     1       3.816  -0.673  -6.411  0.00  0.00    +0.142 HD
ATOM     25  H   UNL     1       2.257  -0.558  -7.027  0.00  0.00    +0.142 HD
ENDBRANCH  20  23
ENDBRANCH  14  17
ENDBRANCH   1  14
TORSDOF 5
