REMARK  Name = ZINC13230742
REMARK  7 active torsions:
REMARK  status: ('A' for Active; 'I' for Inactive)
REMARK    1  A    between atoms: C_1  and  C_2
REMARK    2  A    between atoms: C_2  and  C_3
REMARK    3  A    between atoms: C_3  and  N_4
REMARK    4  A    between atoms: N_12  and  C_27
REMARK    5  A    between atoms: N_16  and  N_17
REMARK    6  A    between atoms: C_18  and  C_19
REMARK    7  A    between atoms: C_20  and  C_21
REMARK                            x       y       z     vdW  Elec       q    Type
REMARK                         _______ _______ _______ _____ _____    ______ ____
ROOT
ATOM      1  N   UNL     1       0.738  -1.962  -1.265  0.00  0.00    -0.305 N 
ATOM      2  C   UNL     1       1.716  -2.780  -0.717  0.00  0.00    +0.153 A 
ATOM      3  C   UNL     1       2.920  -2.549  -0.027  0.00  0.00    +0.280 A 
ATOM      4  O   UNL     1       3.290  -1.410   0.200  0.00  0.00    -0.265 OA
ATOM      5  N   UNL     1       3.659  -3.600   0.381  0.00  0.00    -0.273 N 
ATOM      6  H   UNL     1       4.490  -3.444   0.857  0.00  0.00    +0.173 HD
ATOM      7  C   UNL     1       3.263  -4.862   0.139  0.00  0.00    +0.331 A 
ATOM      8  O   UNL     1       3.955  -5.785   0.522  0.00  0.00    -0.246 OA
ATOM      9  N   UNL     1       2.118  -5.128  -0.517  0.00  0.00    -0.280 N 
ATOM     10  C   UNL     1       1.315  -4.089  -0.963  0.00  0.00    +0.170 A 
ATOM     11  N   UNL     1       0.158  -4.039  -1.623  0.00  0.00    -0.195 NA
ATOM     12  C   UNL     1      -0.202  -2.784  -1.806  0.00  0.00    +0.218 A 
ATOM     13  N   UNL     1      -1.347  -2.369  -2.447  0.00  0.00    -0.206 N 
ATOM     14  C   UNL     1       1.720  -6.516  -0.762  0.00  0.00    +0.155 C 
ATOM     15  H   UNL     1      -1.534  -1.423  -2.541  0.00  0.00    +0.177 HD
ENDROOT
BRANCH  13  16
ATOM     16  N   UNL     1      -2.241  -3.316  -2.964  0.00  0.00    -0.188 NA
ATOM     17  C   UNL     1      -3.325  -2.923  -3.571  0.00  0.00    +0.130 C 
BRANCH  17  18
ATOM     18  C   UNL     1      -4.231  -3.880  -4.094  0.00  0.00    +0.022 C 
ATOM     19  C   UNL     1      -5.353  -3.474  -4.722  0.00  0.00    +0.009 C 
BRANCH  19  20
ATOM     20  C   UNL     1      -6.293  -4.468  -5.266  0.00  0.00    -0.025 A 
ATOM     21  C   UNL     1      -6.029  -5.834  -5.127  0.00  0.00    +0.008 A 
ATOM     22  C   UNL     1      -6.915  -6.759  -5.639  0.00  0.00    +0.001 A 
ATOM     23  C   UNL     1      -8.062  -6.338  -6.288  0.00  0.00    +0.000 A 
ATOM     24  C   UNL     1      -8.331  -4.988  -6.429  0.00  0.00    +0.001 A 
ATOM     25  C   UNL     1      -7.458  -4.051  -5.918  0.00  0.00    +0.008 A 
ENDBRANCH  19  20
ENDBRANCH  17  18
ENDBRANCH  13  16
BRANCH   1  26
ATOM     26  C   UNL     1       0.718  -0.497  -1.257  0.00  0.00    +0.125 C 
BRANCH  26  28
ATOM     27  C   UNL     1      -0.019   1.526   0.010  0.00  0.00    +0.005 C 
ATOM     28  C   UNL     1       0.002  -0.004   0.002  0.00  0.00    +0.018 C 
ENDBRANCH  26  28
ENDBRANCH   1  26
TORSDOF 5
