REMARK  Name = ZINC36249943
REMARK  15 active torsions:
REMARK  status: ('A' for Active; 'I' for Inactive)
REMARK    1  A    between atoms: C_1  and  O_2
REMARK    2  A    between atoms: O_2  and  C_3
REMARK    3  A    between atoms: C_3  and  C_4
REMARK    4  A    between atoms: C_4  and  N_5
REMARK    5  A    between atoms: N_5  and  C_6
REMARK    6  A    between atoms: N_5  and  C_24
REMARK    7  A    between atoms: C_6  and  C_7
REMARK    8  A    between atoms: C_8  and  C_18
REMARK    9  A    between atoms: C_11  and  N_12
REMARK   10  A    between atoms: C_24  and  C_25
REMARK   11  A    between atoms: C_25  and  C_27
REMARK   12  A    between atoms: C_25  and  O_32
REMARK   13  A    between atoms: C_27  and  O_28
REMARK   14  A    between atoms: O_28  and  C_29
REMARK   15  A    between atoms: C_29  and  C_30
REMARK                            x       y       z     vdW  Elec       q    Type
REMARK                         _______ _______ _______ _____ _____    ______ ____
ROOT
ATOM      1  C   UNL     1      -0.637  -3.185  -1.241  0.00  0.00    +0.025 A 
ATOM      2  C   UNL     1      -1.765  -3.405  -0.423  0.00  0.00    +0.117 A 
ATOM      3  N   UNL     1      -2.821  -3.469  -1.200  0.00  0.00    -0.076 NA
ATOM      4  O   UNL     1      -2.393  -3.289  -2.537  0.00  0.00    -0.339 OA
ATOM      5  C   UNL     1      -1.060  -3.114  -2.528  0.00  0.00    +0.222 A 
ENDROOT
BRANCH   5   6
ATOM      6  N   UNL     1      -0.261  -2.902  -3.636  0.00  0.00    -0.298 N 
ATOM      7  C   UNL     1       0.240  -4.048  -4.397  0.00  0.00    +0.118 C 
ATOM      8  C   UNL     1      -0.380  -4.041  -5.799  0.00  0.00    +0.088 C 
ATOM      9  S   UNL     1       0.015  -2.457  -6.601  0.00  0.00    -0.158 S 
ATOM     10  C   UNL     1      -0.565  -1.227  -5.394  0.00  0.00    +0.088 C 
ATOM     11  C   UNL     1       0.069  -1.534  -4.038  0.00  0.00    +0.118 C 
ENDBRANCH   5   6
BRANCH   2  12
ATOM     12  C   UNL     1      -1.758  -3.542   1.055  0.00  0.00    +0.004 A 
ATOM     13  C   UNL     1      -0.782  -4.313   1.682  0.00  0.00    +0.010 A 
ATOM     14  C   UNL     1      -0.780  -4.436   3.057  0.00  0.00    +0.001 A 
ATOM     15  C   UNL     1      -1.745  -3.795   3.812  0.00  0.00    +0.000 A 
ATOM     16  C   UNL     1      -2.717  -3.028   3.195  0.00  0.00    +0.001 A 
ATOM     17  C   UNL     1      -2.725  -2.894   1.821  0.00  0.00    +0.010 A 
ENDBRANCH   2  12
BRANCH   1  18
ATOM     18  C   UNL     1       0.787  -3.046  -0.768  0.00  0.00    -0.035 C 
BRANCH  18  19
ATOM     19  N   UNL     1       1.124  -1.621  -0.639  0.00  0.00    +0.386 N 
ATOM     20  H   UNL     1       0.982  -1.161  -1.526  0.00  0.00    -0.081 HD
BRANCH  19  21
ATOM     21  C   UNL     1       0.260  -1.004   0.376  0.00  0.00    -0.050 C 
BRANCH  21  22
ATOM     22  C   UNL     1       0.502   0.507   0.401  0.00  0.00    +0.141 C 
BRANCH  22  24
ATOM     23  C   UNL     1       0.299   2.486  -0.936  0.00  0.00    +0.193 C 
ATOM     24  O   UNL     1       0.113   1.072  -0.853  0.00  0.00    -0.385 OA
ENDBRANCH  22  24
ENDBRANCH  21  22
ENDBRANCH  19  21
BRANCH  19  25
ATOM     25  C   UNL     1       2.529  -1.484  -0.236  0.00  0.00    -0.044 C 
BRANCH  25  26
ATOM     26  C   UNL     1       3.435  -1.970  -1.369  0.00  0.00    +0.124 C 
BRANCH  26  27
ATOM     27  O   UNL     1       3.294  -3.384  -1.519  0.00  0.00    -0.391 OA
ATOM     28  H   UNL     1       3.530  -3.889  -0.729  0.00  0.00    +0.210 HD
ENDBRANCH  26  27
BRANCH  26  29
ATOM     29  C   UNL     1       4.891  -1.635  -1.038  0.00  0.00    +0.190 C 
BRANCH  29  30
ATOM     30  O   UNL     1       5.724  -1.984  -2.146  0.00  0.00    -0.365 OA
BRANCH  30  31
ATOM     31  C   UNL     1       7.111  -1.710  -1.938  0.00  0.00    +0.248 C 
BRANCH  31  32
ATOM     32  C   UNL     1       7.873  -2.104  -3.135  0.00  0.00    -0.077 C 
ATOM     33  C   UNL     1       8.480  -2.418  -4.089  0.00  0.00    +0.006 C 
ENDBRANCH  31  32
ENDBRANCH  30  31
ENDBRANCH  29  30
ENDBRANCH  26  29
ENDBRANCH  25  26
ENDBRANCH  19  25
ENDBRANCH  18  19
ENDBRANCH   1  18
TORSDOF 14
