REMARK  Name = ZINC61882080
REMARK  7 active torsions:
REMARK  status: ('A' for Active; 'I' for Inactive)
REMARK    1  A    between atoms: C_1  and  C_2
REMARK    2  A    between atoms: C_5  and  C_7
REMARK    3  A    between atoms: C_7  and  N_8
REMARK    4  A    between atoms: N_8  and  C_9
REMARK    5  A    between atoms: N_8  and  S_10
REMARK    6  A    between atoms: S_10  and  C_13
REMARK    7  A    between atoms: C_17  and  N_20
REMARK                            x       y       z     vdW  Elec       q    Type
REMARK                         _______ _______ _______ _____ _____    ______ ____
ROOT
ATOM      1  S   UNL     1       2.099  -5.244  -0.376  0.00  0.00    +0.062 S 
ATOM      2  O   UNL     1       1.414  -4.697  -1.494  0.00  0.00    -0.153 OA
ATOM      3  O   UNL     1       3.514  -5.195  -0.250  0.00  0.00    -0.153 OA
ENDROOT
BRANCH   1   4
ATOM      4  C   UNL     1       1.644  -6.944  -0.289  0.00  0.00    +0.123 A 
ATOM      5  C   UNL     1       0.739  -7.464  -1.196  0.00  0.00    +0.049 A 
ATOM      6  C   UNL     1       0.380  -8.799  -1.132  0.00  0.00    +0.045 A 
ATOM      7  C   UNL     1       0.925  -9.617  -0.159  0.00  0.00    +0.044 A 
ATOM      8  C   UNL     1       1.833  -9.097   0.753  0.00  0.00    +0.042 A 
ATOM      9  C   UNL     1       2.196  -7.757   0.682  0.00  0.00    +0.065 A 
ATOM     10 BR   UNL     1       3.439  -7.047   1.917  0.00  0.00    -0.046 Br
ATOM     11 CL   UNL     1      -0.757  -9.447  -2.273  0.00  0.00    -0.083 Cl
BRANCH   8  12
ATOM     12  N   UNL     1       2.386  -9.921   1.737  0.00  0.00    -0.357 N 
ATOM     13  H   UNL     1       2.134 -10.857   1.784  0.00  0.00    +0.142 HD
ATOM     14  H   UNL     1       3.020  -9.557   2.374  0.00  0.00    +0.142 HD
ENDBRANCH   8  12
ENDBRANCH   1   4
BRANCH   1  15
ATOM     15  N   UNL     1       1.478  -4.502   0.969  0.00  0.00    -0.175 NA
ATOM     16  C   UNL     1       2.326  -4.289   2.144  0.00  0.00    +0.132 C 
BRANCH  15  17
ATOM     17  C   UNL     1       0.082  -4.058   0.982  0.00  0.00    +0.153 C 
BRANCH  17  22
ATOM     18  C   UNL     1      -0.155   1.510   0.616  0.00  0.00    +0.073 C 
ATOM     19  C   UNL     1      -0.095   0.012   0.465  0.00  0.00    +0.075 A 
ATOM     20  N   UNL     1      -0.085  -0.695  -0.637  0.00  0.00    -0.252 NA
ATOM     21  C   UNL     1      -0.030  -2.011  -0.608  0.00  0.00    +0.123 A 
ATOM     22  C   UNL     1       0.016  -2.598   0.616  0.00  0.00    +0.025 A 
ATOM     23  S   UNL     1      -0.018  -1.158   1.672  0.00  0.00    -0.076 S 
ENDBRANCH  17  22
ENDBRANCH  15  17
ENDBRANCH   1  15
TORSDOF 5
