REMARK  Name = ZINC16844466
REMARK  10 active torsions:
REMARK  status: ('A' for Active; 'I' for Inactive)
REMARK    1  A    between atoms: C_1  and  C_2
REMARK    2  A    between atoms: C_2  and  O_3
REMARK    3  A    between atoms: O_3  and  C_4
REMARK    4  A    between atoms: C_4  and  C_6
REMARK    5  A    between atoms: C_10  and  N_11
REMARK    6  A    between atoms: C_12  and  C_14
REMARK    7  A    between atoms: C_14  and  C_15
REMARK    8  A    between atoms: N_19  and  C_24
REMARK    9  A    between atoms: N_21  and  C_22
REMARK   10  A    between atoms: C_26  and  C_30
REMARK                            x       y       z     vdW  Elec       q    Type
REMARK                         _______ _______ _______ _____ _____    ______ ____
ROOT
ATOM      1  C   UNL     1      -3.550  -2.439   0.081  0.00  0.00    +0.091 A 
ATOM      2  C   UNL     1      -4.235  -2.827  -1.140  0.00  0.00    -0.021 A 
ATOM      3  C   UNL     1      -5.394  -3.488  -0.936  0.00  0.00    -0.004 A 
ATOM      4  S   UNL     1      -5.555  -3.583   0.823  0.00  0.00    -0.077 S 
ATOM      5  C   UNL     1      -4.149  -2.788   1.282  0.00  0.00    +0.086 A 
ATOM      6  C   UNL     1      -6.324  -4.018  -1.984  0.00  0.00    +0.046 C 
ATOM      7  C   UNL     1      -5.580  -4.031  -3.328  0.00  0.00    -0.009 C 
ATOM      8  C   UNL     1      -4.893  -2.676  -3.526  0.00  0.00    +0.008 C 
ATOM      9  C   UNL     1      -3.727  -2.535  -2.544  0.00  0.00    +0.037 C 
ATOM     10  C   UNL     1      -6.575  -4.274  -4.463  0.00  0.00    +0.008 C 
ENDROOT
BRANCH   5  11
ATOM     11  N   UNL     1      -3.692  -2.538   2.567  0.00  0.00    -0.279 N 
ATOM     12  C   UNL     1      -4.409  -2.954   3.630  0.00  0.00    +0.219 C 
ATOM     13  O   UNL     1      -5.454  -3.547   3.462  0.00  0.00    -0.275 OA
ATOM     14  H   UNL     1      -2.857  -2.064   2.701  0.00  0.00    +0.155 HD
BRANCH  12  15
ATOM     15  C   UNL     1      -3.913  -2.682   5.026  0.00  0.00    +0.120 C 
BRANCH  15  16
ATOM     16  C   UNL     1      -4.905  -3.253   6.041  0.00  0.00    +0.149 C 
ATOM     17  C   UNL     1      -4.457  -2.975   7.466  0.00  0.00    +0.235 C 
ATOM     18  O   UNL     1      -4.340  -1.847   7.896  0.00  0.00    -0.274 OA
ATOM     19  N   UNL     1      -4.203  -4.039   8.209  0.00  0.00    -0.253 N 
ATOM     20  C   UNL     1      -4.335  -5.327   7.726  0.00  0.00    +0.158 C 
ATOM     21  N   UNL     1      -4.117  -6.447   8.353  0.00  0.00    -0.266 NA
ATOM     22  C   UNL     1      -3.817  -6.438   9.788  0.00  0.00    +0.173 C 
ATOM     23  S   UNL     1      -4.875  -5.094   6.038  0.00  0.00    -0.077 S 
ATOM     24  C   UNL     1      -3.767  -3.846   9.594  0.00  0.00    +0.140 C 
ENDBRANCH  15  16
ENDBRANCH  12  15
ENDBRANCH   5  11
BRANCH   1  25
ATOM     25  C   UNL     1      -2.277  -1.715   0.045  0.00  0.00    +0.342 C 
ATOM     26  O   UNL     1      -1.228  -2.330   0.024  0.00  0.00    -0.245 OA
BRANCH  25  27
ATOM     27  O   UNL     1      -2.269  -0.366   0.035  0.00  0.00    -0.461 OA
BRANCH  27  29
ATOM     28  C   UNL     1      -1.183   1.792  -0.007  0.00  0.00    +0.048 C 
ATOM     29  C   UNL     1      -0.992   0.275  -0.001  0.00  0.00    +0.229 C 
ENDBRANCH  27  29
ENDBRANCH  25  27
ENDBRANCH   1  25
TORSDOF 6
