REMARK  Name = ZINC00930563
REMARK  8 active torsions:
REMARK  status: ('A' for Active; 'I' for Inactive)
REMARK    1  A    between atoms: C_1  and  C_2
REMARK    2  A    between atoms: C_5  and  N_28
REMARK    3  A    between atoms: C_7  and  N_8
REMARK    4  A    between atoms: C_9  and  C_11
REMARK    5  A    between atoms: C_11  and  C_13
REMARK    6  A    between atoms: C_11  and  S_14
REMARK    7  A    between atoms: S_14  and  C_15
REMARK    8  A    between atoms: N_26  and  C_27
REMARK                            x       y       z     vdW  Elec       q    Type
REMARK                         _______ _______ _______ _____ _____    ______ ____
ROOT
ATOM      1  C   UNL     1      -0.168   0.061   4.882  0.00  0.00    +0.137 C 
ATOM      2  C   UNL     1       1.217   0.551   5.309  0.00  0.00    +0.029 C 
ENDROOT
BRANCH   1   4
ATOM      3  N   UNL     1       0.025  -0.011   2.417  0.00  0.00    -0.284 N 
ATOM      4  C   UNL     1      -0.056  -0.689   3.579  0.00  0.00    +0.230 C 
ATOM      5  O   UNL     1      -0.039  -1.901   3.577  0.00  0.00    -0.274 OA
ATOM      6  H   UNL     1       0.078   0.957   2.423  0.00  0.00    +0.155 HD
BRANCH   3  13
ATOM      7  C   UNL     1      -1.265   1.183   0.182  0.00  0.00    +0.045 C 
ATOM      8  C   UNL     1      -0.585  -0.159   0.085  0.00  0.00    -0.029 A 
ATOM      9  C   UNL     1      -0.572  -0.840  -1.117  0.00  0.00    +0.007 A 
ATOM     10  C   UNL     1       0.051  -2.070  -1.210  0.00  0.00    +0.023 A 
ATOM     11  C   UNL     1       0.667  -2.625  -0.095  0.00  0.00    +0.026 A 
ATOM     12  C   UNL     1       0.656  -1.942   1.113  0.00  0.00    +0.046 A 
ATOM     13  C   UNL     1       0.034  -0.705   1.202  0.00  0.00    +0.038 A 
BRANCH  11  14
ATOM     14  N   UNL     1       1.295  -3.869  -0.190  0.00  0.00    -0.358 N 
ATOM     15  H   UNL     1       1.302  -4.345  -1.034  0.00  0.00    +0.142 HD
ATOM     16  H   UNL     1       1.725  -4.255   0.589  0.00  0.00    +0.142 HD
ENDBRANCH  11  14
ENDBRANCH   3  13
ENDBRANCH   1   4
BRANCH   1  17
ATOM     17  S   UNL     1      -0.839  -1.041   6.158  0.00  0.00    -0.076 S 
BRANCH  17  18
ATOM     18  C   UNL     1      -1.046   0.007   7.559  0.00  0.00    +0.180 C 
ATOM     19  N   UNL     1      -0.768   1.282   7.606  0.00  0.00    -0.158 NA
ATOM     20  N   UNL     1      -1.073   1.743   8.894  0.00  0.00    -0.221 N 
ATOM     21  C   UNL     1      -1.538   0.699   9.596  0.00  0.00    +0.119 C 
ATOM     22  C   UNL     1      -1.979   0.724  10.994  0.00  0.00    +0.013 C 
ATOM     23  C   UNL     1      -2.041   1.941  11.688  0.00  0.00    +0.015 C 
ATOM     24  C   UNL     1      -2.451   1.964  12.987  0.00  0.00    +0.051 C 
ATOM     25  C   UNL     1      -2.811   0.771  13.630  0.00  0.00    +0.179 C 
ATOM     26  O   UNL     1      -3.212   0.793  14.903  0.00  0.00    -0.288 OA
ATOM     27  C   UNL     1      -2.749  -0.446  12.936  0.00  0.00    +0.051 C 
ATOM     28  C   UNL     1      -2.345  -0.469  11.635  0.00  0.00    +0.015 C 
ATOM     29  N   UNL     1      -1.532  -0.379   8.781  0.00  0.00    -0.268 N 
ATOM     30  C   UNL     1      -1.967  -1.730   9.143  0.00  0.00    +0.139 C 
ATOM     31  H   UNL     1      -0.967   2.651   9.218  0.00  0.00    +0.176 HD
ENDBRANCH  17  18
ENDBRANCH   1  17
TORSDOF 5
