REMARK  Name = ZINC39666559
REMARK  8 active torsions:
REMARK  status: ('A' for Active; 'I' for Inactive)
REMARK    1  A    between atoms: C_1  and  C_2
REMARK    2  A    between atoms: C_7  and  C_8
REMARK    3  A    between atoms: C_12  and  C_21
REMARK    4  A    between atoms: N_23  and  C_24
REMARK    5  A    between atoms: C_24  and  C_25
REMARK    6  A    between atoms: C_25  and  C_27
REMARK    7  A    between atoms: C_25  and  O_28
REMARK    8  A    between atoms: O_28  and  C_29
REMARK                            x       y       z     vdW  Elec       q    Type
REMARK                         _______ _______ _______ _____ _____    ______ ____
ROOT
ATOM      1  C   UNL     1      -1.206   0.758   4.010  0.00  0.00    +0.247 C 
ATOM      2  O   UNL     1      -1.453   1.931   4.215  0.00  0.00    -0.270 OA
ATOM      3  N   UNL     1      -0.760  -0.022   5.014  0.00  0.00    -0.296 N 
ATOM      4  C   UNL     1      -0.322  -1.436   4.940  0.00  0.00    +0.121 C 
ATOM      5  C   UNL     1       0.900  -1.516   5.882  0.00  0.00    +0.100 C 
ATOM      6  C   UNL     1       0.713  -0.349   6.867  0.00  0.00    -0.004 C 
ATOM      7  C   UNL     1      -0.591   0.342   6.441  0.00  0.00    +0.115 C 
ATOM      8  C   UNL     1       1.880   0.627   6.758  0.00  0.00    -0.010 C 
ATOM      9  C   UNL     1       1.700   1.748   7.786  0.00  0.00    -0.082 C 
ATOM     10  N   UNL     1       1.642   1.171   9.135  0.00  0.00    +0.379 N 
ATOM     11  C   UNL     1       0.463   0.306   9.260  0.00  0.00    -0.082 C 
ATOM     12  C   UNL     1       0.591  -0.876   8.294  0.00  0.00    -0.010 C 
ATOM     13  H   UNL     1       2.476   0.629   9.304  0.00  0.00    -0.086 HD
ATOM     14  H   UNL     1       1.585   1.915   9.815  0.00  0.00    -0.086 HD
ENDROOT
BRANCH   1  21
ATOM     15  C   UNL     1      -3.699   1.199   2.609  0.00  0.00    +0.044 C 
ATOM     16  C   UNL     1      -2.595   0.394   1.974  0.00  0.00    -0.038 A 
ATOM     17  C   UNL     1      -2.765  -0.136   0.711  0.00  0.00    +0.007 A 
ATOM     18  C   UNL     1      -1.754  -0.875   0.125  0.00  0.00    +0.038 A 
ATOM     19  C   UNL     1      -0.563  -1.089   0.801  0.00  0.00    +0.124 A 
ATOM     20  C   UNL     1      -0.381  -0.564   2.066  0.00  0.00    +0.051 A 
ATOM     21  C   UNL     1      -1.397   0.188   2.659  0.00  0.00    +0.043 A 
ATOM     22  F   UNL     1       0.421  -1.812   0.223  0.00  0.00    -0.205 F 
ENDBRANCH   1  21
BRANCH   5  23
ATOM     23  C   UNL     1       0.909  -2.830   6.619  0.00  0.00    +0.218 C 
ATOM     24  O   UNL     1      -0.137  -3.361   6.925  0.00  0.00    -0.275 OA
ATOM     25  N   UNL     1       2.081  -3.416   6.937  0.00  0.00    -0.312 N 
ATOM     26  H   UNL     1       2.918  -2.991   6.692  0.00  0.00    +0.149 HD
BRANCH  25  27
ATOM     27  C   UNL     1       2.090  -4.694   7.653  0.00  0.00    +0.148 C 
BRANCH  27  28
ATOM     28  C   UNL     1       3.536  -5.137   7.888  0.00  0.00    +0.187 C 
ATOM     29  C   UNL     1       3.546  -6.528   8.524  0.00  0.00    +0.053 C 
BRANCH  28  30
ATOM     30  O   UNL     1       4.181  -4.209   8.763  0.00  0.00    -0.486 OA
BRANCH  30  31
ATOM     31  C   UNL     1       5.537  -4.142   8.699  0.00  0.00    +0.139 A 
ATOM     32  C   UNL     1       6.233  -4.965   7.826  0.00  0.00    +0.047 A 
ATOM     33  C   UNL     1       7.612  -4.895   7.763  0.00  0.00    +0.004 A 
ATOM     34  C   UNL     1       8.298  -4.007   8.570  0.00  0.00    +0.002 A 
ATOM     35  C   UNL     1       7.608  -3.186   9.442  0.00  0.00    +0.023 A 
ATOM     36  C   UNL     1       6.228  -3.247   9.505  0.00  0.00    +0.083 A 
ATOM     37 CL   UNL     1       5.360  -2.211  10.595  0.00  0.00    -0.080 Cl
ENDBRANCH  30  31
ENDBRANCH  28  30
ENDBRANCH  27  28
ENDBRANCH  25  27
ENDBRANCH   5  23
TORSDOF 6
