REMARK  Name = ZINC38790059
REMARK  9 active torsions:
REMARK  status: ('A' for Active; 'I' for Inactive)
REMARK    1  A    between atoms: C_1  and  C_2
REMARK    2  A    between atoms: C_2  and  N_3
REMARK    3  A    between atoms: N_3  and  C_4
REMARK    4  A    between atoms: N_3  and  C_19
REMARK    5  A    between atoms: C_4  and  C_5
REMARK    6  A    between atoms: C_10  and  C_18
REMARK    7  A    between atoms: C_11  and  C_17
REMARK    8  A    between atoms: C_22  and  O_26
REMARK    9  A    between atoms: C_24  and  C_25
REMARK                            x       y       z     vdW  Elec       q    Type
REMARK                         _______ _______ _______ _____ _____    ______ ____
ROOT
ATOM      1  C   UNL     1       1.952  -2.248  -1.338  0.00  0.00    +0.116 C 
ATOM      2  C   UNL     1       3.243  -2.221  -0.543  0.00  0.00    -0.003 C 
ATOM      3  C   UNL     1       4.288  -2.953  -1.023  0.00  0.00    -0.007 A 
ATOM      4  C   UNL     1       5.570  -2.982  -0.319  0.00  0.00    +0.013 A 
ATOM      5  C   UNL     1       6.584  -3.725  -0.835  0.00  0.00    -0.047 A 
ATOM      6  C   UNL     1       6.424  -4.453  -2.014  0.00  0.00    -0.046 A 
ATOM      7  C   UNL     1       5.260  -4.467  -2.714  0.00  0.00    +0.027 A 
ATOM      8  C   UNL     1       4.148  -3.731  -2.266  0.00  0.00    +0.041 A 
ATOM      9  N   UNL     1       3.010  -3.753  -2.961  0.00  0.00    -0.284 N 
ATOM     10  C   UNL     1       1.930  -3.084  -2.598  0.00  0.00    +0.226 C 
ATOM     11  O   UNL     1       0.920  -3.142  -3.274  0.00  0.00    -0.275 OA
ATOM     12  C   UNL     1       7.589  -5.256  -2.531  0.00  0.00    +0.044 C 
ATOM     13  C   UNL     1       7.909  -3.763  -0.118  0.00  0.00    +0.044 C 
ATOM     14  H   UNL     1       2.975  -4.283  -3.773  0.00  0.00    +0.155 HD
ENDROOT
BRANCH   1  15
ATOM     15  C   UNL     1       1.608  -0.808  -1.724  0.00  0.00    +0.122 C 
BRANCH  15  16
ATOM     16  N   UNL     1       0.218  -0.745  -2.184  0.00  0.00    -0.329 N 
BRANCH  16  17
ATOM     17  C   UNL     1      -0.815  -1.189  -1.351  0.00  0.00    +0.033 A 
ATOM     18  C   UNL     1      -1.306  -2.482  -1.483  0.00  0.00    +0.027 A 
ATOM     19  C   UNL     1      -2.326  -2.920  -0.661  0.00  0.00    +0.047 A 
ATOM     20  C   UNL     1      -2.860  -2.069   0.296  0.00  0.00    +0.117 A 
ATOM     21  C   UNL     1      -2.371  -0.778   0.427  0.00  0.00    +0.050 A 
ATOM     22  C   UNL     1      -1.347  -0.340  -0.390  0.00  0.00    -0.026 A 
ATOM     23  C   UNL     1      -0.810   1.060  -0.242  0.00  0.00    +0.046 C 
BRANCH  20  24
ATOM     24  O   UNL     1      -3.864  -2.501   1.104  0.00  0.00    -0.507 OA
ATOM     25  H   UNL     1      -3.559  -2.912   1.925  0.00  0.00    +0.292 HD
ENDBRANCH  20  24
ENDBRANCH  16  17
BRANCH  16  27
ATOM     26  C   UNL     1      -0.202  -1.373  -4.510  0.00  0.00    +0.024 C 
ATOM     27  C   UNL     1      -0.089  -0.216  -3.515  0.00  0.00    +0.102 C 
ENDBRANCH  16  27
ENDBRANCH  15  16
ENDBRANCH   1  15
TORSDOF 5
