REMARK  Name = ZINC63697507
REMARK  7 active torsions:
REMARK  status: ('A' for Active; 'I' for Inactive)
REMARK    1  A    between atoms: C_1  and  N_2
REMARK    2  A    between atoms: N_2  and  C_3
REMARK    3  A    between atoms: N_2  and  C_4
REMARK    4  A    between atoms: C_7  and  C_10
REMARK    5  A    between atoms: C_25  and  C_27
REMARK    6  A    between atoms: C_30  and  S_33
REMARK    7  A    between atoms: S_33  and  C_34
REMARK                            x       y       z     vdW  Elec       q    Type
REMARK                         _______ _______ _______ _____ _____    ______ ____
ROOT
ATOM      1  C   UNL     1      -4.841  -2.967   0.009  0.00  0.00    +0.247 C 
ATOM      2  O   UNL     1      -4.863  -4.181  -0.044  0.00  0.00    -0.270 OA
ATOM      3  N   UNL     1      -5.993  -2.275   0.114  0.00  0.00    -0.288 N 
ATOM      4  C   UNL     1      -5.966  -0.810   0.075  0.00  0.00    +0.113 C 
ATOM      5  C   UNL     1      -6.600  -0.251   1.362  0.00  0.00    +0.052 C 
ATOM      6  C   UNL     1      -7.870  -1.032   1.593  0.00  0.00    -0.035 C 
ATOM      7  C   UNL     1      -9.118  -0.635   1.810  0.00  0.00    -0.001 A 
ATOM      8  C   UNL     1      -9.699   0.702   2.013  0.00  0.00    +0.010 A 
ATOM      9  C   UNL     1     -11.046   0.749   2.193  0.00  0.00    +0.001 A 
ATOM     10  C   UNL     1     -11.862  -0.386   2.191  0.00  0.00    +0.002 A 
ATOM     11  C   UNL     1     -11.412  -1.655   2.020  0.00  0.00    +0.026 A 
ATOM     12  C   UNL     1     -10.011  -1.833   1.829  0.00  0.00    +0.043 A 
ATOM     13  N   UNL     1      -9.316  -2.920   1.668  0.00  0.00    -0.375 N 
ATOM     14  C   UNL     1      -7.901  -2.556   1.588  0.00  0.00    +0.131 C 
ATOM     15  C   UNL     1      -7.265  -3.000   0.261  0.00  0.00    +0.133 C 
ATOM     16  H   UNL     1      -9.674  -3.820   1.609  0.00  0.00    +0.160 HD
ENDROOT
BRANCH   1  20
ATOM     17  C   UNL     1      -1.132  -0.903  -0.139  0.00  0.00    +0.029 A 
ATOM     18  C   UNL     1      -1.291  -1.985   0.723  0.00  0.00    +0.024 A 
ATOM     19  C   UNL     1      -2.492  -2.656   0.773  0.00  0.00    +0.015 A 
ATOM     20  C   UNL     1      -3.552  -2.249  -0.042  0.00  0.00    +0.037 A 
ATOM     21  C   UNL     1      -3.390  -1.163  -0.906  0.00  0.00    +0.015 A 
ATOM     22  C   UNL     1      -2.188  -0.492  -0.947  0.00  0.00    +0.024 A 
BRANCH  17  24
ATOM     23  C   UNL     1       0.249   0.915  -1.089  0.00  0.00    +0.129 C 
ATOM     24  N   UNL     1       0.082  -0.228  -0.187  0.00  0.00    -0.336 N 
ATOM     25  C   UNL     1       1.194  -0.658   0.663  0.00  0.00    +0.129 C 
ENDBRANCH  17  24
ENDBRANCH   1  20
BRANCH  15  26
ATOM     26  C   UNL     1      -8.181  -2.660  -0.886  0.00  0.00    -0.025 A 
ATOM     27  C   UNL     1      -8.682  -3.667  -1.691  0.00  0.00    +0.006 A 
ATOM     28  C   UNL     1      -9.521  -3.359  -2.743  0.00  0.00    +0.015 A 
ATOM     29  C   UNL     1      -9.863  -2.035  -2.993  0.00  0.00    +0.008 A 
ATOM     30  C   UNL     1      -9.359  -1.026  -2.182  0.00  0.00    +0.015 A 
ATOM     31  C   UNL     1      -8.524  -1.342  -1.128  0.00  0.00    +0.006 A 
BRANCH  29  32
ATOM     32  S   UNL     1     -10.933  -1.638  -4.335  0.00  0.00    -0.129 S 
ATOM     33  C   UNL     1     -11.081   0.169  -4.258  0.00  0.00    +0.090 C 
ENDBRANCH  29  32
ENDBRANCH  15  26
TORSDOF 4
