REMARK  Name = ZINC64078959
REMARK  7 active torsions:
REMARK  status: ('A' for Active; 'I' for Inactive)
REMARK    1  A    between atoms: C_1  and  C_2
REMARK    2  A    between atoms: C_2  and  C_3
REMARK    3  A    between atoms: C_3  and  C_4
REMARK    4  A    between atoms: C_4  and  C_5
REMARK    5  A    between atoms: C_7  and  N_11
REMARK    6  A    between atoms: C_12  and  C_14
REMARK    7  A    between atoms: C_14  and  C_15
REMARK                            x       y       z     vdW  Elec       q    Type
REMARK                         _______ _______ _______ _____ _____    ______ ____
ROOT
ATOM      1  N   UNL     1       3.915  -4.384  -4.310  0.00  0.00    -0.271 N 
ATOM      2  C   UNL     1       4.688  -5.063  -3.439  0.00  0.00    +0.220 C 
ATOM      3  O   UNL     1       4.481  -4.974  -2.247  0.00  0.00    -0.275 OA
ATOM      4  H   UNL     1       4.080  -4.455  -5.263  0.00  0.00    +0.156 HD
ENDROOT
BRANCH   1   7
ATOM      5  C   UNL     1       1.444  -2.513  -2.505  0.00  0.00    +0.065 A 
ATOM      6  C   UNL     1       2.534  -3.388  -2.537  0.00  0.00    +0.068 A 
ATOM      7  C   UNL     1       2.877  -3.579  -3.840  0.00  0.00    +0.120 A 
ATOM      8  N   UNL     1       2.028  -2.847  -4.597  0.00  0.00    -0.264 N 
ATOM      9  H   UNL     1       2.033  -2.788  -5.566  0.00  0.00    +0.190 HD
ATOM     10  N   UNL     1       1.138  -2.193  -3.736  0.00  0.00    -0.177 NA
BRANCH   5  11
ATOM     11  C   UNL     1       0.739  -2.027  -1.265  0.00  0.00    +0.057 C 
BRANCH  11  12
ATOM     12  C   UNL     1       0.718  -0.497  -1.257  0.00  0.00    +0.006 C 
BRANCH  12  14
ATOM     13  C   UNL     1      -0.019   1.526   0.010  0.00  0.00    +0.004 C 
ATOM     14  C   UNL     1       0.002  -0.004   0.002  0.00  0.00    -0.003 C 
ENDBRANCH  12  14
ENDBRANCH  11  12
ENDBRANCH   5  11
ENDBRANCH   1   7
BRANCH   2  15
ATOM     15  C   UNL     1       5.809  -5.932  -3.946  0.00  0.00    +0.120 C 
BRANCH  15  16
ATOM     16  C   UNL     1       6.525  -6.584  -2.761  0.00  0.00    +0.146 C 
ATOM     17  C   UNL     1       7.584  -7.529  -3.267  0.00  0.00    +0.231 C 
ATOM     18  O   UNL     1       7.323  -8.713  -3.322  0.00  0.00    -0.274 OA
ATOM     19  N   UNL     1       8.790  -7.130  -3.656  0.00  0.00    -0.284 N 
ATOM     20  C   UNL     1       9.310  -5.842  -3.558  0.00  0.00    +0.048 A 
ATOM     21  C   UNL     1      10.432  -5.505  -4.310  0.00  0.00    +0.044 A 
ATOM     22  C   UNL     1      10.961  -4.231  -4.237  0.00  0.00    +0.043 A 
ATOM     23  C   UNL     1      10.383  -3.277  -3.419  0.00  0.00    +0.021 A 
ATOM     24  C   UNL     1       9.270  -3.600  -2.664  0.00  0.00    +0.018 A 
ATOM     25  C   UNL     1       8.738  -4.877  -2.730  0.00  0.00    +0.030 A 
ATOM     26  S   UNL     1       7.331  -5.303  -1.753  0.00  0.00    -0.110 S 
ATOM     27 CL   UNL     1      12.362  -3.824  -5.179  0.00  0.00    -0.083 Cl
ATOM     28  H   UNL     1       9.367  -7.804  -4.048  0.00  0.00    +0.155 HD
ENDBRANCH  15  16
ENDBRANCH   2  15
TORSDOF 6
