REMARK  Name = ZINC04729282
REMARK  7 active torsions:
REMARK  status: ('A' for Active; 'I' for Inactive)
REMARK    1  A    between atoms: C_1  and  C_2
REMARK    2  A    between atoms: C_5  and  C_8
REMARK    3  A    between atoms: C_10  and  C_23
REMARK    4  A    between atoms: C_13  and  C_15
REMARK    5  A    between atoms: C_18  and  O_21
REMARK    6  A    between atoms: O_21  and  C_22
REMARK    7  A    between atoms: C_28  and  O_29
REMARK                            x       y       z     vdW  Elec       q    Type
REMARK                         _______ _______ _______ _____ _____    ______ ____
ROOT
ATOM      1  C   UNL     1      -1.996   3.229   0.032  0.00  0.00    +0.081 C 
ATOM      2  C   UNL     1      -0.753   1.593  -1.233  0.00  0.00    -0.028 C 
ATOM      3  C   UNL     1      -0.013   1.086   0.008  0.00  0.00    +0.044 C 
ATOM      4  C   UNL     1      -0.716   1.571   1.245  0.00  0.00    +0.040 C 
ATOM      5  N   UNL     1      -1.580   2.516   1.233  0.00  0.00    -0.299 NA
ATOM      6  N   UNL     1      -1.023   3.033  -1.054  0.00  0.00    +0.401 N 
ATOM      7  H   UNL     1      -0.148   3.517  -0.819  0.00  0.00    -0.081 HD
ATOM      8  H   UNL     1      -1.404   3.420  -1.926  0.00  0.00    -0.081 HD
ENDROOT
BRANCH   1  13
ATOM      9  C   UNL     1      -2.400   8.871   1.210  0.00  0.00    +0.044 C 
ATOM     10  C   UNL     1      -2.295   7.400   0.903  0.00  0.00    -0.050 A 
ATOM     11  C   UNL     1      -2.509   6.468   1.901  0.00  0.00    +0.003 A 
ATOM     12  C   UNL     1      -2.412   5.118   1.619  0.00  0.00    +0.004 A 
ATOM     13  C   UNL     1      -2.101   4.700   0.339  0.00  0.00    -0.040 A 
ATOM     14  C   UNL     1      -1.883   5.632  -0.658  0.00  0.00    +0.004 A 
ATOM     15  C   UNL     1      -1.984   6.982  -0.378  0.00  0.00    +0.003 A 
ENDBRANCH   1  13
BRANCH   4  16
ATOM     16  C   UNL     1      -0.397   0.927   2.533  0.00  0.00    -0.004 A 
ATOM     17  C   UNL     1       0.537  -0.112   2.584  0.00  0.00    +0.013 A 
ATOM     18  C   UNL     1       0.836  -0.706   3.790  0.00  0.00    +0.046 A 
ATOM     19  C   UNL     1       0.204  -0.281   4.953  0.00  0.00    +0.120 A 
ATOM     20  C   UNL     1      -0.729   0.748   4.905  0.00  0.00    +0.046 A 
ATOM     21  C   UNL     1      -1.030   1.351   3.704  0.00  0.00    +0.013 A 
BRANCH  19  22
ATOM     22  O   UNL     1       0.499  -0.873   6.138  0.00  0.00    -0.495 OA
ATOM     23  C   UNL     1       1.467  -1.924   6.116  0.00  0.00    +0.277 C 
ENDBRANCH  19  22
ENDBRANCH   4  16
BRANCH   2  24
ATOM     24  C   UNL     1       0.103   1.389  -2.456  0.00  0.00    -0.019 A 
ATOM     25  C   UNL     1       0.901   2.416  -2.921  0.00  0.00    +0.005 A 
ATOM     26  C   UNL     1       1.688   2.229  -4.042  0.00  0.00    +0.000 A 
ATOM     27  C   UNL     1       1.679   1.013  -4.701  0.00  0.00    +0.004 A 
ATOM     28  C   UNL     1       0.883  -0.018  -4.240  0.00  0.00    +0.045 A 
ATOM     29  C   UNL     1       0.096   0.166  -3.112  0.00  0.00    +0.118 A 
BRANCH  29  30
ATOM     30  O   UNL     1      -0.684  -0.848  -2.653  0.00  0.00    -0.507 OA
ATOM     31  H   UNL     1      -1.573  -0.863  -3.032  0.00  0.00    +0.292 HD
ENDBRANCH  29  30
ENDBRANCH   2  24
TORSDOF 5
