REMARK  Name = ZINC08834903
REMARK  9 active torsions:
REMARK  status: ('A' for Active; 'I' for Inactive)
REMARK    1  A    between atoms: C_1  and  C_2
REMARK    2  A    between atoms: C_2  and  N_54
REMARK    3  A    between atoms: C_3  and  C_4
REMARK    4  A    between atoms: C_3  and  N_54
REMARK    5  A    between atoms: C_5  and  C_6
REMARK    6  A    between atoms: C_5  and  N_54
REMARK    7  A    between atoms: C_6  and  N_7
REMARK    8  A    between atoms: C_8  and  C_24
REMARK    9  A    between atoms: C_28  and  N_30
REMARK                            x       y       z     vdW  Elec       q    Type
REMARK                         _______ _______ _______ _____ _____    ______ ____
ROOT
ATOM      1  N   UNL     1      -0.402  -2.849  -0.899  0.00  0.00    -0.285 N 
ATOM      2  C   UNL     1      -1.020  -1.534  -1.115  0.00  0.00    +0.144 C 
ATOM      3  C   UNL     1       0.108  -0.599  -1.464  0.00  0.00    +0.072 A 
ATOM      4  C   UNL     1       0.149   0.830  -1.787  0.00  0.00    +0.199 A 
ATOM      5  O   UNL     1      -0.863   1.508  -1.817  0.00  0.00    -0.287 OA
ATOM      6  C   UNL     1       1.476   1.405  -2.082  0.00  0.00    +0.065 A 
ATOM      7  C   UNL     1       1.629   2.754  -2.402  0.00  0.00    +0.030 A 
ATOM      8  C   UNL     1       2.887   3.249  -2.670  0.00  0.00    +0.019 A 
ATOM      9  C   UNL     1       3.993   2.410  -2.621  0.00  0.00    +0.019 A 
ATOM     10  C   UNL     1       3.853   1.077  -2.306  0.00  0.00    +0.048 A 
ATOM     11  C   UNL     1       2.593   0.554  -2.031  0.00  0.00    +0.140 A 
ATOM     12  O   UNL     1       2.444  -0.747  -1.723  0.00  0.00    -0.450 OA
ATOM     13  C   UNL     1       1.256  -1.319  -1.447  0.00  0.00    +0.199 A 
ATOM     14  C   UNL     1       0.922  -2.722  -1.093  0.00  0.00    +0.283 C 
ATOM     15  O   UNL     1       1.729  -3.624  -0.993  0.00  0.00    -0.267 OA
ATOM     16 BR   UNL     1       3.107   5.076  -3.106  0.00  0.00    -0.050 Br
ENDROOT
BRANCH   2  17
ATOM     17  C   UNL     1      -1.708  -1.072   0.144  0.00  0.00    -0.020 A 
ATOM     18  C   UNL     1      -1.139  -1.329   1.377  0.00  0.00    +0.006 A 
ATOM     19  C   UNL     1      -1.768  -0.901   2.531  0.00  0.00    +0.003 A 
ATOM     20  C   UNL     1      -2.970  -0.223   2.453  0.00  0.00    +0.033 A 
ATOM     21  C   UNL     1      -3.541   0.030   1.220  0.00  0.00    +0.127 A 
ATOM     22  C   UNL     1      -2.910  -0.395   0.065  0.00  0.00    +0.038 A 
BRANCH  21  23
ATOM     23  N   UNL     1      -4.828   0.755   1.135  0.00  0.00    +0.056 N 
ATOM     24  O   UNL     1      -5.332   0.979   0.049  0.00  0.00    -0.126 OA
ATOM     25  O   UNL     1      -5.384   1.130   2.152  0.00  0.00    -0.126 OA
ENDBRANCH  21  23
ENDBRANCH   2  17
BRANCH   1  26
ATOM     26  C   UNL     1      -1.106  -4.082  -0.537  0.00  0.00    +0.090 C 
BRANCH  26  27
ATOM     27  C   UNL     1      -1.175  -4.201   0.987  0.00  0.00    -0.060 C 
BRANCH  27  28
ATOM     28  N   UNL     1      -1.868  -5.459   1.336  0.00  0.00    +0.380 N 
ATOM     29  H   UNL     1      -1.424  -6.235   0.831  0.00  0.00    -0.082 HD
BRANCH  28  31
ATOM     30  C   UNL     1      -0.361  -6.240   3.094  0.00  0.00    -0.017 C 
ATOM     31  C   UNL     1      -1.762  -5.707   2.789  0.00  0.00    -0.082 C 
ENDBRANCH  28  31
BRANCH  28  32
ATOM     32  C   UNL     1      -3.289  -5.380   0.939  0.00  0.00    -0.082 C 
ATOM     33  C   UNL     1      -3.885  -6.789   0.961  0.00  0.00    -0.017 C 
ENDBRANCH  28  32
ENDBRANCH  27  28
ENDBRANCH  26  27
ENDBRANCH   1  26
TORSDOF 7
