REMARK  Name = ZINC41095414
REMARK  12 active torsions:
REMARK  status: ('A' for Active; 'I' for Inactive)
REMARK    1  A    between atoms: C_1  and  C_2
REMARK    2  A    between atoms: C_4  and  C_22
REMARK    3  A    between atoms: C_7  and  S_8
REMARK    4  A    between atoms: S_8  and  N_11
REMARK    5  A    between atoms: N_11  and  C_12
REMARK    6  A    between atoms: C_14  and  C_20
REMARK    7  A    between atoms: C_14  and  C_21
REMARK    8  A    between atoms: C_16  and  C_18
REMARK    9  A    between atoms: C_16  and  C_19
REMARK   10  A    between atoms: C_22  and  C_23
REMARK   11  A    between atoms: C_22  and  C_24
REMARK   12  A    between atoms: C_22  and  C_25
REMARK                            x       y       z     vdW  Elec       q    Type
REMARK                         _______ _______ _______ _____ _____    ______ ____
ROOT
ATOM      1  S   UNL     1      -0.242   0.541   2.962  0.00  0.00    +0.059 S 
ATOM      2  O   UNL     1      -1.383   1.377   2.835  0.00  0.00    -0.153 OA
ATOM      3  O   UNL     1      -0.083  -0.375   4.037  0.00  0.00    -0.153 OA
ENDROOT
BRANCH   1  10
ATOM      4  C   UNL     1       1.945  -1.462   2.366  0.00  0.00    +0.046 C 
ATOM      5  C   UNL     1       0.897  -1.297   1.295  0.00  0.00    -0.024 A 
ATOM      6  C   UNL     1       0.972  -2.042   0.133  0.00  0.00    +0.009 A 
ATOM      7  C   UNL     1       0.011  -1.890  -0.848  0.00  0.00    -0.042 A 
ATOM      8  C   UNL     1      -1.026  -0.994  -0.668  0.00  0.00    +0.006 A 
ATOM      9  C   UNL     1      -1.101  -0.249   0.494  0.00  0.00    +0.029 A 
ATOM     10  C   UNL     1      -0.142  -0.404   1.478  0.00  0.00    +0.108 A 
BRANCH   7  11
ATOM     11  C   UNL     1       0.093  -2.702  -2.115  0.00  0.00    -0.013 C 
ATOM     12  C   UNL     1       0.037  -4.192  -1.771  0.00  0.00    +0.015 C 
ATOM     13  C   UNL     1      -1.083  -2.345  -3.027  0.00  0.00    +0.015 C 
ATOM     14  C   UNL     1       1.408  -2.394  -2.834  0.00  0.00    +0.015 C 
ENDBRANCH   7  11
ENDBRANCH   1  10
BRANCH   1  15
ATOM     15  N   UNL     1       1.077   1.542   2.994  0.00  0.00    -0.187 NA
ATOM     16  H   UNL     1       1.749   1.436   3.686  0.00  0.00    +0.148 HD
BRANCH  15  17
ATOM     17  C   UNL     1       1.229   2.590   1.977  0.00  0.00    +0.074 C 
ATOM     18  C   UNL     1       2.155   2.084   0.869  0.00  0.00    +0.007 C 
ATOM     19  C   UNL     1       2.333   3.169  -0.192  0.00  0.00    -0.072 C 
ATOM     20  N   UNL     1       2.784   4.428   0.381  0.00  0.00    +0.386 N 
ATOM     21  C   UNL     1       2.104   4.910   1.572  0.00  0.00    -0.072 C 
ATOM     22  C   UNL     1       1.871   3.821   2.614  0.00  0.00    +0.007 C 
ATOM     23  C   UNL     1       3.011   5.981   2.223  0.00  0.00    -0.010 C 
ATOM     24  C   UNL     1       0.779   5.596   1.228  0.00  0.00    -0.010 C 
ATOM     25  C   UNL     1       1.047   3.332  -1.002  0.00  0.00    -0.010 C 
ATOM     26  C   UNL     1       3.429   2.680  -1.167  0.00  0.00    -0.010 C 
ATOM     27  H   UNL     1       3.782   4.345   0.591  0.00  0.00    -0.084 HD
ATOM     28  H   UNL     1       2.722   5.150  -0.341  0.00  0.00    -0.084 HD
ENDBRANCH  15  17
ENDBRANCH   1  15
TORSDOF 4
