REMARK  Name = ZINC36618841
REMARK  7 active torsions:
REMARK  status: ('A' for Active; 'I' for Inactive)
REMARK    1  A    between atoms: C_1  and  C_2
REMARK    2  A    between atoms: C_2  and  O_3
REMARK    3  A    between atoms: O_3  and  C_4
REMARK    4  A    between atoms: C_9  and  C_10
REMARK    5  A    between atoms: C_14  and  C_24
REMARK    6  A    between atoms: C_19  and  N_23
REMARK    7  A    between atoms: C_20  and  C_21
REMARK                            x       y       z     vdW  Elec       q    Type
REMARK                         _______ _______ _______ _____ _____    ______ ____
ROOT
ATOM      1  C   UNL     1       2.055  -1.434   3.442  0.00  0.00    +0.086 C 
ATOM      2  C   UNL     1       1.414  -1.715   4.806  0.00  0.00    +0.140 C 
ATOM      3  C   UNL     1      -0.030  -2.131   4.646  0.00  0.00    +0.085 C 
ATOM      4  N   UNL     1      -0.104  -3.359   5.082  0.00  0.00    -0.150 NA
ATOM      5  N   UNL     1       1.135  -3.851   5.492  0.00  0.00    -0.115 NA
ATOM      6  C   UNL     1       2.087  -2.981   5.330  0.00  0.00    +0.227 C 
ATOM      7  O   UNL     1       3.429  -3.056   5.468  0.00  0.00    -0.425 OA
ATOM      8  C   UNL     1       4.127  -2.437   4.481  0.00  0.00    +0.200 C 
ATOM      9  C   UNL     1       3.538  -1.674   3.535  0.00  0.00    +0.095 C 
ENDROOT
BRANCH   3  10
ATOM     10  C   UNL     1      -1.131  -1.316   4.107  0.00  0.00    +0.017 A 
ATOM     11  C   UNL     1      -0.889  -0.009   3.672  0.00  0.00    +0.011 A 
ATOM     12  C   UNL     1      -1.925   0.749   3.168  0.00  0.00    +0.001 A 
ATOM     13  C   UNL     1      -3.202   0.219   3.092  0.00  0.00    +0.001 A 
ATOM     14  C   UNL     1      -3.450  -1.073   3.520  0.00  0.00    +0.020 A 
ATOM     15  C   UNL     1      -2.422  -1.846   4.022  0.00  0.00    +0.050 A 
ATOM     16 CL   UNL     1      -2.734  -3.470   4.552  0.00  0.00    -0.083 Cl
ENDBRANCH   3  10
BRANCH   1  22
ATOM     17  C   UNL     1       0.802  -1.824   1.306  0.00  0.00    +0.124 A 
ATOM     18  C   UNL     1       0.260  -2.673   0.351  0.00  0.00    +0.046 A 
ATOM     19  C   UNL     1       0.372  -4.041   0.501  0.00  0.00    +0.004 A 
ATOM     20  C   UNL     1       1.024  -4.566   1.602  0.00  0.00    +0.001 A 
ATOM     21  C   UNL     1       1.565  -3.723   2.555  0.00  0.00    +0.008 A 
ATOM     22  C   UNL     1       1.460  -2.353   2.406  0.00  0.00    +0.004 A 
BRANCH  17  23
ATOM     23  O   UNL     1       0.693  -0.477   1.160  0.00  0.00    -0.492 OA
BRANCH  23  25
ATOM     24  C   UNL     1      -0.019   1.526   0.010  0.00  0.00    +0.048 C 
ATOM     25  C   UNL     1       0.002  -0.004   0.002  0.00  0.00    +0.225 C 
ENDBRANCH  23  25
ENDBRANCH  17  23
ENDBRANCH   1  22
BRANCH   8  26
ATOM     26  N   UNL     1       5.490  -2.592   4.445  0.00  0.00    -0.328 N 
ATOM     27  H   UNL     1       5.935  -3.135   5.114  0.00  0.00    +0.145 HD
ATOM     28  H   UNL     1       6.009  -2.159   3.749  0.00  0.00    +0.145 HD
ENDBRANCH   8  26
BRANCH   9  29
ATOM     29  C   UNL     1       4.379  -1.053   2.556  0.00  0.00    +0.100 C 
ATOM     30  N   UNL     1       5.045  -0.560   1.779  0.00  0.00    -0.191 NA
ENDBRANCH   9  29
TORSDOF 6
