REMARK  Name = ZINC01067371
REMARK  10 active torsions:
REMARK  status: ('A' for Active; 'I' for Inactive)
REMARK    1  A    between atoms: C_1  and  C_2
REMARK    2  A    between atoms: C_7  and  N_8
REMARK    3  A    between atoms: C_9  and  C_11
REMARK    4  A    between atoms: C_12  and  C_38
REMARK    5  A    between atoms: C_14  and  S_25
REMARK    6  A    between atoms: C_15  and  C_23
REMARK    7  A    between atoms: C_16  and  C_18
REMARK    8  A    between atoms: S_25  and  C_26
REMARK    9  A    between atoms: C_26  and  C_27
REMARK   10  A    between atoms: N_29  and  C_30
REMARK                            x       y       z     vdW  Elec       q    Type
REMARK                         _______ _______ _______ _____ _____    ______ ____
ROOT
ATOM      1  C   UNL     1       0.041  -0.172   4.877  0.00  0.00    +0.044 C 
ATOM      2  C   UNL     1       0.127  -0.953   5.965  0.00  0.00    +0.014 C 
ATOM      3  N   UNL     1       0.158  -0.411   7.221  0.00  0.00    -0.312 N 
ATOM      4  C   UNL     1       0.463   0.920   7.394  0.00  0.00    +0.080 C 
ATOM      5  C   UNL     1       0.388   1.786   6.348  0.00  0.00    +0.069 C 
ATOM      6  C   UNL     1      -0.029   1.325   4.982  0.00  0.00    +0.105 C 
ATOM      7  C   UNL     1       0.191  -2.450   5.801  0.00  0.00    +0.061 C 
ATOM      8  H   UNL     1      -0.036  -0.967   7.993  0.00  0.00    +0.152 HD
ENDROOT
BRANCH   6   9
ATOM      9  C   UNL     1      -1.444   1.774   4.724  0.00  0.00    +0.002 A 
ATOM     10  C   UNL     1      -1.916   2.596   3.755  0.00  0.00    +0.012 A 
ATOM     11  C   UNL     1      -3.269   2.872   3.709  0.00  0.00    +0.008 A 
ATOM     12  C   UNL     1      -4.086   2.312   4.635  0.00  0.00    +0.045 A 
ATOM     13  S   UNL     1      -2.936   1.355   5.611  0.00  0.00    -0.101 S 
ENDBRANCH   6   9
BRANCH   1  15
ATOM     14  N   UNL     1      -1.141  -1.221   3.079  0.00  0.00    -0.281 N 
ATOM     15  C   UNL     1       0.021  -0.774   3.596  0.00  0.00    +0.247 C 
ATOM     16  O   UNL     1       1.054  -0.888   2.961  0.00  0.00    -0.270 OA
ATOM     17  H   UNL     1      -1.974  -1.058   3.548  0.00  0.00    +0.155 HD
BRANCH  14  24
ATOM     18  C   UNL     1      -3.526  -1.210   1.529  0.00  0.00    +0.045 C 
ATOM     19  C   UNL     1      -2.287  -1.942   1.080  0.00  0.00    -0.029 A 
ATOM     20  C   UNL     1      -2.285  -2.629  -0.118  0.00  0.00    +0.005 A 
ATOM     21  C   UNL     1      -1.149  -3.300  -0.530  0.00  0.00    +0.000 A 
ATOM     22  C   UNL     1      -0.011  -3.286   0.255  0.00  0.00    +0.002 A 
ATOM     23  C   UNL     1      -0.005  -2.600   1.454  0.00  0.00    +0.023 A 
ATOM     24  C   UNL     1      -1.144  -1.921   1.869  0.00  0.00    +0.037 A 
ENDBRANCH  14  24
ENDBRANCH   1  15
BRANCH   5  25
ATOM     25  C   UNL     1       0.719   3.165   6.551  0.00  0.00    +0.098 C 
ATOM     26  N   UNL     1       0.982   4.258   6.713  0.00  0.00    -0.191 NA
ENDBRANCH   5  25
BRANCH   4  27
ATOM     27  S   UNL     1       0.954   1.507   8.981  0.00  0.00    -0.100 S 
BRANCH  27  28
ATOM     28  C   UNL     1       0.908   0.027  10.029  0.00  0.00    +0.171 C 
BRANCH  28  29
ATOM     29  C   UNL     1       1.312   0.394  11.434  0.00  0.00    +0.227 C 
ATOM     30  O   UNL     1       1.603   1.541  11.702  0.00  0.00    -0.275 OA
ATOM     31  N   UNL     1       1.350  -0.552  12.393  0.00  0.00    -0.285 N 
ATOM     32  H   UNL     1       1.192  -1.482  12.164  0.00  0.00    +0.155 HD
BRANCH  31  33
ATOM     33  C   UNL     1       1.618  -0.194  13.719  0.00  0.00    +0.036 A 
ATOM     34  C   UNL     1       2.351  -1.046  14.535  0.00  0.00    +0.043 A 
ATOM     35  C   UNL     1       2.614  -0.690  15.844  0.00  0.00    +0.044 A 
ATOM     36  C   UNL     1       2.148   0.514  16.342  0.00  0.00    +0.040 A 
ATOM     37  C   UNL     1       1.417   1.365  15.531  0.00  0.00    +0.044 A 
ATOM     38  C   UNL     1       1.155   1.016  14.219  0.00  0.00    +0.043 A 
ATOM     39 CL   UNL     1       0.833   2.874  16.160  0.00  0.00    -0.083 Cl
ATOM     40 CL   UNL     1       3.530  -1.754  16.865  0.00  0.00    -0.083 Cl
ENDBRANCH  31  33
ENDBRANCH  28  29
ENDBRANCH  27  28
ENDBRANCH   4  27
TORSDOF 8
