REMARK  Name = ZINC06934805
REMARK  6 active torsions:
REMARK  status: ('A' for Active; 'I' for Inactive)
REMARK    1  A    between atoms: C_1  and  C_2
REMARK    2  A    between atoms: C_3  and  C_17
REMARK    3  A    between atoms: C_4  and  N_16
REMARK    4  A    between atoms: N_5  and  C_7
REMARK    5  A    between atoms: C_11  and  N_13
REMARK    6  A    between atoms: C_17  and  O_28
REMARK                            x       y       z     vdW  Elec       q    Type
REMARK                         _______ _______ _______ _____ _____    ______ ____
ROOT
ATOM      1  C   UNL     1       4.481   6.726  -0.941  0.00  0.00    +0.068 C 
ATOM      2  C   UNL     1       3.824   5.471  -0.426  0.00  0.00    +0.069 A 
ATOM      3  C   UNL     1       4.436   4.495   0.365  0.00  0.00    +0.060 A 
ATOM      4  C   UNL     1       3.514   3.525   0.619  0.00  0.00    +0.127 A 
ATOM      5  N   UNL     1       2.357   3.890   0.001  0.00  0.00    -0.218 N 
ATOM      6  N   UNL     1       2.586   5.109  -0.649  0.00  0.00    -0.170 NA
ENDROOT
BRANCH   3   7
ATOM      7  C   UNL     1       5.862   4.512   0.851  0.00  0.00    +0.199 C 
ATOM      8  C   UNL     1       6.730   5.323  -0.084  0.00  0.00    +0.021 A 
ATOM      9  C   UNL     1       7.052   5.188  -1.416  0.00  0.00    +0.047 A 
ATOM     10  C   UNL     1       7.893   6.109  -2.020  0.00  0.00    +0.124 A 
ATOM     11  C   UNL     1       8.406   7.161  -1.279  0.00  0.00    +0.040 A 
ATOM     12  C   UNL     1       8.084   7.296   0.055  0.00  0.00    +0.026 A 
ATOM     13  C   UNL     1       7.238   6.374   0.668  0.00  0.00    +0.040 A 
ATOM     14  N   UNL     1       6.771   6.297   1.982  0.00  0.00    -0.282 N 
ATOM     15  C   UNL     1       5.963   5.241   2.174  0.00  0.00    +0.258 C 
ATOM     16  O   UNL     1       5.418   4.930   3.211  0.00  0.00    -0.272 OA
ATOM     17  F   UNL     1       8.212   5.980  -3.326  0.00  0.00    -0.205 F 
ATOM     18  H   UNL     1       7.004   6.933   2.677  0.00  0.00    +0.155 HD
BRANCH   7  19
ATOM     19  O   UNL     1       6.364   3.179   0.974  0.00  0.00    -0.371 OA
ATOM     20  H   UNL     1       7.279   3.131   1.283  0.00  0.00    +0.212 HD
ENDBRANCH   7  19
ENDBRANCH   3   7
BRANCH   5  21
ATOM     21  C   UNL     1       1.155   3.170   0.008  0.00  0.00    +0.070 A 
ATOM     22  C   UNL     1       1.174   1.782   0.000  0.00  0.00    +0.028 A 
ATOM     23  C   UNL     1      -0.013   1.076   0.008  0.00  0.00    +0.004 A 
ATOM     24  C   UNL     1      -1.220   1.750   0.017  0.00  0.00    +0.033 A 
ATOM     25  C   UNL     1      -1.243   3.133   0.031  0.00  0.00    +0.128 A 
ATOM     26  C   UNL     1      -0.059   3.844   0.023  0.00  0.00    +0.060 A 
BRANCH  25  27
ATOM     27  N   UNL     1      -2.537   3.851   0.046  0.00  0.00    +0.056 N 
ATOM     28  O   UNL     1      -2.558   5.068   0.053  0.00  0.00    -0.126 OA
ATOM     29  O   UNL     1      -3.581   3.224   0.053  0.00  0.00    -0.126 OA
ENDBRANCH  25  27
ENDBRANCH   5  21
BRANCH   4  30
ATOM     30  N   UNL     1       3.717   2.372   1.372  0.00  0.00    -0.343 N 
ATOM     31  H   UNL     1       2.993   1.739   1.495  0.00  0.00    +0.144 HD
ATOM     32  H   UNL     1       4.583   2.202   1.775  0.00  0.00    +0.144 HD
ENDBRANCH   4  30
TORSDOF 5
