REMARK  Name = ZINC13266150
REMARK  7 active torsions:
REMARK  status: ('A' for Active; 'I' for Inactive)
REMARK    1  A    between atoms: C_1  and  C_2
REMARK    2  A    between atoms: C_8  and  N_10
REMARK    3  A    between atoms: C_14  and  C_16
REMARK    4  A    between atoms: C_16  and  S_17
REMARK    5  A    between atoms: S_17  and  C_18
REMARK    6  A    between atoms: C_22  and  C_35
REMARK    7  A    between atoms: N_28  and  C_29
REMARK                            x       y       z     vdW  Elec       q    Type
REMARK                         _______ _______ _______ _____ _____    ______ ____
ROOT
ATOM      1  C   UNL     1       4.121   1.979  -0.526  0.00  0.00    +0.177 A 
ATOM      2  N   UNL     1       3.862   3.264  -0.553  0.00  0.00    -0.223 NA
ATOM      3  C   UNL     1       4.748   4.175  -0.085  0.00  0.00    +0.080 A 
ATOM      4  C   UNL     1       4.468   5.544  -0.111  0.00  0.00    +0.043 A 
ATOM      5  C   UNL     1       5.410   6.442   0.375  0.00  0.00    +0.065 A 
ATOM      6  C   UNL     1       6.631   5.985   0.887  0.00  0.00    +0.016 A 
ATOM      7  C   UNL     1       6.915   4.650   0.917  0.00  0.00    +0.016 A 
ATOM      8  C   UNL     1       5.985   3.730   0.435  0.00  0.00    +0.065 A 
ATOM      9  C   UNL     1       6.251   2.283   0.448  0.00  0.00    +0.267 A 
ATOM     10  O   UNL     1       7.297   1.839   0.883  0.00  0.00    -0.267 OA
ATOM     11  N   UNL     1       5.291   1.465  -0.041  0.00  0.00    -0.255 N 
ENDROOT
BRANCH  11  12
ATOM     12  C   UNL     1       5.498   0.079  -0.050  0.00  0.00    +0.052 A 
ATOM     13  C   UNL     1       5.114  -0.689   1.041  0.00  0.00    +0.026 A 
ATOM     14  C   UNL     1       5.314  -2.055   1.027  0.00  0.00    +0.002 A 
ATOM     15  C   UNL     1       5.907  -2.657  -0.068  0.00  0.00    +0.000 A 
ATOM     16  C   UNL     1       6.295  -1.894  -1.154  0.00  0.00    +0.002 A 
ATOM     17  C   UNL     1       6.092  -0.528  -1.148  0.00  0.00    +0.026 A 
ENDBRANCH  11  12
BRANCH   5  18
ATOM     18  C   UNL     1       5.120   7.893   0.352  0.00  0.00    +0.387 C 
ATOM     19  O   UNL     1       4.063   8.294  -0.091  0.00  0.00    -0.241 OA
ATOM     20  O   UNL     1       6.029   8.769   0.822  0.00  0.00    -0.241 OA
ENDBRANCH   5  18
BRANCH   1  21
ATOM     21  S   UNL     1       2.907   0.865  -1.151  0.00  0.00    -0.078 S 
BRANCH  21  22
ATOM     22  C   UNL     1       1.622   2.041  -1.639  0.00  0.00    +0.173 C 
BRANCH  22  27
ATOM     23  N   UNL     1      -2.758   1.974  -3.620  0.00  0.00    -0.296 N 
ATOM     24  C   UNL     1      -1.677   1.298  -3.181  0.00  0.00    +0.306 C 
ATOM     25  O   UNL     1      -1.647   0.086  -3.256  0.00  0.00    -0.252 OA
ATOM     26  N   UNL     1      -0.631   1.968  -2.658  0.00  0.00    -0.239 N 
ATOM     27  C   UNL     1       0.449   1.292  -2.218  0.00  0.00    +0.231 C 
ATOM     28  O   UNL     1       0.480   0.083  -2.293  0.00  0.00    -0.274 OA
ATOM     29  H   UNL     1      -2.782   2.941  -3.560  0.00  0.00    +0.151 HD
ATOM     30  H   UNL     1      -0.656   2.936  -2.598  0.00  0.00    +0.159 HD
BRANCH  23  37
ATOM     31  C   UNL     1      -5.422   2.349  -2.548  0.00  0.00    +0.009 C 
ATOM     32  C   UNL     1      -5.166   2.083  -4.032  0.00  0.00    +0.006 C 
ATOM     33  C   UNL     1      -4.994   3.414  -4.767  0.00  0.00    +0.005 C 
ATOM     34  C   UNL     1      -4.738   3.148  -6.252  0.00  0.00    +0.000 C 
ATOM     35  C   UNL     1      -3.467   2.311  -6.408  0.00  0.00    +0.002 C 
ATOM     36  C   UNL     1      -3.639   0.980  -5.674  0.00  0.00    +0.022 C 
ATOM     37  C   UNL     1      -3.895   1.246  -4.189  0.00  0.00    +0.077 C 
ENDBRANCH  23  37
ENDBRANCH  22  27
ENDBRANCH  21  22
ENDBRANCH   1  21
TORSDOF 6
