REMARK  Name = ZINC16847039
REMARK  5 active torsions:
REMARK  status: ('A' for Active; 'I' for Inactive)
REMARK    1  A    between atoms: C_4  and  S_7
REMARK    2  A    between atoms: S_7  and  C_10
REMARK    3  A    between atoms: N_16  and  C_17
REMARK    4  A    between atoms: C_17  and  C_18
REMARK    5  A    between atoms: C_18  and  C_19
REMARK                            x       y       z     vdW  Elec       q    Type
REMARK                         _______ _______ _______ _____ _____    ______ ____
ROOT
ATOM      1  C   UNL     1      -3.172   0.573   1.704  0.00  0.00    +0.204 A 
ATOM      2  C   UNL     1      -2.735  -0.571   2.356  0.00  0.00    +0.053 A 
ATOM      3  C   UNL     1      -3.100  -0.744   3.682  0.00  0.00    +0.049 A 
ATOM      4  C   UNL     1      -3.894   0.238   4.274  0.00  0.00    +0.141 A 
ATOM      5  N   UNL     1      -4.267   1.294   3.567  0.00  0.00    -0.133 NA
ATOM      6  N   UNL     1      -3.921   1.451   2.341  0.00  0.00    -0.128 NA
ATOM      7  N   UNL     1      -4.293   0.108   5.600  0.00  0.00    -0.327 N 
ATOM      8  H   UNL     1      -4.845   0.792   6.009  0.00  0.00    +0.148 HD
ENDROOT
BRANCH   1   9
ATOM      9  S   UNL     1      -2.733   0.849   0.020  0.00  0.00    +0.044 S 
ATOM     10  O   UNL     1      -3.722   1.714  -0.522  0.00  0.00    -0.163 OA
ATOM     11  O   UNL     1      -2.447  -0.426  -0.539  0.00  0.00    -0.163 OA
BRANCH   9  15
ATOM     12  C   UNL     1       1.156   3.165   0.008  0.00  0.00    +0.000 A 
ATOM     13  C   UNL     1       1.175   1.783   0.000  0.00  0.00    +0.002 A 
ATOM     14  C   UNL     1      -0.013   1.076   0.008  0.00  0.00    +0.027 A 
ATOM     15  C   UNL     1      -1.219   1.751   0.017  0.00  0.00    +0.095 A 
ATOM     16  C   UNL     1      -1.238   3.133   0.029  0.00  0.00    +0.027 A 
ATOM     17  C   UNL     1      -0.050   3.840   0.022  0.00  0.00    +0.002 A 
ENDBRANCH   9  15
ENDBRANCH   1   9
BRANCH   7  18
ATOM     18  C   UNL     1      -3.878  -1.062   6.378  0.00  0.00    +0.107 C 
BRANCH  18  19
ATOM     19  C   UNL     1      -4.447  -0.959   7.795  0.00  0.00    +0.056 C 
BRANCH  19  20
ATOM     20  C   UNL     1      -4.020  -2.163   8.596  0.00  0.00    -0.021 A 
ATOM     21  C   UNL     1      -4.727  -3.288   8.783  0.00  0.00    +0.087 A 
ATOM     22  N   UNL     1      -4.018  -4.160   9.564  0.00  0.00    -0.360 N 
ATOM     23  H   UNL     1      -4.322  -5.041   9.833  0.00  0.00    +0.165 HD
ATOM     24  C   UNL     1      -2.810  -3.599   9.914  0.00  0.00    +0.047 A 
ATOM     25  C   UNL     1      -2.759  -2.323   9.323  0.00  0.00    +0.003 A 
ATOM     26  C   UNL     1      -1.637  -1.514   9.509  0.00  0.00    +0.010 A 
ATOM     27  C   UNL     1      -0.592  -1.966  10.265  0.00  0.00    +0.001 A 
ATOM     28  C   UNL     1      -0.638  -3.224  10.850  0.00  0.00    +0.002 A 
ATOM     29  C   UNL     1      -1.736  -4.039  10.680  0.00  0.00    +0.026 A 
ENDBRANCH  19  20
ENDBRANCH  18  19
ENDBRANCH   7  18
TORSDOF 5
