REMARK  Name = ZINC21966719
REMARK  12 active torsions:
REMARK  status: ('A' for Active; 'I' for Inactive)
REMARK    1  A    between atoms: C_1  and  C_2
REMARK    2  A    between atoms: C_6  and  N_9
REMARK    3  A    between atoms: C_7  and  C_8
REMARK    4  A    between atoms: C_10  and  C_12
REMARK    5  A    between atoms: C_12  and  S_13
REMARK    6  A    between atoms: S_13  and  C_14
REMARK    7  A    between atoms: N_27  and  C_28
REMARK    8  A    between atoms: C_28  and  C_29
REMARK    9  A    between atoms: C_29  and  C_30
REMARK   10  A    between atoms: C_30  and  N_31
REMARK   11  A    between atoms: N_31  and  C_32
REMARK   12  A    between atoms: N_31  and  C_33
REMARK                            x       y       z     vdW  Elec       q    Type
REMARK                         _______ _______ _______ _____ _____    ______ ____
ROOT
ATOM      1  C   UNL     1      -0.314   2.738   1.785  0.00  0.00    +0.173 A 
ATOM      2  N   UNL     1      -0.909   3.191   2.870  0.00  0.00    -0.216 NA
ATOM      3  C   UNL     1      -1.870   2.490   3.461  0.00  0.00    +0.117 A 
ATOM      4  C   UNL     1      -2.301   1.248   2.967  0.00  0.00    +0.076 A 
ATOM      5  C   UNL     1      -3.368   0.593   3.726  0.00  0.00    -0.023 A 
ATOM      6  C   UNL     1      -3.829   1.239   4.816  0.00  0.00    -0.004 A 
ATOM      7  S   UNL     1      -2.885   2.737   4.896  0.00  0.00    -0.073 S 
ATOM      8  C   UNL     1      -4.906   0.785   5.753  0.00  0.00    +0.043 C 
ATOM      9  C   UNL     1      -5.677  -0.362   5.085  0.00  0.00    +0.005 C 
ATOM     10  C   UNL     1      -4.669  -1.369   4.521  0.00  0.00    +0.005 C 
ATOM     11  C   UNL     1      -3.945  -0.760   3.320  0.00  0.00    +0.037 C 
ATOM     12  C   UNL     1      -1.641   0.783   1.785  0.00  0.00    +0.263 A 
ATOM     13  O   UNL     1      -1.948  -0.285   1.285  0.00  0.00    -0.267 OA
ATOM     14  N   UNL     1      -0.675   1.542   1.235  0.00  0.00    -0.287 N 
ENDROOT
BRANCH   1  15
ATOM     15  S   UNL     1       0.961   3.692   1.031  0.00  0.00    -0.078 S 
BRANCH  15  16
ATOM     16  C   UNL     1       0.999   5.110   2.154  0.00  0.00    +0.173 C 
BRANCH  16  18
ATOM     17  N   UNL     1       2.256   7.228   2.381  0.00  0.00    -0.285 N 
ATOM     18  C   UNL     1       2.048   6.088   1.693  0.00  0.00    +0.227 C 
ATOM     19  O   UNL     1       2.706   5.850   0.702  0.00  0.00    -0.275 OA
ATOM     20  H   UNL     1       1.600   7.488   3.225  0.00  0.00    +0.155 HD
BRANCH  17  26
ATOM     21  C   UNL     1       4.211  11.739   2.317  0.00  0.00    +0.044 C 
ATOM     22  C   UNL     1       4.280  10.272   1.979  0.00  0.00    -0.046 A 
ATOM     23  C   UNL     1       5.382   9.767   1.314  0.00  0.00    +0.004 A 
ATOM     24  C   UNL     1       5.449   8.421   1.002  0.00  0.00    +0.002 A 
ATOM     25  C   UNL     1       4.414   7.577   1.355  0.00  0.00    +0.023 A 
ATOM     26  C   UNL     1       3.306   8.081   2.023  0.00  0.00    +0.037 A 
ATOM     27  C   UNL     1       3.239   9.434   2.329  0.00  0.00    -0.026 A 
ATOM     28  C   UNL     1       2.035   9.986   3.048  0.00  0.00    +0.046 C 
ENDBRANCH  17  26
ENDBRANCH  16  18
ENDBRANCH  15  16
ENDBRANCH   1  15
BRANCH  14  29
ATOM     29  C   UNL     1       0.006   1.072   0.026  0.00  0.00    +0.125 C 
BRANCH  29  30
ATOM     30  C   UNL     1      -0.744   1.574  -1.210  0.00  0.00    +0.003 C 
BRANCH  30  31
ATOM     31  C   UNL     1      -0.033   1.084  -2.472  0.00  0.00    -0.078 C 
BRANCH  31  32
ATOM     32  N   UNL     1      -0.753   1.566  -3.659  0.00  0.00    +0.376 N 
ATOM     33  C   UNL     1       0.023   1.319  -4.881  0.00  0.00    -0.097 C 
ATOM     34  C   UNL     1      -2.086   0.955  -3.749  0.00  0.00    -0.097 C 
ATOM     35  H   UNL     1      -0.885   2.653  -3.555  0.00  0.00    -0.083 HD
ENDBRANCH  31  32
ENDBRANCH  30  31
ENDBRANCH  29  30
ENDBRANCH  14  29
TORSDOF 8
