REMARK  Name = ZINC05483243
REMARK  5 active torsions:
REMARK  status: ('A' for Active; 'I' for Inactive)
REMARK    1  A    between atoms: C_9  and  S_12
REMARK    2  A    between atoms: S_12  and  C_13
REMARK    3  A    between atoms: C_13  and  C_14
REMARK    4  A    between atoms: N_16  and  C_17
REMARK    5  A    between atoms: C_18  and  C_26
REMARK                            x       y       z     vdW  Elec       q    Type
REMARK                         _______ _______ _______ _____ _____    ______ ____
ROOT
ATOM      1  C   UNL     1       8.152  -1.235  -0.082  0.00  0.00    +0.228 C 
ATOM      2  O   UNL     1       8.867  -0.255  -0.083  0.00  0.00    -0.275 OA
ATOM      3  N   UNL     1       8.698  -2.467  -0.093  0.00  0.00    -0.278 N 
ATOM      4  H   UNL     1       8.126  -3.251  -0.092  0.00  0.00    +0.155 HD
ENDROOT
BRANCH   3   5
ATOM      5  C   UNL     1      10.078  -2.615  -0.107  0.00  0.00    +0.090 A 
ATOM      6  C   UNL     1      10.808  -3.792  -0.126  0.00  0.00    +0.084 A 
ATOM      7  C   UNL     1      12.255  -3.676  -0.138  0.00  0.00    -0.018 A 
ATOM      8  C   UNL     1      12.707  -2.403  -0.128  0.00  0.00    -0.004 A 
ATOM      9  S   UNL     1      11.245  -1.408  -0.112  0.00  0.00    -0.077 S 
ATOM     10  C   UNL     1      14.137  -1.957  -0.135  0.00  0.00    +0.043 C 
ATOM     11  C   UNL     1      15.020  -3.160   0.227  0.00  0.00    +0.005 C 
ATOM     12  C   UNL     1      14.589  -4.362  -0.619  0.00  0.00    +0.005 C 
ATOM     13  C   UNL     1      13.215  -4.857  -0.160  0.00  0.00    +0.037 C 
BRANCH   6  14
ATOM     14  C   UNL     1      10.162  -5.070  -0.133  0.00  0.00    +0.102 C 
ATOM     15  N   UNL     1       9.649  -6.084  -0.138  0.00  0.00    -0.191 NA
ENDBRANCH   6  14
ENDBRANCH   3   5
BRANCH   1  16
ATOM     16  C   UNL     1       6.654  -1.074  -0.067  0.00  0.00    +0.173 C 
BRANCH  16  17
ATOM     17  S   UNL     1       6.235   0.691  -0.053  0.00  0.00    -0.079 S 
BRANCH  17  26
ATOM     18  C   UNL     1      -0.017   1.383   0.010  0.00  0.00    +0.022 A 
ATOM     19  C   UNL     1       1.164   2.098   0.002  0.00  0.00    +0.029 A 
ATOM     20  C   UNL     1       2.377   1.428  -0.013  0.00  0.00    +0.067 A 
ATOM     21  C   UNL     1       2.402   0.023  -0.021  0.00  0.00    +0.091 A 
ATOM     22  C   UNL     1       1.199  -0.687  -0.013  0.00  0.00    +0.050 A 
ATOM     23  C   UNL     1       0.002  -0.004   0.002  0.00  0.00    +0.043 A 
ATOM     24 CL   UNL     1      -1.493  -0.886   0.011  0.00  0.00    -0.083 Cl
ATOM     25  N   UNL     1       3.708  -0.353  -0.035  0.00  0.00    -0.222 NA
ATOM     26  C   UNL     1       4.473   0.711  -0.037  0.00  0.00    +0.168 A 
ATOM     27  N   UNL     1       3.701   1.838  -0.023  0.00  0.00    -0.333 N 
ATOM     28  H   UNL     1       4.019   2.754  -0.022  0.00  0.00    +0.168 HD
ENDBRANCH  17  26
ENDBRANCH  16  17
ENDBRANCH   1  16
TORSDOF 5
