REMARK  Name = ZINC65430908
REMARK  10 active torsions:
REMARK  status: ('A' for Active; 'I' for Inactive)
REMARK    1  A    between atoms: C_1  and  C_2
REMARK    2  A    between atoms: C_7  and  C_13
REMARK    3  A    between atoms: C_11  and  C_12
REMARK    4  A    between atoms: C_13  and  N_14
REMARK    5  A    between atoms: N_14  and  C_15
REMARK    6  A    between atoms: C_15  and  C_17
REMARK    7  A    between atoms: C_15  and  C_20
REMARK    8  A    between atoms: C_17  and  O_18
REMARK    9  A    between atoms: O_18  and  C_19
REMARK   10  A    between atoms: N_24  and  C_25
REMARK                            x       y       z     vdW  Elec       q    Type
REMARK                         _______ _______ _______ _____ _____    ______ ____
ROOT
ATOM      1  C   UNL     1      -1.392   2.032  -0.373  0.00  0.00    +0.044 C 
ATOM      2  C   UNL     1      -1.078   0.559  -0.314  0.00  0.00    -0.045 A 
ATOM      3  C   UNL     1      -0.985  -0.160  -1.518  0.00  0.00    +0.006 A 
ATOM      4  C   UNL     1      -0.709  -1.479  -1.557  0.00  0.00    +0.027 A 
ATOM      5  C   UNL     1      -0.492  -2.212  -0.302  0.00  0.00    +0.060 A 
ATOM      6  N   UNL     1      -0.217  -3.457  -0.041  0.00  0.00    -0.362 N 
ATOM      7  C   UNL     1      -0.118  -3.589   1.418  0.00  0.00    +0.188 C 
ATOM      8  N   UNL     1      -0.372  -2.254   1.973  0.00  0.00    -0.362 N 
ATOM      9  C   UNL     1      -0.590  -1.450   0.973  0.00  0.00    +0.063 A 
ATOM     10  C   UNL     1      -0.892  -0.014   0.892  0.00  0.00    -0.023 A 
ATOM     11  C   UNL     1      -0.999   0.810   2.149  0.00  0.00    +0.046 C 
ATOM     12  H   UNL     1      -0.376  -2.014   2.913  0.00  0.00    +0.162 HD
ATOM     13  H   UNL     1      -0.100  -4.168  -0.690  0.00  0.00    +0.162 HD
ENDROOT
BRANCH   7  14
ATOM     14  C   UNL     1      -1.167  -4.579   1.929  0.00  0.00    +0.128 C 
BRANCH  14  15
ATOM     15  N   UNL     1      -2.507  -4.113   1.548  0.00  0.00    -0.303 NA
ATOM     16  H   UNL     1      -2.675  -3.179   1.890  0.00  0.00    +0.123 HD
BRANCH  15  17
ATOM     17  C   UNL     1      -3.542  -5.041   2.023  0.00  0.00    +0.128 C 
BRANCH  17  18
ATOM     18  C   UNL     1      -4.845  -4.301   2.183  0.00  0.00    +0.058 A 
ATOM     19  C   UNL     1      -5.291  -3.293   1.399  0.00  0.00    +0.046 A 
ATOM     20  C   UNL     1      -6.538  -2.888   1.887  0.00  0.00    +0.134 A 
ATOM     21  N   UNL     1      -6.829  -3.627   2.927  0.00  0.00    -0.180 NA
ATOM     22  N   UNL     1      -5.778  -4.530   3.130  0.00  0.00    -0.270 N 
ATOM     23  C   UNL     1      -5.704  -5.542   4.186  0.00  0.00    +0.172 C 
ENDBRANCH  17  18
BRANCH  17  24
ATOM     24  C   UNL     1      -3.718  -6.171   1.006  0.00  0.00    +0.184 C 
BRANCH  24  25
ATOM     25  O   UNL     1      -4.200  -5.632  -0.226  0.00  0.00    -0.381 OA
ATOM     26  C   UNL     1      -4.400  -6.610  -1.249  0.00  0.00    +0.194 C 
ENDBRANCH  24  25
ENDBRANCH  17  24
ENDBRANCH  15  17
ENDBRANCH  14  15
ENDBRANCH   7  14
TORSDOF 6
