REMARK  Name = ZINC09912944
REMARK  6 active torsions:
REMARK  status: ('A' for Active; 'I' for Inactive)
REMARK    1  A    between atoms: C_1  and  N_52
REMARK    2  A    between atoms: C_2  and  C_3
REMARK    3  A    between atoms: C_2  and  N_52
REMARK    4  A    between atoms: N_16  and  C_17
REMARK    5  A    between atoms: C_17  and  C_18
REMARK    6  A    between atoms: C_20  and  N_52
REMARK                            x       y       z     vdW  Elec       q    Type
REMARK                         _______ _______ _______ _____ _____    ______ ____
ROOT
ATOM      1  C   UNL     1       1.135   3.273   0.009  0.00  0.00    +0.098 A 
ATOM      2  N   UNL     1       0.018   3.949   0.024  0.00  0.00    -0.228 NA
ATOM      3  C   UNL     1      -1.157   3.327   0.031  0.00  0.00    +0.116 A 
ATOM      4  C   UNL     1      -1.259   1.927   0.018  0.00  0.00    +0.076 A 
ATOM      5  C   UNL     1      -2.616   1.383   0.035  0.00  0.00    -0.023 A 
ATOM      6  C   UNL     1      -3.631   2.272   0.049  0.00  0.00    -0.004 A 
ATOM      7  S   UNL     1      -2.849   3.862   0.050  0.00  0.00    -0.073 S 
ATOM      8  C   UNL     1      -5.099   1.972   0.061  0.00  0.00    +0.043 C 
ATOM      9  C   UNL     1      -5.296   0.497  -0.318  0.00  0.00    +0.005 C 
ATOM     10  C   UNL     1      -4.327  -0.355   0.506  0.00  0.00    +0.005 C 
ATOM     11  C   UNL     1      -2.893  -0.118   0.031  0.00  0.00    +0.037 C 
ATOM     12  C   UNL     1      -0.015   1.215   0.009  0.00  0.00    +0.263 A 
ATOM     13  O   UNL     1       0.002  -0.004   0.002  0.00  0.00    -0.267 OA
ATOM     14  N   UNL     1       1.135   1.915   0.002  0.00  0.00    -0.284 N 
ENDROOT
BRANCH   1  15
ATOM     15  C   UNL     1       2.448   4.013   0.001  0.00  0.00    -0.003 C 
BRANCH  15  17
ATOM     16  C   UNL     1       1.567   5.875   1.273  0.00  0.00    -0.095 C 
ATOM     17  N   UNL     1       2.177   5.465  -0.010  0.00  0.00    +0.384 N 
ATOM     18  H   UNL     1       1.523   5.677  -0.772  0.00  0.00    -0.081 HD
BRANCH  17  19
ATOM     19  C   UNL     1       3.433   6.212  -0.234  0.00  0.00    -0.068 C 
ATOM     20  C   UNL     1       4.407   5.982   0.923  0.00  0.00    -0.015 C 
ATOM     21  C   UNL     1       5.696   6.766   0.667  0.00  0.00    -0.002 C 
ATOM     22  C   UNL     1       5.373   8.258   0.562  0.00  0.00    -0.000 C 
ATOM     23  C   UNL     1       4.398   8.488  -0.595  0.00  0.00    -0.002 C 
ATOM     24  C   UNL     1       3.109   7.704  -0.340  0.00  0.00    -0.015 C 
ENDBRANCH  17  19
ENDBRANCH  15  17
ENDBRANCH   1  15
BRANCH  14  25
ATOM     25  C   UNL     1       2.412   1.197  -0.014  0.00  0.00    +0.245 C 
BRANCH  25  26
ATOM     26  C   UNL     1       2.827   0.964  -1.407  0.00  0.00    +0.084 C 
ATOM     27  N   UNL     1       3.147   0.784  -2.482  0.00  0.00    -0.195 NA
ENDBRANCH  25  26
ENDBRANCH  14  25
TORSDOF 5
