REMARK  Name = ZINC08670766
REMARK  13 active torsions:
REMARK  status: ('A' for Active; 'I' for Inactive)
REMARK    1  A    between atoms: C_1  and  C_2
REMARK    2  A    between atoms: C_2  and  C_3
REMARK    3  A    between atoms: C_3  and  C_4
REMARK    4  A    between atoms: C_4  and  C_5
REMARK    5  A    between atoms: C_5  and  C_6
REMARK    6  A    between atoms: C_6  and  N_7
REMARK    7  A    between atoms: C_15  and  S_16
REMARK    8  A    between atoms: S_16  and  C_17
REMARK    9  A    between atoms: C_17  and  C_18
REMARK   10  A    between atoms: C_18  and  C_20
REMARK   11  A    between atoms: C_21  and  N_30
REMARK   12  A    between atoms: N_22  and  C_29
REMARK   13  A    between atoms: N_25  and  C_28
REMARK                            x       y       z     vdW  Elec       q    Type
REMARK                         _______ _______ _______ _____ _____    ______ ____
ROOT
ATOM      1  S   UNL     1      -4.482  -4.655  -2.749  0.00  0.00    -0.080 S 
ENDROOT
BRANCH   1  10
ATOM      2  N   UNL     1      -4.238  -4.543   0.019  0.00  0.00    -0.319 N 
ATOM      3  C   UNL     1      -5.009  -4.804   1.140  0.00  0.00    +0.069 A 
ATOM      4  C   UNL     1      -4.787  -4.704   2.505  0.00  0.00    +0.028 A 
ATOM      5  C   UNL     1      -5.786  -5.051   3.391  0.00  0.00    +0.002 A 
ATOM      6  C   UNL     1      -7.013  -5.500   2.925  0.00  0.00    +0.002 A 
ATOM      7  C   UNL     1      -7.251  -5.606   1.574  0.00  0.00    +0.030 A 
ATOM      8  C   UNL     1      -6.250  -5.258   0.663  0.00  0.00    +0.090 A 
ATOM      9  N   UNL     1      -6.183  -5.254  -0.694  0.00  0.00    -0.222 NA
ATOM     10  C   UNL     1      -5.004  -4.828  -1.075  0.00  0.00    +0.170 A 
BRANCH   2  11
ATOM     11  C   UNL     1      -2.859  -4.046   0.010  0.00  0.00    +0.124 C 
BRANCH  11  12
ATOM     12  C   UNL     1      -2.868  -2.517  -0.006  0.00  0.00    +0.022 C 
BRANCH  12  13
ATOM     13  C   UNL     1      -1.429  -1.998  -0.016  0.00  0.00    +0.002 C 
BRANCH  13  14
ATOM     14  C   UNL     1      -1.438  -0.468  -0.032  0.00  0.00    -0.000 C 
BRANCH  14  16
ATOM     15  C   UNL     1      -0.007   1.580  -0.058  0.00  0.00    +0.004 C 
ATOM     16  C   UNL     1       0.002   0.050  -0.042  0.00  0.00    -0.003 C 
ENDBRANCH  14  16
ENDBRANCH  13  14
ENDBRANCH  12  13
ENDBRANCH  11  12
ENDBRANCH   2  11
ENDBRANCH   1  10
BRANCH   1  17
ATOM     17  C   UNL     1      -5.924  -5.183  -3.715  0.00  0.00    +0.157 C 
BRANCH  17  18
ATOM     18  C   UNL     1      -5.609  -5.083  -5.185  0.00  0.00    +0.182 C 
ATOM     19  O   UNL     1      -4.517  -4.693  -5.546  0.00  0.00    -0.291 OA
BRANCH  18  20
ATOM     20  C   UNL     1      -6.582  -5.442  -6.142  0.00  0.00    +0.120 A 
ATOM     21  C   UNL     1      -6.357  -5.243  -7.515  0.00  0.00    +0.116 A 
ATOM     22  N   UNL     1      -7.329  -5.607  -8.403  0.00  0.00    -0.284 N 
ATOM     23  C   UNL     1      -8.486  -6.146  -7.989  0.00  0.00    +0.333 A 
ATOM     24  O   UNL     1      -9.319  -6.453  -8.819  0.00  0.00    -0.246 OA
ATOM     25  N   UNL     1      -8.757  -6.360  -6.691  0.00  0.00    -0.263 N 
ATOM     26  C   UNL     1      -7.860  -6.041  -5.736  0.00  0.00    +0.269 A 
ATOM     27  O   UNL     1      -8.106  -6.241  -4.561  0.00  0.00    -0.267 OA
ATOM     28  C   UNL     1     -10.040  -6.953  -6.309  0.00  0.00    +0.157 C 
ATOM     29  C   UNL     1      -7.104  -5.403  -9.837  0.00  0.00    +0.155 C 
BRANCH  21  30
ATOM     30  N   UNL     1      -5.190  -4.696  -7.953  0.00  0.00    -0.344 N 
ATOM     31  H   UNL     1      -4.475  -4.513  -7.324  0.00  0.00    +0.144 HD
ATOM     32  H   UNL     1      -5.074  -4.490  -8.893  0.00  0.00    +0.144 HD
ENDBRANCH  21  30
ENDBRANCH  18  20
ENDBRANCH  17  18
ENDBRANCH   1  17
TORSDOF 10
