REMARK  Name = ZINC63513894
REMARK  9 active torsions:
REMARK  status: ('A' for Active; 'I' for Inactive)
REMARK    1  A    between atoms: C_1  and  C_2
REMARK    2  A    between atoms: C_4  and  C_12
REMARK    3  A    between atoms: C_12  and  C_13
REMARK    4  A    between atoms: C_13  and  N_14
REMARK    5  A    between atoms: C_15  and  C_17
REMARK    6  A    between atoms: C_17  and  N_28
REMARK    7  A    between atoms: C_18  and  C_19
REMARK    8  A    between atoms: C_23  and  N_25
REMARK    9  A    between atoms: C_29  and  C_31
REMARK                            x       y       z     vdW  Elec       q    Type
REMARK                         _______ _______ _______ _____ _____    ______ ____
ROOT
ATOM      1  C   UNL     1       1.225  -1.363  -7.245  0.00  0.00    +0.097 C 
ATOM      2  C   UNL     1       0.530  -0.231  -7.503  0.00  0.00    +0.036 C 
ENDROOT
BRANCH   2   3
ATOM      3  C   UNL     1       0.327   0.207  -8.893  0.00  0.00    -0.021 A 
ATOM      4  C   UNL     1       0.513  -0.693  -9.948  0.00  0.00    +0.008 A 
ATOM      5  C   UNL     1       0.321  -0.275 -11.248  0.00  0.00    +0.003 A 
ATOM      6  C   UNL     1      -0.054   1.031 -11.510  0.00  0.00    +0.033 A 
ATOM      7  C   UNL     1      -0.240   1.927 -10.472  0.00  0.00    +0.127 A 
ATOM      8  C   UNL     1      -0.059   1.523  -9.166  0.00  0.00    +0.040 A 
BRANCH   7   9
ATOM      9  N   UNL     1      -0.641   3.322 -10.764  0.00  0.00    +0.056 N 
ATOM     10  O   UNL     1      -0.806   3.677 -11.908  0.00  0.00    -0.126 OA
ATOM     11  O   UNL     1      -0.804   4.106  -9.858  0.00  0.00    -0.126 OA
ENDBRANCH   7   9
ENDBRANCH   2   3
BRANCH   1  13
ATOM     12  N   UNL     1       0.642  -1.254  -4.877  0.00  0.00    -0.310 N 
ATOM     13  C   UNL     1       1.282  -1.894  -5.875  0.00  0.00    +0.258 C 
ATOM     14  O   UNL     1       1.907  -2.912  -5.643  0.00  0.00    -0.269 OA
ATOM     15  H   UNL     1       0.144  -0.443  -5.062  0.00  0.00    +0.149 HD
BRANCH  12  16
ATOM     16  C   UNL     1       0.699  -1.784  -3.512  0.00  0.00    +0.109 C 
BRANCH  16  17
ATOM     17  C   UNL     1      -0.105  -0.876  -2.579  0.00  0.00    +0.052 C 
BRANCH  17  20
ATOM     18  C   UNL     1      -0.161   0.573   0.320  0.00  0.00    +0.035 C 
ATOM     19  C   UNL     1      -0.701  -0.834   0.056  0.00  0.00    +0.103 C 
ATOM     20  C   UNL     1      -0.046  -1.420  -1.175  0.00  0.00    -0.037 C 
ATOM     21  C   UNL     1       0.602  -2.533  -0.761  0.00  0.00    -0.001 A 
ATOM     22  C   UNL     1       1.415  -3.530  -1.466  0.00  0.00    +0.010 A 
ATOM     23  C   UNL     1       1.945  -4.559  -0.766  0.00  0.00    +0.001 A 
ATOM     24  C   UNL     1       1.738  -4.695   0.614  0.00  0.00    +0.002 A 
ATOM     25  C   UNL     1       1.003  -3.819   1.331  0.00  0.00    +0.026 A 
ATOM     26  C   UNL     1       0.398  -2.699   0.696  0.00  0.00    +0.043 A 
ATOM     27  N   UNL     1      -0.349  -1.727   1.165  0.00  0.00    -0.378 N 
ATOM     28  H   UNL     1      -0.622  -1.617   2.089  0.00  0.00    +0.160 HD
ENDBRANCH  17  20
ENDBRANCH  16  17
ENDBRANCH  12  16
ENDBRANCH   1  13
BRANCH   1  29
ATOM     29  N   UNL     1       1.889  -2.027  -8.281  0.00  0.00    -0.277 N 
ATOM     30  C   UNL     1       1.607  -3.319  -8.542  0.00  0.00    +0.250 C 
ATOM     31  O   UNL     1       0.847  -3.933  -7.820  0.00  0.00    -0.270 OA
ATOM     32  H   UNL     1       2.552  -1.558  -8.811  0.00  0.00    +0.155 HD
BRANCH  30  33
ATOM     33  C   UNL     1       2.223  -3.988  -9.707  0.00  0.00    +0.055 A 
ATOM     34  C   UNL     1       3.107  -3.288 -10.531  0.00  0.00    +0.014 A 
ATOM     35  C   UNL     1       3.678  -3.918 -11.617  0.00  0.00    +0.001 A 
ATOM     36  C   UNL     1       3.378  -5.242 -11.890  0.00  0.00    +0.001 A 
ATOM     37  C   UNL     1       2.503  -5.941 -11.079  0.00  0.00    +0.021 A 
ATOM     38  C   UNL     1       1.928  -5.325  -9.985  0.00  0.00    +0.053 A 
ATOM     39 CL   UNL     1       0.837  -6.206  -8.963  0.00  0.00    -0.083 Cl
ENDBRANCH  30  33
ENDBRANCH   1  29
TORSDOF 8
