REMARK  Name = ZINC58880741
REMARK  10 active torsions:
REMARK  status: ('A' for Active; 'I' for Inactive)
REMARK    1  A    between atoms: C_1  and  C_2
REMARK    2  A    between atoms: C_2  and  C_3
REMARK    3  A    between atoms: C_2  and  N_4
REMARK    4  A    between atoms: C_5  and  C_7
REMARK    5  A    between atoms: C_7  and  O_8
REMARK    6  A    between atoms: O_8  and  C_9
REMARK    7  A    between atoms: C_12  and  C_15
REMARK    8  A    between atoms: N_16  and  N_17
REMARK    9  A    between atoms: C_18  and  C_20
REMARK   10  A    between atoms: N_22  and  C_23
REMARK                            x       y       z     vdW  Elec       q    Type
REMARK                         _______ _______ _______ _____ _____    ______ ____
ROOT
ATOM      1  C   UNL     1       1.942  -2.979   9.572  0.00  0.00    +0.138 C 
ATOM      2  N   UNL     1       1.168  -3.065  10.612  0.00  0.00    -0.187 NA
ENDROOT
BRANCH   1   6
ATOM      3  C   UNL     1       0.381  -1.600   5.873  0.00  0.00    +0.121 A 
ATOM      4  C   UNL     1       1.720  -1.958   5.969  0.00  0.00    +0.046 A 
ATOM      5  C   UNL     1       2.231  -2.406   7.168  0.00  0.00    +0.013 A 
ATOM      6  C   UNL     1       1.400  -2.500   8.288  0.00  0.00    -0.005 A 
ATOM      7  C   UNL     1       0.054  -2.138   8.186  0.00  0.00    +0.013 A 
ATOM      8  C   UNL     1      -0.447  -1.686   6.985  0.00  0.00    +0.046 A 
BRANCH   3   9
ATOM      9  O   UNL     1      -0.118  -1.158   4.689  0.00  0.00    -0.483 OA
BRANCH   9  10
ATOM     10  C   UNL     1       0.788  -1.094   3.587  0.00  0.00    +0.324 C 
BRANCH  10  12
ATOM     11  N   UNL     1       0.720  -0.443   1.201  0.00  0.00    -0.310 N 
ATOM     12  C   UNL     1       0.061  -0.586   2.368  0.00  0.00    +0.251 C 
ATOM     13  O   UNL     1      -1.117  -0.306   2.438  0.00  0.00    -0.272 OA
ATOM     14  H   UNL     1       1.662  -0.666   1.146  0.00  0.00    +0.149 HD
BRANCH  11  16
ATOM     15  C   UNL     1       0.003   1.581   0.030  0.00  0.00    +0.027 C 
ATOM     16  C   UNL     1       0.014   0.051   0.017  0.00  0.00    +0.067 C 
ATOM     17  C   UNL     1       0.725  -0.443  -1.244  0.00  0.00    +0.027 C 
ENDBRANCH  11  16
ENDBRANCH  10  12
ENDBRANCH   9  10
ENDBRANCH   3   9
ENDBRANCH   1   6
BRANCH   2  18
ATOM     18  N   UNL     1       1.683  -3.521  11.832  0.00  0.00    -0.199 N 
ATOM     19  C   UNL     1       0.880  -3.610  12.911  0.00  0.00    +0.318 C 
ATOM     20  O   UNL     1      -0.290  -3.296  12.825  0.00  0.00    -0.263 OA
ATOM     21  H   UNL     1       2.617  -3.772  11.901  0.00  0.00    +0.178 HD
BRANCH  19  22
ATOM     22  C   UNL     1       1.428  -4.095  14.210  0.00  0.00    +0.305 C 
ATOM     23  O   UNL     1       2.597  -4.410  14.296  0.00  0.00    -0.265 OA
ATOM     24  N   UNL     1       0.625  -4.184  15.289  0.00  0.00    -0.278 N 
ATOM     25  H   UNL     1      -0.291  -3.870  15.239  0.00  0.00    +0.155 HD
BRANCH  24  26
ATOM     26  C   UNL     1       1.113  -4.729  16.480  0.00  0.00    +0.034 A 
ATOM     27  C   UNL     1       0.279  -5.487  17.291  0.00  0.00    +0.023 A 
ATOM     28  C   UNL     1       0.764  -6.024  18.467  0.00  0.00    +0.002 A 
ATOM     29  C   UNL     1       2.079  -5.808  18.837  0.00  0.00    +0.000 A 
ATOM     30  C   UNL     1       2.912  -5.054  18.032  0.00  0.00    +0.002 A 
ATOM     31  C   UNL     1       2.435  -4.518  16.852  0.00  0.00    +0.023 A 
ENDBRANCH  24  26
ENDBRANCH  19  22
ENDBRANCH   2  18
TORSDOF 8
