REMARK  Name = ZINC08680910
REMARK  9 active torsions:
REMARK  status: ('A' for Active; 'I' for Inactive)
REMARK    1  A    between atoms: C_1  and  C_2
REMARK    2  A    between atoms: C_2  and  C_3
REMARK    3  A    between atoms: C_6  and  C_9
REMARK    4  A    between atoms: C_14  and  C_27
REMARK    5  A    between atoms: N_16  and  C_19
REMARK    6  A    between atoms: C_24  and  O_25
REMARK    7  A    between atoms: O_25  and  C_26
REMARK    8  A    between atoms: C_30  and  C_33
REMARK    9  A    between atoms: C_33  and  C_34
REMARK                            x       y       z     vdW  Elec       q    Type
REMARK                         _______ _______ _______ _____ _____    ______ ____
ROOT
ATOM      1  C   UNL     1       3.061  -1.901  -4.229  0.00  0.00    +0.141 C 
ATOM      2  C   UNL     1       3.128  -3.394  -4.384  0.00  0.00    +0.075 C 
ATOM      3  C   UNL     1       4.318  -4.031  -4.574  0.00  0.00    +0.101 C 
ATOM      4  N   UNL     1       4.333  -5.403  -4.680  0.00  0.00    -0.310 N 
ATOM      5  C   UNL     1       3.147  -6.078  -5.220  0.00  0.00    +0.199 C 
ATOM      6  N   UNL     1       1.946  -5.457  -4.652  0.00  0.00    -0.241 N 
ATOM      7  C   UNL     1       1.945  -4.153  -4.324  0.00  0.00    +0.254 C 
ATOM      8  O   UNL     1       0.906  -3.622  -3.970  0.00  0.00    -0.270 OA
ATOM      9  N   UNL     1       5.491  -3.324  -4.657  0.00  0.00    -0.285 N 
ATOM     10  C   UNL     1       5.498  -1.986  -4.537  0.00  0.00    +0.136 C 
ATOM     11  N   UNL     1       4.377  -1.289  -4.331  0.00  0.00    -0.315 N 
ATOM     12  S   UNL     1       6.988  -1.150  -4.652  0.00  0.00    -0.019 S 
ATOM     13  H   UNL     1       5.111  -5.912  -4.404  0.00  0.00    +0.149 HD
ATOM     14  H   UNL     1       4.444  -0.325  -4.245  0.00  0.00    +0.149 HD
ATOM     15  H   UNL     1       6.325  -3.796  -4.804  0.00  0.00    +0.155 HD
ENDROOT
BRANCH   1  19
ATOM     16  C   UNL     1       1.384  -0.974  -0.411  0.00  0.00    -0.048 A 
ATOM     17  C   UNL     1       0.589  -0.942  -1.542  0.00  0.00    +0.004 A 
ATOM     18  C   UNL     1       1.132  -1.242  -2.777  0.00  0.00    +0.006 A 
ATOM     19  C   UNL     1       2.470  -1.574  -2.882  0.00  0.00    -0.023 A 
ATOM     20  C   UNL     1       3.265  -1.605  -1.752  0.00  0.00    +0.006 A 
ATOM     21  C   UNL     1       2.723  -1.301  -0.517  0.00  0.00    +0.004 A 
BRANCH  16  23
ATOM     22  C   UNL     1       0.916   0.855   1.196  0.00  0.00    +0.009 C 
ATOM     23  C   UNL     1       0.793  -0.647   0.936  0.00  0.00    +0.032 C 
ENDBRANCH  16  23
ENDBRANCH   1  19
BRANCH   6  24
ATOM     24  C   UNL     1       0.794  -6.227  -4.450  0.00  0.00    +0.080 A 
ATOM     25  C   UNL     1      -0.293  -6.089  -5.301  0.00  0.00    +0.027 A 
ATOM     26  C   UNL     1      -1.429  -6.851  -5.100  0.00  0.00    +0.002 A 
ATOM     27  C   UNL     1      -1.486  -7.750  -4.051  0.00  0.00    +0.004 A 
ATOM     28  C   UNL     1      -0.406  -7.893  -3.198  0.00  0.00    +0.047 A 
ATOM     29  C   UNL     1       0.738  -7.138  -3.397  0.00  0.00    +0.141 A 
BRANCH  29  30
ATOM     30  O   UNL     1       1.802  -7.280  -2.562  0.00  0.00    -0.493 OA
ATOM     31  C   UNL     1       1.673  -8.233  -1.504  0.00  0.00    +0.277 C 
ENDBRANCH  29  30
ENDBRANCH   6  24
BRANCH   5  32
ATOM     32  C   UNL     1       3.127  -5.940  -6.721  0.00  0.00    -0.009 A 
ATOM     33  C   UNL     1       1.937  -6.071  -7.411  0.00  0.00    +0.007 A 
ATOM     34  C   UNL     1       1.919  -5.944  -8.788  0.00  0.00    +0.004 A 
ATOM     35  C   UNL     1       3.091  -5.686  -9.473  0.00  0.00    -0.048 A 
ATOM     36  C   UNL     1       4.281  -5.553  -8.783  0.00  0.00    +0.004 A 
ATOM     37  C   UNL     1       4.298  -5.676  -7.406  0.00  0.00    +0.007 A 
BRANCH  35  38
ATOM     38  C   UNL     1       3.071  -5.548 -10.974  0.00  0.00    +0.032 C 
ATOM     39  C   UNL     1       2.829  -4.085 -11.349  0.00  0.00    +0.009 C 
ENDBRANCH  35  38
ENDBRANCH   5  32
TORSDOF 6
