REMARK  Name = ZINC36263922
REMARK  7 active torsions:
REMARK  status: ('A' for Active; 'I' for Inactive)
REMARK    1  A    between atoms: C_1  and  C_2
REMARK    2  A    between atoms: C_4  and  N_19
REMARK    3  A    between atoms: C_6  and  S_9
REMARK    4  A    between atoms: C_7  and  C_8
REMARK    5  A    between atoms: S_9  and  N_12
REMARK    6  A    between atoms: N_12  and  C_13
REMARK    7  A    between atoms: C_16  and  N_18
REMARK                            x       y       z     vdW  Elec       q    Type
REMARK                         _______ _______ _______ _____ _____    ______ ____
ROOT
ATOM      1  S   UNL     1       0.070  -2.815   2.511  0.00  0.00    +0.059 S 
ATOM      2  O   UNL     1      -0.011  -4.183   2.134  0.00  0.00    -0.153 OA
ATOM      3  O   UNL     1       1.181  -2.285   3.221  0.00  0.00    -0.153 OA
ENDROOT
BRANCH   1   9
ATOM      4  C   UNL     1      -0.240   1.751  -0.013  0.00  0.00    +0.044 C 
ATOM      5  C   UNL     1      -0.215   0.246  -0.076  0.00  0.00    -0.044 A 
ATOM      6  C   UNL     1      -0.308  -0.397  -1.296  0.00  0.00    +0.036 A 
ATOM      7  C   UNL     1      -0.285  -1.778  -1.354  0.00  0.00    +0.128 A 
ATOM      8  C   UNL     1      -0.170  -2.516  -0.191  0.00  0.00    +0.061 A 
ATOM      9  C   UNL     1      -0.077  -1.874   1.029  0.00  0.00    +0.111 A 
ATOM     10  C   UNL     1      -0.095  -0.492   1.087  0.00  0.00    -0.021 A 
ATOM     11  C   UNL     1       0.012   0.208   2.417  0.00  0.00    +0.046 C 
BRANCH   7  12
ATOM     12  N   UNL     1      -0.385  -2.465  -2.661  0.00  0.00    +0.056 N 
ATOM     13  O   UNL     1      -0.487  -1.819  -3.678  0.00  0.00    -0.126 OA
ATOM     14  O   UNL     1      -0.366  -3.673  -2.711  0.00  0.00    -0.126 OA
ENDBRANCH   7  12
ENDBRANCH   1   9
BRANCH   1  15
ATOM     15  N   UNL     1      -1.273  -2.498   3.428  0.00  0.00    -0.189 NA
ATOM     16  H   UNL     1      -1.182  -2.042   4.279  0.00  0.00    +0.148 HD
BRANCH  15  17
ATOM     17  C   UNL     1      -2.597  -2.905   2.952  0.00  0.00    +0.061 C 
ATOM     18  C   UNL     1      -3.783  -2.006   3.309  0.00  0.00    +0.004 C 
ATOM     19  C   UNL     1      -3.614  -3.361   4.000  0.00  0.00    -0.055 C 
BRANCH  19  20
ATOM     20  N   UNL     1      -4.542  -4.435   3.622  0.00  0.00    +0.381 N 
ATOM     21  H   UNL     1      -4.018  -5.263   3.381  0.00  0.00    -0.090 HD
ATOM     22  H   UNL     1      -5.155  -4.639   4.397  0.00  0.00    -0.090 HD
ATOM     23  H   UNL     1      -5.091  -4.141   2.828  0.00  0.00    -0.090 HD
ENDBRANCH  19  20
ENDBRANCH  15  17
ENDBRANCH   1  15
TORSDOF 5
