REMARK  Name = ZINC20355972
REMARK  9 active torsions:
REMARK  status: ('A' for Active; 'I' for Inactive)
REMARK    1  A    between atoms: C_1  and  C_2
REMARK    2  A    between atoms: C_2  and  C_3
REMARK    3  A    between atoms: C_2  and  C_4
REMARK    4  A    between atoms: C_7  and  S_10
REMARK    5  A    between atoms: S_10  and  C_13
REMARK    6  A    between atoms: N_26  and  C_27
REMARK    7  A    between atoms: C_27  and  C_28
REMARK    8  A    between atoms: C_28  and  N_29
REMARK    9  A    between atoms: C_30  and  C_32
REMARK                            x       y       z     vdW  Elec       q    Type
REMARK                         _______ _______ _______ _____ _____    ______ ____
ROOT
ATOM      1  C   UNL     1      -4.619   0.847   0.049  0.00  0.00    +0.249 A 
ATOM      2  C   UNL     1      -3.609   1.793   0.045  0.00  0.00    +0.204 A 
ATOM      3  N   UNL     1      -3.632   3.138   0.052  0.00  0.00    -0.209 NA
ATOM      4  C   UNL     1      -2.528   3.853   0.045  0.00  0.00    +0.130 A 
ATOM      5  C   UNL     1      -1.230   3.162   0.030  0.00  0.00    +0.040 A 
ATOM      6  C   UNL     1      -0.025   3.865   0.023  0.00  0.00    +0.013 A 
ATOM      7  C   UNL     1       1.165   3.172   0.008  0.00  0.00    +0.001 A 
ATOM      8  C   UNL     1       1.171   1.784   0.001  0.00  0.00    +0.002 A 
ATOM      9  C   UNL     1      -0.013   1.076   0.008  0.00  0.00    +0.028 A 
ATOM     10  C   UNL     1      -1.222   1.756   0.017  0.00  0.00    +0.080 A 
ATOM     11  N   UNL     1      -2.434   1.089   0.031  0.00  0.00    -0.192 N 
ATOM     12  N   UNL     1      -2.782  -0.267   0.027  0.00  0.00    -0.057 NA
ATOM     13  N   UNL     1      -4.066  -0.360   0.038  0.00  0.00    -0.108 NA
ATOM     14  N   UNL     1      -2.587   5.232   0.053  0.00  0.00    -0.327 N 
ATOM     15  H   UNL     1      -1.659   5.822   0.048  0.00  0.00    +0.148 HD
ENDROOT
BRANCH   1  16
ATOM     16  S   UNL     1      -6.347   1.187   0.067  0.00  0.00    +0.047 S 
ATOM     17  O   UNL     1      -6.981   0.041   0.617  0.00  0.00    -0.163 OA
ATOM     18  O   UNL     1      -6.501   2.485   0.625  0.00  0.00    -0.163 OA
BRANCH  16  22
ATOM     19  C   UNL     1      -7.700   1.467  -4.244  0.00  0.00    -0.045 A 
ATOM     20  C   UNL     1      -7.724   0.249  -3.590  0.00  0.00    +0.006 A 
ATOM     21  C   UNL     1      -7.311   0.164  -2.273  0.00  0.00    +0.028 A 
ATOM     22  C   UNL     1      -6.874   1.296  -1.611  0.00  0.00    +0.095 A 
ATOM     23  C   UNL     1      -6.854   2.514  -2.264  0.00  0.00    +0.028 A 
ATOM     24  C   UNL     1      -7.263   2.599  -3.582  0.00  0.00    +0.006 A 
BRANCH  19  26
ATOM     25  C   UNL     1      -9.330   2.526  -5.783  0.00  0.00    +0.012 C 
ATOM     26  C   UNL     1      -8.149   1.560  -5.680  0.00  0.00    +0.013 C 
ATOM     27  C   UNL     1      -6.994   2.071  -6.543  0.00  0.00    +0.012 C 
ENDBRANCH  19  26
ENDBRANCH  16  22
ENDBRANCH   1  16
BRANCH  14  28
ATOM     28  C   UNL     1      -3.885   5.909   0.068  0.00  0.00    +0.121 C 
BRANCH  28  29
ATOM     29  C   UNL     1      -3.670   7.424   0.075  0.00  0.00    +0.123 C 
BRANCH  29  30
ATOM     30  N   UNL     1      -4.969   8.102   0.090  0.00  0.00    -0.314 N 
ATOM     31  C   UNL     1      -5.027   9.448   0.097  0.00  0.00    +0.210 C 
ATOM     32  O   UNL     1      -4.003  10.099   0.092  0.00  0.00    -0.276 OA
ATOM     33  C   UNL     1      -6.362  10.146   0.113  0.00  0.00    +0.109 C 
ATOM     34  H   UNL     1      -5.897   7.512   0.095  0.00  0.00    +0.149 HD
ENDBRANCH  29  30
ENDBRANCH  28  29
ENDBRANCH  14  28
TORSDOF 6
