REMARK  Name = ZINC00628272
REMARK  4 active torsions:
REMARK  status: ('A' for Active; 'I' for Inactive)
REMARK    1  A    between atoms: C_12  and  S_13
REMARK    2  A    between atoms: S_13  and  C_14
REMARK    3  A    between atoms: C_14  and  C_15
REMARK    4  A    between atoms: N_17  and  C_18
REMARK                            x       y       z     vdW  Elec       q    Type
REMARK                         _______ _______ _______ _____ _____    ______ ____
ROOT
ATOM      1  C   UNL     1       3.677   5.920  -0.510  0.00  0.00    +0.173 C 
ENDROOT
BRANCH   1   2
ATOM      2  C   UNL     1       2.370   5.180  -0.393  0.00  0.00    +0.228 C 
ATOM      3  O   UNL     1       1.328   5.744  -0.653  0.00  0.00    -0.275 OA
ATOM      4  N   UNL     1       2.358   3.890  -0.001  0.00  0.00    -0.282 N 
ATOM      5  H   UNL     1       3.182   3.461   0.277  0.00  0.00    +0.155 HD
BRANCH   4   6
ATOM      6  C   UNL     1       1.156   3.171   0.007  0.00  0.00    +0.071 A 
ATOM      7  C   UNL     1       0.749   2.485  -1.130  0.00  0.00    +0.065 A 
ATOM      8  C   UNL     1      -0.438   1.776  -1.120  0.00  0.00    +0.042 A 
ATOM      9  C   UNL     1      -1.223   1.755   0.019  0.00  0.00    +0.044 A 
ATOM     10  C   UNL     1      -0.818   2.433   1.155  0.00  0.00    +0.042 A 
ATOM     11  C   UNL     1       0.368   3.144   1.151  0.00  0.00    +0.065 A 
ATOM     12 CL   UNL     1       0.874   3.999   2.575  0.00  0.00    -0.082 Cl
ATOM     13 CL   UNL     1      -2.717   0.870   0.026  0.00  0.00    -0.083 Cl
ATOM     14 CL   UNL     1       1.729   2.517  -2.562  0.00  0.00    -0.082 Cl
ENDBRANCH   4   6
ENDBRANCH   1   2
BRANCH   1  15
ATOM     15  S   UNL     1       3.362   7.621  -1.056  0.00  0.00    -0.076 S 
BRANCH  15  27
ATOM     16  C   UNL     1       2.491  11.998  -2.467  0.00  0.00    +0.002 A 
ATOM     17  C   UNL     1       3.228  13.135  -2.753  0.00  0.00    +0.001 A 
ATOM     18  C   UNL     1       4.605  13.096  -2.625  0.00  0.00    +0.017 A 
ATOM     19  C   UNL     1       5.215  11.932  -2.218  0.00  0.00    +0.040 A 
ATOM     20  C   UNL     1       4.498  10.768  -1.922  0.00  0.00    +0.065 A 
ATOM     21  C   UNL     1       3.102  10.836  -2.060  0.00  0.00    +0.027 A 
ATOM     22  N   UNL     1       5.244   9.650  -1.518  0.00  0.00    -0.264 N 
ATOM     23  C   UNL     1       6.606   9.777  -1.443  0.00  0.00    +0.202 A 
ATOM     24  S   UNL     1       6.904  11.460  -1.932  0.00  0.00    -0.048 S 
ATOM     25  N   UNL     1       7.135   8.655  -1.056  0.00  0.00    -0.121 NA
ATOM     26  N   UNL     1       6.091   7.741  -0.859  0.00  0.00    -0.121 NA
ATOM     27  C   UNL     1       4.966   8.345  -1.143  0.00  0.00    +0.197 A 
ENDBRANCH  15  27
ENDBRANCH   1  15
TORSDOF 4
