REMARK  Name = ZINC01508150
REMARK  5 active torsions:
REMARK  status: ('A' for Active; 'I' for Inactive)
REMARK    1  A    between atoms: C_5  and  C_7
REMARK    2  A    between atoms: C_16  and  C_24
REMARK    3  A    between atoms: C_17  and  N_23
REMARK    4  A    between atoms: C_18  and  C_19
REMARK    5  A    between atoms: C_18  and  C_21
REMARK                            x       y       z     vdW  Elec       q    Type
REMARK                         _______ _______ _______ _____ _____    ______ ____
ROOT
ATOM      1  C   UNL     1      -0.019   1.525   0.010  0.00  0.00    +0.067 C 
ATOM      2  C   UNL     1       1.486   1.760   0.146  0.00  0.00    +0.030 C 
ATOM      3  C   UNL     1       1.807   3.169   0.582  0.00  0.00    +0.009 C 
ATOM      4  C   UNL     1       2.242   4.046  -0.590  0.00  0.00    +0.005 C 
ATOM      5  C   UNL     1       3.472   3.402  -1.245  0.00  0.00    +0.027 C 
ATOM      6  C   UNL     1       3.060   2.047  -1.760  0.00  0.00    -0.022 C 
ATOM      7  C   UNL     1       2.146   1.334  -1.132  0.00  0.00    -0.029 C 
ATOM      8  C   UNL     1       1.724   0.027  -1.701  0.00  0.00    +0.074 C 
ATOM      9  C   UNL     1       0.588  -0.558  -1.244  0.00  0.00    +0.054 C 
ATOM     10  C   UNL     1      -0.271   0.027  -0.165  0.00  0.00    +0.188 C 
ENDROOT
BRANCH   1  15
ATOM     11  C   UNL     1      -0.932   2.046   3.636  0.00  0.00    +0.000 A 
ATOM     12  C   UNL     1      -2.005   2.911   3.530  0.00  0.00    +0.001 A 
ATOM     13  C   UNL     1      -2.436   3.328   2.285  0.00  0.00    +0.015 A 
ATOM     14  C   UNL     1      -1.790   2.883   1.145  0.00  0.00    +0.021 A 
ATOM     15  C   UNL     1      -0.720   2.014   1.252  0.00  0.00    -0.027 A 
ATOM     16  C   UNL     1      -0.289   1.597   2.498  0.00  0.00    +0.005 A 
ATOM     17 BR   UNL     1      -2.374   3.459  -0.559  0.00  0.00    -0.050 Br
ENDBRANCH   1  15
BRANCH   9  18
ATOM     18  N   UNL     1       0.206  -1.748  -1.799  0.00  0.00    -0.358 N 
ATOM     19  H   UNL     1      -0.709  -2.248  -1.451  0.00  0.00    +0.142 HD
ATOM     20  H   UNL     1       0.815  -2.204  -2.594  0.00  0.00    +0.142 HD
ENDBRANCH   9  18
BRANCH  10  21
ATOM     21  C   UNL     1       0.018  -0.660   1.105  0.00  0.00    +0.091 C 
ATOM     22  N   UNL     1       0.241  -1.190   2.084  0.00  0.00    -0.194 NA
ENDBRANCH  10  21
BRANCH  10  23
ATOM     23  C   UNL     1      -1.686  -0.184  -0.512  0.00  0.00    +0.091 C 
ATOM     24  N   UNL     1      -2.778  -0.346  -0.781  0.00  0.00    -0.194 NA
ENDBRANCH  10  23
BRANCH   8  25
ATOM     25  C   UNL     1       2.505  -0.606  -2.720  0.00  0.00    +0.101 C 
ATOM     26  N   UNL     1       3.126  -1.109  -3.528  0.00  0.00    -0.191 NA
ENDBRANCH   8  25
TORSDOF 5
