REMARK  Name = ZINC04517557
REMARK  13 active torsions:
REMARK  status: ('A' for Active; 'I' for Inactive)
REMARK    1  A    between atoms: C_1  and  C_2
REMARK    2  A    between atoms: C_2  and  N_57
REMARK    3  A    between atoms: C_3  and  C_4
REMARK    4  A    between atoms: C_3  and  N_57
REMARK    5  A    between atoms: C_5  and  C_6
REMARK    6  A    between atoms: C_5  and  N_57
REMARK    7  A    between atoms: C_8  and  N_13
REMARK    8  A    between atoms: C_11  and  O_12
REMARK    9  A    between atoms: N_13  and  C_14
REMARK   10  A    between atoms: C_14  and  C_15
REMARK   11  A    between atoms: C_15  and  C_17
REMARK   12  A    between atoms: C_15  and  O_31
REMARK   13  A    between atoms: C_17  and  N_18
REMARK                            x       y       z     vdW  Elec       q    Type
REMARK                         _______ _______ _______ _____ _____    ______ ____
ROOT
ATOM      1  C   UNL     1       4.091   0.132  -1.452  0.00  0.00    +0.134 C 
ENDROOT
BRANCH   1   2
ATOM      2  N   UNL     1       4.551   0.023  -2.839  0.00  0.00    -0.341 N 
ATOM      3  H   UNL     1       3.988   0.341  -3.562  0.00  0.00    +0.146 HD
BRANCH   2   6
ATOM      4  C   UNL     1       7.470  -1.200  -4.710  0.00  0.00    -0.021 A 
ATOM      5  C   UNL     1       6.236  -0.644  -4.434  0.00  0.00    +0.028 A 
ATOM      6  C   UNL     1       5.800  -0.540  -3.120  0.00  0.00    +0.028 A 
ATOM      7  C   UNL     1       6.608  -0.990  -2.083  0.00  0.00    +0.026 A 
ATOM      8  C   UNL     1       7.839  -1.551  -2.362  0.00  0.00    +0.047 A 
ATOM      9  C   UNL     1       8.274  -1.655  -3.675  0.00  0.00    +0.118 A 
BRANCH   9  10
ATOM     10  O   UNL     1       9.488  -2.202  -3.948  0.00  0.00    -0.507 OA
ATOM     11  H   UNL     1      10.223  -1.576  -3.891  0.00  0.00    +0.292 HD
ENDBRANCH   9  10
BRANCH   4  12
ATOM     12  C   UNL     1       7.943  -1.313  -6.136  0.00  0.00    -0.039 C 
BRANCH  12  13
ATOM     13  N   UNL     1       7.857  -2.728  -6.555  0.00  0.00    +0.382 N 
ATOM     14  H   UNL     1       8.253  -3.319  -5.814  0.00  0.00    -0.081 HD
BRANCH  13  16
ATOM     15  C   UNL     1       5.847  -2.312  -7.931  0.00  0.00    -0.017 C 
ATOM     16  C   UNL     1       6.445  -3.107  -6.769  0.00  0.00    -0.082 C 
ENDBRANCH  13  16
BRANCH  13  17
ATOM     17  C   UNL     1       8.630  -2.935  -7.798  0.00  0.00    -0.082 C 
ATOM     18  C   UNL     1       8.819  -4.437  -8.015  0.00  0.00    -0.017 C 
ENDBRANCH  13  17
ENDBRANCH  12  13
ENDBRANCH   4  12
ENDBRANCH   2   6
ENDBRANCH   1   2
BRANCH   1  19
ATOM     19  C   UNL     1       2.705   0.779  -1.423  0.00  0.00    +0.151 C 
BRANCH  19  20
ATOM     20  O   UNL     1       1.764  -0.084  -2.066  0.00  0.00    -0.388 OA
ATOM     21  H   UNL     1       1.682  -0.954  -1.652  0.00  0.00    +0.210 HD
ENDBRANCH  19  20
BRANCH  19  22
ATOM     22  C   UNL     1       2.279   1.007   0.028  0.00  0.00    +0.159 C 
BRANCH  22  23
ATOM     23  N   UNL     1       0.951   1.626   0.056  0.00  0.00    -0.296 N 
ATOM     24  C   UNL     1       0.839   2.980   0.047  0.00  0.00    +0.202 A 
ATOM     25  N   UNL     1      -0.300   3.602   0.069  0.00  0.00    -0.237 NA
ATOM     26  C   UNL     1      -1.478   2.929   0.104  0.00  0.00    +0.079 A 
ATOM     27  C   UNL     1      -2.703   3.598   0.128  0.00  0.00    +0.050 A 
ATOM     28  C   UNL     1      -3.875   2.875   0.149  0.00  0.00    +0.061 A 
ATOM     29  C   UNL     1      -3.854   1.484   0.160  0.00  0.00    +0.060 A 
ATOM     30  C   UNL     1      -2.656   0.802   0.141  0.00  0.00    +0.036 A 
ATOM     31  C   UNL     1      -1.460   1.517   0.111  0.00  0.00    +0.066 A 
ATOM     32  C   UNL     1      -0.153   0.843   0.090  0.00  0.00    +0.262 A 
ATOM     33  O   UNL     1      -0.067  -0.371   0.099  0.00  0.00    -0.267 OA
ATOM     34 CL   UNL     1      -5.347   0.600   0.198  0.00  0.00    -0.082 Cl
ATOM     35 CL   UNL     1      -5.397   3.709   0.173  0.00  0.00    -0.082 Cl
ENDBRANCH  22  23
ENDBRANCH  19  22
ENDBRANCH   1  19
TORSDOF 11
