REMARK  Name = ZINC20738535
REMARK  7 active torsions:
REMARK  status: ('A' for Active; 'I' for Inactive)
REMARK    1  A    between atoms: C_4  and  C_7
REMARK    2  A    between atoms: C_7  and  C_8
REMARK    3  A    between atoms: C_8  and  C_10
REMARK    4  A    between atoms: C_8  and  N_16
REMARK    5  A    between atoms: N_16  and  C_17
REMARK    6  A    between atoms: C_20  and  N_26
REMARK    7  A    between atoms: C_22  and  N_23
REMARK                            x       y       z     vdW  Elec       q    Type
REMARK                         _______ _______ _______ _____ _____    ______ ____
ROOT
ATOM      1  C   UNL     1       4.174   0.676   3.459  0.00  0.00    +0.058 A 
ATOM      2  C   UNL     1       3.705  -0.481   4.069  0.00  0.00    +0.027 A 
ATOM      3  C   UNL     1       3.831  -0.640   5.435  0.00  0.00    +0.026 A 
ATOM      4  C   UNL     1       4.424   0.356   6.199  0.00  0.00    +0.046 A 
ATOM      5  C   UNL     1       4.892   1.512   5.589  0.00  0.00    +0.058 A 
ATOM      6  C   UNL     1       4.773   1.669   4.223  0.00  0.00    +0.149 A 
ENDROOT
BRANCH   4   7
ATOM      7  N   UNL     1       4.550   0.194   7.587  0.00  0.00    -0.210 N 
ATOM      8  C   UNL     1       4.993   1.169   8.401  0.00  0.00    +0.230 C 
ATOM      9  O   UNL     1       5.193   2.323   8.090  0.00  0.00    -0.275 OA
ATOM     10  C   UNL     1       5.198   0.562   9.788  0.00  0.00    +0.088 C 
ATOM     11  C   UNL     1       6.681   0.299   9.968  0.00  0.00    +0.013 C 
ATOM     12  C   UNL     1       6.959  -0.819  10.962  0.00  0.00    +0.001 C 
ATOM     13  C   UNL     1       6.282  -2.098  10.456  0.00  0.00    +0.001 C 
ATOM     14  C   UNL     1       4.774  -1.884  10.493  0.00  0.00    +0.013 C 
ATOM     15  C   UNL     1       4.316  -0.676   9.710  0.00  0.00    +0.088 C 
ATOM     16  C   UNL     1       4.234  -0.949   8.225  0.00  0.00    +0.230 C 
ATOM     17  O   UNL     1       3.938  -2.003   7.704  0.00  0.00    -0.275 OA
ENDBRANCH   4   7
BRANCH   6  18
ATOM     18  N   UNL     1       5.277   2.900   3.572  0.00  0.00    +0.058 N 
ATOM     19  O   UNL     1       5.804   2.837   2.486  0.00  0.00    -0.126 OA
ATOM     20  O   UNL     1       5.163   3.968   4.128  0.00  0.00    -0.126 OA
ENDBRANCH   6  18
BRANCH   1  21
ATOM     21  N   UNL     1       4.047   0.838   2.076  0.00  0.00    -0.335 N 
ATOM     22  H   UNL     1       4.298   1.677   1.661  0.00  0.00    +0.147 HD
BRANCH  21  23
ATOM     23  C   UNL     1       3.535  -0.261   1.254  0.00  0.00    +0.105 C 
BRANCH  23  24
ATOM     24  C   UNL     1       4.666  -1.191   0.896  0.00  0.00    -0.027 A 
ATOM     25  C   UNL     1       5.907  -0.676   0.571  0.00  0.00    +0.005 A 
ATOM     26  C   UNL     1       6.944  -1.528   0.243  0.00  0.00    +0.000 A 
ATOM     27  C   UNL     1       6.741  -2.896   0.241  0.00  0.00    +0.000 A 
ATOM     28  C   UNL     1       5.500  -3.411   0.567  0.00  0.00    +0.000 A 
ATOM     29  C   UNL     1       4.464  -2.558   0.899  0.00  0.00    +0.005 A 
ENDBRANCH  23  24
BRANCH  23  30
ATOM     30  C   UNL     1       2.916   0.304  -0.025  0.00  0.00    +0.062 C 
BRANCH  30  34
ATOM     31  C   UNL     1      -0.506   2.662   0.968  0.00  0.00    +0.000 A 
ATOM     32  C   UNL     1       0.743   3.250   0.900  0.00  0.00    +0.000 A 
ATOM     33  C   UNL     1       1.851   2.487   0.579  0.00  0.00    +0.004 A 
ATOM     34  C   UNL     1       1.709   1.136   0.326  0.00  0.00    -0.045 A 
ATOM     35  C   UNL     1       0.460   0.547   0.394  0.00  0.00    +0.004 A 
ATOM     36  C   UNL     1      -0.648   1.310   0.713  0.00  0.00    +0.000 A 
ENDBRANCH  30  34
ENDBRANCH  23  30
ENDBRANCH  21  23
ENDBRANCH   1  21
TORSDOF 7
