REMARK  Name = ZINC08709928
REMARK  6 active torsions:
REMARK  status: ('A' for Active; 'I' for Inactive)
REMARK    1  A    between atoms: C_1  and  N_2
REMARK    2  A    between atoms: C_10  and  S_11
REMARK    3  A    between atoms: S_11  and  C_12
REMARK    4  A    between atoms: C_12  and  C_13
REMARK    5  A    between atoms: N_23  and  C_24
REMARK    6  A    between atoms: C_24  and  C_25
REMARK                            x       y       z     vdW  Elec       q    Type
REMARK                         _______ _______ _______ _____ _____    ______ ____
ROOT
ATOM      1  C   UNL     1       0.289  -4.416  -0.025  0.00  0.00    +0.124 A 
ATOM      2  N   UNL     1       1.496  -4.893  -0.044  0.00  0.00    -0.233 NA
ATOM      3  C   UNL     1       1.733  -6.228  -0.049  0.00  0.00    +0.078 A 
ATOM      4  C   UNL     1       3.032  -6.742  -0.065  0.00  0.00    +0.028 A 
ATOM      5  C   UNL     1       3.226  -8.105  -0.076  0.00  0.00    +0.002 A 
ATOM      6  C   UNL     1       2.145  -8.977  -0.071  0.00  0.00    +0.001 A 
ATOM      7  C   UNL     1       0.855  -8.495  -0.056  0.00  0.00    +0.015 A 
ATOM      8  C   UNL     1       0.637  -7.119  -0.045  0.00  0.00    +0.065 A 
ATOM      9  C   UNL     1      -0.717  -6.546  -0.029  0.00  0.00    +0.262 A 
ATOM     10  O   UNL     1      -1.705  -7.257  -0.024  0.00  0.00    -0.267 OA
ATOM     11  N   UNL     1      -0.823  -5.197  -0.019  0.00  0.00    -0.288 N 
ENDROOT
BRANCH   1  12
ATOM     12  C   UNL     1       0.111  -2.919  -0.015  0.00  0.00    +0.151 C 
BRANCH  12  13
ATOM     13  S   UNL     1       1.735  -2.119  -0.026  0.00  0.00    -0.080 S 
BRANCH  13  23
ATOM     14  C   UNL     1       3.560   0.581  -0.029  0.00  0.00    +0.151 C 
ATOM     15  N   UNL     1       2.096   0.639  -0.015  0.00  0.00    -0.322 N 
ATOM     16  C   UNL     1       1.320   1.787  -0.001  0.00  0.00    +0.069 A 
ATOM     17  C   UNL     1       1.609   3.143   0.004  0.00  0.00    +0.028 A 
ATOM     18  C   UNL     1       0.582   4.064   0.018  0.00  0.00    +0.002 A 
ATOM     19  C   UNL     1      -0.739   3.643   0.029  0.00  0.00    +0.002 A 
ATOM     20  C   UNL     1      -1.045   2.300   0.029  0.00  0.00    +0.030 A 
ATOM     21  C   UNL     1      -0.016   1.355   0.009  0.00  0.00    +0.090 A 
ATOM     22  N   UNL     1       0.002  -0.004   0.002  0.00  0.00    -0.222 NA
ATOM     23  C   UNL     1       1.242  -0.427  -0.012  0.00  0.00    +0.170 A 
ENDBRANCH  13  23
ENDBRANCH  12  13
ENDBRANCH   1  12
BRANCH  11  24
ATOM     24  C   UNL     1      -2.148  -4.572  -0.003  0.00  0.00    +0.200 C 
BRANCH  24  25
ATOM     25  C   UNL     1      -2.616  -4.350  -1.419  0.00  0.00    +0.125 A 
ATOM     26  C   UNL     1      -3.320  -5.223  -2.160  0.00  0.00    +0.046 A 
ATOM     27  C   UNL     1      -3.544  -4.609  -3.414  0.00  0.00    +0.041 A 
ATOM     28  C   UNL     1      -2.956  -3.400  -3.366  0.00  0.00    +0.195 A 
ATOM     29  O   UNL     1      -2.395  -3.249  -2.155  0.00  0.00    -0.466 OA
ENDBRANCH  24  25
ENDBRANCH  11  24
TORSDOF 5
