REMARK  Name = ZINC13404296
REMARK  9 active torsions:
REMARK  status: ('A' for Active; 'I' for Inactive)
REMARK    1  A    between atoms: C_1  and  C_2
REMARK    2  A    between atoms: C_3  and  C_14
REMARK    3  A    between atoms: C_4  and  O_13
REMARK    4  A    between atoms: N_5  and  C_7
REMARK    5  A    between atoms: C_14  and  C_15
REMARK    6  A    between atoms: C_14  and  C_22
REMARK    7  A    between atoms: C_18  and  O_21
REMARK    8  A    between atoms: C_23  and  C_34
REMARK    9  A    between atoms: N_25  and  C_28
REMARK                            x       y       z     vdW  Elec       q    Type
REMARK                         _______ _______ _______ _____ _____    ______ ____
ROOT
ATOM      1  C   UNL     1      -0.283  -0.327  -2.471  0.00  0.00    +0.093 C 
ENDROOT
BRANCH   1   2
ATOM      2  C   UNL     1       0.912  -0.651  -3.330  0.00  0.00    +0.051 A 
ATOM      3  C   UNL     1       1.676   0.242  -3.992  0.00  0.00    +0.039 A 
ATOM      4  N   UNL     1       2.658  -0.438  -4.655  0.00  0.00    -0.294 N 
ATOM      5  N   UNL     1       2.497  -1.805  -4.394  0.00  0.00    -0.219 N 
ATOM      6  C   UNL     1       1.432  -1.942  -3.577  0.00  0.00    +0.276 A 
ATOM      7  O   UNL     1       0.995  -2.990  -3.135  0.00  0.00    -0.266 OA
ATOM      8  C   UNL     1       1.479   1.736  -4.000  0.00  0.00    +0.065 C 
ATOM      9  H   UNL     1       3.348  -0.042  -5.211  0.00  0.00    +0.187 HD
BRANCH   5  10
ATOM     10  C   UNL     1       3.299  -2.839  -4.886  0.00  0.00    +0.067 A 
ATOM     11  C   UNL     1       3.018  -4.157  -4.549  0.00  0.00    +0.028 A 
ATOM     12  C   UNL     1       3.812  -5.177  -5.036  0.00  0.00    +0.002 A 
ATOM     13  C   UNL     1       4.886  -4.886  -5.859  0.00  0.00    +0.000 A 
ATOM     14  C   UNL     1       5.167  -3.575  -6.196  0.00  0.00    +0.002 A 
ATOM     15  C   UNL     1       4.373  -2.552  -5.717  0.00  0.00    +0.028 A 
ENDBRANCH   5  10
ENDBRANCH   1   2
BRANCH   1  18
ATOM     16  C   UNL     1       2.453  -0.736  -0.931  0.00  0.00    +0.068 C 
ATOM     17  C   UNL     1       1.091  -1.148  -0.435  0.00  0.00    +0.068 A 
ATOM     18  C   UNL     1      -0.116  -0.967  -1.116  0.00  0.00    +0.048 A 
ATOM     19  C   UNL     1      -1.113  -1.469  -0.340  0.00  0.00    +0.220 A 
ATOM     20  N   UNL     1      -0.543  -1.952   0.796  0.00  0.00    -0.200 N 
ATOM     21  N   UNL     1       0.839  -1.741   0.704  0.00  0.00    -0.168 NA
BRANCH  20  22
ATOM     22  C   UNL     1      -1.217  -2.556   1.866  0.00  0.00    +0.069 A 
ATOM     23  C   UNL     1      -2.486  -2.122   2.223  0.00  0.00    +0.028 A 
ATOM     24  C   UNL     1      -3.148  -2.720   3.277  0.00  0.00    +0.002 A 
ATOM     25  C   UNL     1      -2.547  -3.750   3.978  0.00  0.00    +0.000 A 
ATOM     26  C   UNL     1      -1.283  -4.185   3.624  0.00  0.00    +0.002 A 
ATOM     27  C   UNL     1      -0.618  -3.595   2.567  0.00  0.00    +0.028 A 
ENDBRANCH  20  22
BRANCH  19  28
ATOM     28  O   UNL     1      -2.436  -1.486  -0.644  0.00  0.00    -0.492 OA
ATOM     29  H   UNL     1      -2.739  -2.317  -1.035  0.00  0.00    +0.294 HD
ENDBRANCH  19  28
ENDBRANCH   1  18
BRANCH   1  30
ATOM     30  C   UNL     1      -1.532  -0.859  -3.127  0.00  0.00    -0.035 A 
ATOM     31  C   UNL     1      -1.734  -2.223  -3.222  0.00  0.00    +0.008 A 
ATOM     32  C   UNL     1      -2.877  -2.713  -3.823  0.00  0.00    +0.046 A 
ATOM     33  C   UNL     1      -3.823  -1.834  -4.331  0.00  0.00    +0.117 A 
ATOM     34  C   UNL     1      -3.618  -0.466  -4.234  0.00  0.00    +0.046 A 
ATOM     35  C   UNL     1      -2.475   0.019  -3.627  0.00  0.00    +0.008 A 
BRANCH  33  36
ATOM     36  O   UNL     1      -4.949  -2.313  -4.923  0.00  0.00    -0.507 OA
ATOM     37  H   UNL     1      -5.688  -2.446  -4.314  0.00  0.00    +0.292 HD
ENDBRANCH  33  36
ENDBRANCH   1  30
TORSDOF 7
