REMARK  Name = ZINC63571790
REMARK  3 active torsions:
REMARK  status: ('A' for Active; 'I' for Inactive)
REMARK    1  A    between atoms: C_8  and  C_29
REMARK    2  A    between atoms: N_18  and  C_19
REMARK    3  A    between atoms: C_24  and  C_25
REMARK                            x       y       z     vdW  Elec       q    Type
REMARK                         _______ _______ _______ _____ _____    ______ ____
ROOT
ATOM      1  C   UNL     1      -1.349   0.376   0.508  0.00  0.00    +0.001 A 
ATOM      2  C   UNL     1      -0.363   1.145   1.141  0.00  0.00    +0.002 A 
ATOM      3  C   UNL     1       0.859   0.657   1.440  0.00  0.00    +0.026 A 
ATOM      4  C   UNL     1       1.200  -0.684   1.116  0.00  0.00    +0.043 A 
ATOM      5  N   UNL     1       2.309  -1.368   1.283  0.00  0.00    -0.375 N 
ATOM      6  C   UNL     1       2.081  -2.739   0.832  0.00  0.00    +0.131 C 
ATOM      7  C   UNL     1       3.074  -3.155  -0.259  0.00  0.00    +0.134 C 
ATOM      8  N   UNL     1       2.538  -4.351  -0.926  0.00  0.00    -0.276 N 
ATOM      9  C   UNL     1       1.236  -4.311  -1.599  0.00  0.00    +0.114 C 
ATOM     10  C   UNL     1       0.152  -3.898  -0.586  0.00  0.00    +0.052 C 
ATOM     11  C   UNL     1       0.693  -2.734   0.213  0.00  0.00    -0.035 C 
ATOM     12  C   UNL     1       0.176  -1.518   0.439  0.00  0.00    -0.001 A 
ATOM     13  C   UNL     1      -1.130  -0.910   0.154  0.00  0.00    +0.010 A 
ATOM     14  C   UNL     1       3.250  -5.496  -0.918  0.00  0.00    +0.307 C 
ATOM     15  O   UNL     1       4.282  -5.566  -0.278  0.00  0.00    -0.252 OA
ATOM     16  N   UNL     1       2.819  -6.562  -1.620  0.00  0.00    -0.269 N 
ATOM     17  H   UNL     1       2.032  -6.487  -2.182  0.00  0.00    +0.156 HD
ATOM     18  H   UNL     1       3.139  -1.021   1.644  0.00  0.00    +0.160 HD
ENDROOT
BRANCH   7  19
ATOM     19  C   UNL     1       3.230  -2.039  -1.259  0.00  0.00    -0.025 A 
ATOM     20  C   UNL     1       2.135  -1.599  -1.980  0.00  0.00    +0.008 A 
ATOM     21  C   UNL     1       2.276  -0.575  -2.897  0.00  0.00    +0.038 A 
ATOM     22  C   UNL     1       3.515   0.010  -3.095  0.00  0.00    +0.123 A 
ATOM     23  C   UNL     1       4.611  -0.430  -2.373  0.00  0.00    +0.038 A 
ATOM     24  C   UNL     1       4.466  -1.451  -1.452  0.00  0.00    +0.008 A 
ATOM     25  F   UNL     1       3.654   1.011  -3.992  0.00  0.00    -0.205 F 
ENDBRANCH   7  19
BRANCH  16  26
ATOM     26  C   UNL     1       3.507  -7.778  -1.539  0.00  0.00    +0.046 A 
ATOM     27  C   UNL     1       4.873  -7.790  -1.285  0.00  0.00    +0.024 A 
ATOM     28  C   UNL     1       5.549  -8.991  -1.205  0.00  0.00    +0.002 A 
ATOM     29  C   UNL     1       4.867 -10.182  -1.377  0.00  0.00    +0.001 A 
ATOM     30  C   UNL     1       3.508 -10.174  -1.630  0.00  0.00    +0.014 A 
ATOM     31  C   UNL     1       2.825  -8.976  -1.706  0.00  0.00    +0.076 A 
BRANCH  31  32
ATOM     32  C   UNL     1       1.343  -8.969  -1.975  0.00  0.00    +0.419 C 
ATOM     33  F   UNL     1       0.886 -10.285  -2.105  0.00  0.00    -0.166 F 
ATOM     34  F   UNL     1       0.678  -8.347  -0.912  0.00  0.00    -0.166 F 
ATOM     35  F   UNL     1       1.087  -8.267  -3.159  0.00  0.00    -0.166 F 
ENDBRANCH  31  32
ENDBRANCH  16  26
TORSDOF 3
