REMARK  Name = ZINC02385802
REMARK  8 active torsions:
REMARK  status: ('A' for Active; 'I' for Inactive)
REMARK    1  A    between atoms: C_1  and  N_2
REMARK    2  A    between atoms: C_3  and  C_21
REMARK    3  A    between atoms: C_6  and  S_7
REMARK    4  A    between atoms: S_7  and  C_8
REMARK    5  A    between atoms: C_8  and  C_9
REMARK    6  A    between atoms: N_11  and  N_12
REMARK    7  A    between atoms: C_13  and  C_14
REMARK    8  A    between atoms: C_19  and  O_20
REMARK                            x       y       z     vdW  Elec       q    Type
REMARK                         _______ _______ _______ _____ _____    ______ ____
ROOT
ATOM      1  C   UNL     1       0.390  -1.910   3.671  0.00  0.00    +0.174 C 
ENDROOT
BRANCH   1   2
ATOM      2  C   UNL     1       0.536  -1.629   5.144  0.00  0.00    +0.242 C 
ATOM      3  O   UNL     1       0.571  -0.484   5.543  0.00  0.00    -0.273 OA
ATOM      4  N   UNL     1       0.629  -2.650   6.019  0.00  0.00    -0.206 N 
ATOM      5  H   UNL     1       0.601  -3.566   5.700  0.00  0.00    +0.177 HD
BRANCH   4   6
ATOM      6  N   UNL     1       0.765  -2.389   7.389  0.00  0.00    -0.188 NA
ATOM      7  C   UNL     1       0.854  -3.373   8.231  0.00  0.00    +0.142 C 
BRANCH   7   8
ATOM      8  C   UNL     1       0.997  -3.098   9.672  0.00  0.00    +0.036 A 
ATOM      9  C   UNL     1       1.099  -4.154  10.581  0.00  0.00    +0.013 A 
ATOM     10  C   UNL     1       1.233  -3.890  11.928  0.00  0.00    +0.001 A 
ATOM     11  C   UNL     1       1.267  -2.583  12.384  0.00  0.00    +0.004 A 
ATOM     12  C   UNL     1       1.167  -1.530  11.494  0.00  0.00    +0.046 A 
ATOM     13  C   UNL     1       1.037  -1.777  10.137  0.00  0.00    +0.125 A 
BRANCH  13  14
ATOM     14  O   UNL     1       0.944  -0.743   9.262  0.00  0.00    -0.506 OA
ATOM     15  H   UNL     1       0.038  -0.448   9.097  0.00  0.00    +0.292 HD
ENDBRANCH  13  14
ENDBRANCH   7   8
ENDBRANCH   4   6
ENDBRANCH   1   2
BRANCH   1  16
ATOM     16  S   UNL     1       0.291  -0.342   2.764  0.00  0.00    -0.077 S 
BRANCH  16  22
ATOM     17  C   UNL     1       0.007   1.461   0.008  0.00  0.00    +0.153 C 
ATOM     18  N   UNL     1       0.013  -0.004   0.001  0.00  0.00    -0.305 N 
ATOM     19  C   UNL     1      -0.087  -0.831  -1.094  0.00  0.00    +0.165 A 
ATOM     20  N   UNL     1      -0.039  -2.065  -0.651  0.00  0.00    -0.128 NA
ATOM     21  N   UNL     1       0.083  -2.067   0.628  0.00  0.00    -0.122 NA
ATOM     22  C   UNL     1       0.125  -0.834   1.080  0.00  0.00    +0.192 A 
BRANCH  19  23
ATOM     23  C   UNL     1      -0.224  -0.408  -2.504  0.00  0.00    +0.019 A 
ATOM     24  C   UNL     1       0.142   0.883  -2.888  0.00  0.00    +0.012 A 
ATOM     25  C   UNL     1       0.012   1.271  -4.205  0.00  0.00    +0.016 A 
ATOM     26  C   UNL     1      -0.479   0.383  -5.146  0.00  0.00    +0.018 A 
ATOM     27  C   UNL     1      -0.844  -0.899  -4.772  0.00  0.00    +0.016 A 
ATOM     28  C   UNL     1      -0.714  -1.301  -3.459  0.00  0.00    +0.012 A 
ATOM     29 BR   UNL     1      -0.654   0.923  -6.950  0.00  0.00    -0.050 Br
ENDBRANCH  19  23
ENDBRANCH  16  22
ENDBRANCH   1  16
TORSDOF 7
