REMARK  Name = ZINC31796106
REMARK  8 active torsions:
REMARK  status: ('A' for Active; 'I' for Inactive)
REMARK    1  A    between atoms: C_3  and  C_8
REMARK    2  A    between atoms: N_10  and  C_11
REMARK    3  A    between atoms: C_11  and  C_12
REMARK    4  A    between atoms: C_12  and  C_13
REMARK    5  A    between atoms: C_13  and  C_14
REMARK    6  A    between atoms: C_15  and  C_27
REMARK    7  A    between atoms: C_16  and  N_26
REMARK    8  A    between atoms: N_17  and  C_19
REMARK                            x       y       z     vdW  Elec       q    Type
REMARK                         _______ _______ _______ _____ _____    ______ ____
ROOT
ATOM      1  C   UNL     1      -8.545   2.967   0.124  0.00  0.00    +0.083 A 
ATOM      2  C   UNL     1      -9.176   2.442   1.276  0.00  0.00    +0.114 A 
ATOM      3  C   UNL     1     -10.209   1.619   0.835  0.00  0.00    +0.138 A 
ATOM      4  N   UNL     1     -10.194   1.653  -0.517  0.00  0.00    -0.217 N 
ATOM      5  N   UNL     1      -9.157   2.498  -0.927  0.00  0.00    -0.168 NA
ENDROOT
BRANCH   4   6
ATOM      6  C   UNL     1     -11.072   0.961  -1.363  0.00  0.00    +0.068 A 
ATOM      7  C   UNL     1     -11.528  -0.302  -1.010  0.00  0.00    +0.030 A 
ATOM      8  C   UNL     1     -12.396  -0.980  -1.843  0.00  0.00    +0.040 A 
ATOM      9  C   UNL     1     -12.803  -0.406  -3.035  0.00  0.00    +0.124 A 
ATOM     10  C   UNL     1     -12.345   0.852  -3.392  0.00  0.00    +0.040 A 
ATOM     11  C   UNL     1     -11.481   1.535  -2.559  0.00  0.00    +0.030 A 
ATOM     12  F   UNL     1     -13.648  -1.073  -3.852  0.00  0.00    -0.205 F 
ENDBRANCH   4   6
BRANCH   3  13
ATOM     13  N   UNL     1     -11.085   0.905   1.629  0.00  0.00    -0.342 N 
ATOM     14  H   UNL     1     -11.866   0.284   1.166  0.00  0.00    +0.144 HD
ATOM     15  H   UNL     1     -11.001   0.956   2.725  0.00  0.00    +0.144 HD
ENDBRANCH   3  13
BRANCH   2  16
ATOM     16  C   UNL     1      -8.820   2.707   2.637  0.00  0.00    +0.104 C 
ATOM     17  N   UNL     1      -8.537   2.917   3.717  0.00  0.00    -0.191 NA
ENDBRANCH   2  16
BRANCH   1  18
ATOM     18  C   UNL     1      -7.370   3.911   0.113  0.00  0.00    +0.060 C 
BRANCH  18  19
ATOM     19  C   UNL     1      -6.069   3.106   0.092  0.00  0.00    +0.025 C 
BRANCH  19  20
ATOM     20  C   UNL     1      -4.876   4.065   0.081  0.00  0.00    +0.105 C 
BRANCH  20  23
ATOM     21  C   UNL     1      -2.444   3.932   0.049  0.00  0.00    +0.249 C 
ATOM     22  O   UNL     1      -2.407   5.148   0.054  0.00  0.00    -0.270 OA
ATOM     23  N   UNL     1      -3.631   3.294   0.061  0.00  0.00    -0.311 N 
ATOM     24  H   UNL     1      -3.664   2.195   0.057  0.00  0.00    +0.149 HD
BRANCH  21  27
ATOM     25  C   UNL     1      -0.013   1.076   0.008  0.00  0.00    +0.018 A 
ATOM     26  C   UNL     1      -1.217   1.757   0.017  0.00  0.00    +0.020 A 
ATOM     27  C   UNL     1      -1.189   3.156   0.029  0.00  0.00    +0.101 A 
ATOM     28  C   UNL     1       0.054   3.808   0.021  0.00  0.00    +0.261 A 
ATOM     29  N   UNL     1       1.175   3.108   0.007  0.00  0.00    -0.328 N 
ATOM     30  C   UNL     1       1.172   1.789   0.001  0.00  0.00    +0.086 A 
ATOM     31  O   UNL     1       0.104   5.161   0.027  0.00  0.00    -0.267 OA
ATOM     32  H   UNL     1       2.146   3.626   0.001  0.00  0.00    +0.168 HD
ENDBRANCH  21  27
ENDBRANCH  20  23
ENDBRANCH  19  20
ENDBRANCH  18  19
ENDBRANCH   1  18
TORSDOF 8
