REMARK  Name = ZINC09234872
REMARK  13 active torsions:
REMARK  status: ('A' for Active; 'I' for Inactive)
REMARK    1  A    between atoms: C_1  and  C_2
REMARK    2  A    between atoms: C_2  and  N_65
REMARK    3  A    between atoms: C_3  and  C_4
REMARK    4  A    between atoms: C_3  and  N_65
REMARK    5  A    between atoms: C_5  and  C_6
REMARK    6  A    between atoms: C_5  and  N_65
REMARK    7  A    between atoms: C_6  and  C_7
REMARK    8  A    between atoms: C_7  and  N_8
REMARK    9  A    between atoms: C_9  and  C_28
REMARK   10  A    between atoms: C_12  and  C_13
REMARK   11  A    between atoms: C_12  and  O_23
REMARK   12  A    between atoms: C_14  and  C_22
REMARK   13  A    between atoms: C_32  and  N_34
REMARK                            x       y       z     vdW  Elec       q    Type
REMARK                         _______ _______ _______ _____ _____    ______ ____
ROOT
ATOM      1  N   UNL     1       3.504   6.934  -1.649  0.00  0.00    -0.284 N 
ATOM      2  C   UNL     1       4.110   6.383  -0.433  0.00  0.00    +0.145 C 
ATOM      3  C   UNL     1       3.288   5.174  -0.051  0.00  0.00    +0.073 C 
ATOM      4  C   UNL     1       3.494   4.334   1.039  0.00  0.00    +0.151 C 
ATOM      5  C   UNL     1       2.285   5.066  -1.014  0.00  0.00    +0.249 C 
ATOM      6  O   UNL     1       1.420   4.206  -1.050  0.00  0.00    -0.282 OA
ATOM      7  C   UNL     1       2.446   6.177  -1.986  0.00  0.00    +0.288 C 
ATOM      8  O   UNL     1       1.729   6.370  -2.946  0.00  0.00    -0.266 OA
ENDROOT
BRANCH   4   9
ATOM      9  C   UNL     1       2.632   3.241   1.259  0.00  0.00    +0.111 A 
ATOM     10  C   UNL     1       1.301   3.295   1.663  0.00  0.00    +0.068 A 
ATOM     11  N   UNL     1       0.846   2.058   1.749  0.00  0.00    -0.232 NA
ATOM     12  C   UNL     1       1.812   1.196   1.429  0.00  0.00    +0.138 A 
ATOM     13  N   UNL     1       2.941   1.899   1.115  0.00  0.00    -0.297 N 
ATOM     14  C   UNL     1       4.079   1.255   0.746  0.00  0.00    +0.093 A 
ATOM     15  C   UNL     1       4.117  -0.097   0.683  0.00  0.00    +0.018 A 
ATOM     16  C   UNL     1       2.978  -0.847   0.999  0.00  0.00    +0.005 A 
ATOM     17  C   UNL     1       1.831  -0.208   1.370  0.00  0.00    +0.047 A 
ATOM     18  C   UNL     1       0.514   4.548   1.948  0.00  0.00    +0.068 C 
ENDBRANCH   4   9
BRANCH   2  19
ATOM     19  C   UNL     1       5.535   5.974  -0.706  0.00  0.00    -0.020 A 
ATOM     20  C   UNL     1       5.865   5.385  -1.913  0.00  0.00    +0.006 A 
ATOM     21  C   UNL     1       7.172   5.010  -2.163  0.00  0.00    +0.003 A 
ATOM     22  C   UNL     1       8.148   5.223  -1.208  0.00  0.00    +0.033 A 
ATOM     23  C   UNL     1       7.817   5.811  -0.002  0.00  0.00    +0.127 A 
ATOM     24  C   UNL     1       6.511   6.191   0.247  0.00  0.00    +0.038 A 
BRANCH  23  25
ATOM     25  N   UNL     1       8.862   6.040   1.022  0.00  0.00    +0.056 N 
ATOM     26  O   UNL     1      10.014   5.709   0.800  0.00  0.00    -0.126 OA
ATOM     27  O   UNL     1       8.571   6.558   2.084  0.00  0.00    -0.126 OA
ENDBRANCH  23  25
ENDBRANCH   2  19
BRANCH   4  28
ATOM     28  O   UNL     1       4.521   4.566   1.887  0.00  0.00    -0.504 OA
ATOM     29  H   UNL     1       4.522   3.873   2.608  0.00  0.00    +0.292 HD
ENDBRANCH   4  28
BRANCH   1  30
ATOM     30  C   UNL     1       3.973   8.116  -2.376  0.00  0.00    +0.107 C 
BRANCH  30  31
ATOM     31  C   UNL     1       4.992   7.692  -3.435  0.00  0.00    +0.000 C 
BRANCH  31  32
ATOM     32  C   UNL     1       5.482   8.926  -4.194  0.00  0.00    -0.077 C 
BRANCH  32  33
ATOM     33  N   UNL     1       6.481   8.503  -5.198  0.00  0.00    +0.379 N 
ATOM     34  H   UNL     1       7.197   7.931  -4.736  0.00  0.00    -0.082 HD
BRANCH  33  36
ATOM     35  C   UNL     1       4.736   8.509  -6.949  0.00  0.00    -0.017 C 
ATOM     36  C   UNL     1       5.829   7.697  -6.251  0.00  0.00    -0.082 C 
ENDBRANCH  33  36
BRANCH  33  37
ATOM     37  C   UNL     1       7.129   9.689  -5.798  0.00  0.00    -0.082 C 
ATOM     38  C   UNL     1       8.386   9.238  -6.544  0.00  0.00    -0.017 C 
ENDBRANCH  33  37
ENDBRANCH  32  33
ENDBRANCH  31  32
ENDBRANCH  30  31
ENDBRANCH   1  30
TORSDOF 10
