REMARK  Name = ZINC33730249
REMARK  15 active torsions:
REMARK  status: ('A' for Active; 'I' for Inactive)
REMARK    1  A    between atoms: C_1  and  C_2
REMARK    2  A    between atoms: C_2  and  C_4
REMARK    3  A    between atoms: C_2  and  N_19
REMARK    4  A    between atoms: N_14  and  C_15
REMARK    5  A    between atoms: C_15  and  C_16
REMARK    6  A    between atoms: C_16  and  O_17
REMARK    7  A    between atoms: O_17  and  C_18
REMARK    8  A    between atoms: N_19  and  C_20
REMARK    9  A    between atoms: C_20  and  C_21
REMARK   10  A    between atoms: C_21  and  C_22
REMARK   11  A    between atoms: C_22  and  C_23
REMARK   12  A    between atoms: C_23  and  C_24
REMARK   13  A    between atoms: C_24  and  C_25
REMARK   14  A    between atoms: C_25  and  N_26
REMARK   15  A    between atoms: C_27  and  C_29
REMARK                            x       y       z     vdW  Elec       q    Type
REMARK                         _______ _______ _______ _____ _____    ______ ____
ROOT
ATOM      1  N   UNL     1      -1.480   3.146   0.211  0.00  0.00    -0.288 N 
ATOM      2  C   UNL     1      -1.330   2.035   0.959  0.00  0.00    +0.247 C 
ATOM      3  O   UNL     1      -2.308   1.448   1.380  0.00  0.00    -0.270 OA
ENDROOT
BRANCH   2   4
ATOM      4  C   UNL     1       0.024   1.529   1.269  0.00  0.00    +0.038 A 
ATOM      5  C   UNL     1       0.352   1.176   2.590  0.00  0.00    +0.013 A 
ATOM      6  C   UNL     1       1.590   0.715   2.900  0.00  0.00    +0.009 A 
ATOM      7  C   UNL     1       2.565   0.585   1.894  0.00  0.00    -0.018 A 
ATOM      8  C   UNL     1       3.854   0.110   2.191  0.00  0.00    +0.008 A 
ATOM      9  C   UNL     1       4.777  -0.005   1.197  0.00  0.00    +0.001 A 
ATOM     10  C   UNL     1       4.464   0.342  -0.116  0.00  0.00    +0.001 A 
ATOM     11  C   UNL     1       3.227   0.805  -0.443  0.00  0.00    +0.008 A 
ATOM     12  C   UNL     1       2.247   0.938   0.558  0.00  0.00    -0.017 A 
ATOM     13  C   UNL     1       0.962   1.413   0.256  0.00  0.00    +0.021 A 
ENDBRANCH   2   4
BRANCH   1  15
ATOM     14  C   UNL     1      -3.639   2.749  -0.867  0.00  0.00    +0.036 C 
ATOM     15  C   UNL     1      -2.815   3.708  -0.005  0.00  0.00    +0.139 C 
BRANCH  15  16
ATOM     16  C   UNL     1      -3.499   3.904   1.323  0.00  0.00    +0.133 A 
ATOM     17  N   UNL     1      -4.419   3.058   1.673  0.00  0.00    -0.232 NA
ATOM     18  C   UNL     1      -5.074   3.168   2.856  0.00  0.00    +0.078 A 
ATOM     19  C   UNL     1      -6.060   2.255   3.235  0.00  0.00    +0.028 A 
ATOM     20  C   UNL     1      -6.702   2.408   4.443  0.00  0.00    +0.002 A 
ATOM     21  C   UNL     1      -6.382   3.460   5.292  0.00  0.00    +0.001 A 
ATOM     22  C   UNL     1      -5.412   4.373   4.939  0.00  0.00    +0.015 A 
ATOM     23  C   UNL     1      -4.750   4.237   3.721  0.00  0.00    +0.065 A 
ATOM     24  C   UNL     1      -3.707   5.180   3.292  0.00  0.00    +0.262 A 
ATOM     25  O   UNL     1      -3.381   6.122   3.991  0.00  0.00    -0.267 OA
ATOM     26  N   UNL     1      -3.124   4.960   2.091  0.00  0.00    -0.292 N 
BRANCH  26  27
ATOM     27  C   UNL     1      -2.079   5.870   1.615  0.00  0.00    +0.154 C 
BRANCH  27  28
ATOM     28  C   UNL     1      -2.722   7.043   0.874  0.00  0.00    +0.181 C 
BRANCH  28  29
ATOM     29  O   UNL     1      -3.527   7.797   1.783  0.00  0.00    -0.381 OA
ATOM     30  C   UNL     1      -4.177   8.922   1.188  0.00  0.00    +0.194 C 
ENDBRANCH  28  29
ENDBRANCH  27  28
ENDBRANCH  26  27
ENDBRANCH  15  16
ENDBRANCH   1  15
BRANCH   1  31
ATOM     31  C   UNL     1      -0.307   3.790  -0.386  0.00  0.00    +0.109 C 
BRANCH  31  32
ATOM     32  C   UNL     1      -0.197   3.385  -1.857  0.00  0.00    +0.019 C 
BRANCH  32  33
ATOM     33  C   UNL     1       1.107   3.933  -2.441  0.00  0.00    +0.001 C 
BRANCH  33  34
ATOM     34  C   UNL     1       1.218   3.527  -3.912  0.00  0.00    -0.002 C 
BRANCH  34  35
ATOM     35  C   UNL     1       2.523   4.075  -4.495  0.00  0.00    -0.020 C 
BRANCH  35  36
ATOM     36  C   UNL     1       2.633   3.670  -5.966  0.00  0.00    -0.086 C 
BRANCH  36  37
ATOM     37  N   UNL     1       3.886   4.196  -6.526  0.00  0.00    +0.378 N 
ATOM     38  H   UNL     1       3.965   3.904  -7.583  0.00  0.00    -0.090 HD
ATOM     39  H   UNL     1       4.739   3.784  -5.967  0.00  0.00    -0.090 HD
ATOM     40  H   UNL     1       3.891   5.293  -6.446  0.00  0.00    -0.090 HD
ENDBRANCH  36  37
ENDBRANCH  35  36
ENDBRANCH  34  35
ENDBRANCH  33  34
ENDBRANCH  32  33
ENDBRANCH  31  32
ENDBRANCH   1  31
TORSDOF 13
