REMARK  Name = ZINC01291709
REMARK  10 active torsions:
REMARK  status: ('A' for Active; 'I' for Inactive)
REMARK    1  A    between atoms: C_1  and  C_2
REMARK    2  A    between atoms: C_2  and  O_3
REMARK    3  A    between atoms: O_3  and  C_4
REMARK    4  A    between atoms: C_5  and  O_31
REMARK    5  A    between atoms: C_7  and  C_11
REMARK    6  A    between atoms: C_13  and  C_22
REMARK    7  A    between atoms: C_14  and  C_21
REMARK    8  A    between atoms: C_22  and  O_24
REMARK    9  A    between atoms: O_24  and  C_25
REMARK   10  A    between atoms: O_31  and  C_32
REMARK                            x       y       z     vdW  Elec       q    Type
REMARK                         _______ _______ _______ _____ _____    ______ ____
ROOT
ATOM      1  C   UNL     1      -1.914  -6.167  -0.034  0.00  0.00    +0.179 C 
ATOM      2  C   UNL     1      -3.223  -6.602   0.569  0.00  0.00    +0.082 C 
ATOM      3  C   UNL     1      -3.328  -7.106   1.808  0.00  0.00    +0.020 C 
ATOM      4  N   UNL     1      -2.236  -7.276   2.623  0.00  0.00    -0.287 N 
ATOM      5  C   UNL     1      -0.981  -7.158   2.043  0.00  0.00    +0.218 A 
ATOM      6  N   UNL     1      -0.813  -6.645   0.798  0.00  0.00    -0.221 N 
ATOM      7  N   UNL     1       0.555  -6.683   0.534  0.00  0.00    -0.156 NA
ATOM      8  C   UNL     1       1.130  -7.193   1.595  0.00  0.00    +0.247 A 
ATOM      9  N   UNL     1       0.195  -7.478   2.508  0.00  0.00    -0.201 NA
ATOM     10  C   UNL     1      -4.689  -7.500   2.323  0.00  0.00    +0.061 C 
ATOM     11  H   UNL     1      -2.338  -7.470   3.568  0.00  0.00    +0.155 HD
ENDROOT
BRANCH   1  15
ATOM     12  C   UNL     1      -1.791  -1.897  -0.241  0.00  0.00    +0.176 A 
ATOM     13  C   UNL     1      -1.688  -2.654  -1.405  0.00  0.00    +0.163 A 
ATOM     14  C   UNL     1      -1.728  -4.037  -1.333  0.00  0.00    +0.055 A 
ATOM     15  C   UNL     1      -1.871  -4.663  -0.109  0.00  0.00    -0.014 A 
ATOM     16  C   UNL     1      -1.974  -3.912   1.047  0.00  0.00    +0.025 A 
ATOM     17  C   UNL     1      -1.928  -2.530   0.984  0.00  0.00    +0.063 A 
ATOM     18 BR   UNL     1      -2.061  -1.506   2.568  0.00  0.00    -0.046 Br
BRANCH  13  19
ATOM     19  O   UNL     1      -1.548  -2.037  -2.609  0.00  0.00    -0.491 OA
ATOM     20  C   UNL     1      -1.448  -2.877  -3.760  0.00  0.00    +0.277 C 
ENDBRANCH  13  19
BRANCH  12  21
ATOM     21  O   UNL     1      -1.752  -0.539  -0.306  0.00  0.00    -0.487 OA
BRANCH  21  23
ATOM     22  C   UNL     1      -0.623   1.598  -0.303  0.00  0.00    +0.048 C 
ATOM     23  C   UNL     1      -0.467   0.079  -0.211  0.00  0.00    +0.226 C 
ENDBRANCH  21  23
ENDBRANCH  12  21
ENDBRANCH   1  15
BRANCH   2  24
ATOM     24  C   UNL     1      -4.397  -6.473  -0.206  0.00  0.00    +0.339 C 
ATOM     25  O   UNL     1      -4.669  -7.314  -1.043  0.00  0.00    -0.245 OA
BRANCH  24  26
ATOM     26  O   UNL     1      -5.217  -5.418  -0.019  0.00  0.00    -0.458 OA
BRANCH  26  27
ATOM     27  C   UNL     1      -6.387  -5.351  -0.837  0.00  0.00    +0.177 C 
ATOM     28  C   UNL     1      -6.068  -4.579  -2.120  0.00  0.00    +0.044 C 
ATOM     29  C   UNL     1      -7.320  -4.508  -2.996  0.00  0.00    +0.004 C 
ATOM     30  C   UNL     1      -8.436  -3.792  -2.234  0.00  0.00    +0.000 C 
ATOM     31  C   UNL     1      -8.755  -4.563  -0.952  0.00  0.00    +0.004 C 
ATOM     32  C   UNL     1      -7.503  -4.635  -0.075  0.00  0.00    +0.044 C 
ENDBRANCH  26  27
ENDBRANCH  24  26
ENDBRANCH   2  24
TORSDOF 7
