REMARK  Name = ZINC44320455
REMARK  11 active torsions:
REMARK  status: ('A' for Active; 'I' for Inactive)
REMARK    1  A    between atoms: C_1  and  O_2
REMARK    2  A    between atoms: O_2  and  C_3
REMARK    3  A    between atoms: C_5  and  N_34
REMARK    4  A    between atoms: C_7  and  C_10
REMARK    5  A    between atoms: C_8  and  O_9
REMARK    6  A    between atoms: C_10  and  CA_11
REMARK    7  A    between atoms: CA_11  and  C_13
REMARK    8  A    between atoms: CA_11  and  N_16
REMARK    9  A    between atoms: C_17  and  O_19
REMARK   10  A    between atoms: O_19  and  C_20
REMARK   11  A    between atoms: C_20  and  C_21
REMARK                            x       y       z     vdW  Elec       q    Type
REMARK                         _______ _______ _______ _____ _____    ______ ____
ROOT
ATOM      1  N   UNL     1       3.832  -4.153   2.028  0.00  0.00    -0.267 N 
ATOM      2  C   UNL     1       4.946  -4.005   1.285  0.00  0.00    +0.401 C 
ATOM      3  O   UNL     1       4.923  -4.262   0.098  0.00  0.00    -0.226 OA
ATOM      4  H   UNL     1       3.850  -3.947   2.976  0.00  0.00    +0.153 HD
ENDROOT
BRANCH   1   5
ATOM      5  CA  UNL     1       2.592  -4.623   1.404  0.00  0.00    +0.193 C 
BRANCH   5   6
ATOM      6  C   UNL     1       2.591  -6.130   1.364  0.00  0.00    +0.376 C 
ATOM      7  O   UNL     1       2.004  -6.715   0.470  0.00  0.00    -0.244 OA
ATOM      8  OXT UNL     1       3.177  -6.763   2.225  0.00  0.00    -0.244 OA
ENDBRANCH   5   6
BRANCH   5   9
ATOM      9  C   UNL     1       1.393  -4.134   2.220  0.00  0.00    +0.073 C 
BRANCH   9  14
ATOM     10  C   UNL     1       0.626  -0.619   1.042  0.00  0.00    +0.164 A 
ATOM     11  C   UNL     1       1.202   0.137   2.051  0.00  0.00    +0.082 A 
ATOM     12  C   UNL     1       1.836  -0.490   3.108  0.00  0.00    +0.130 A 
ATOM     13  C   UNL     1       1.897  -1.870   3.161  0.00  0.00    +0.040 A 
ATOM     14  C   UNL     1       1.325  -2.630   2.158  0.00  0.00    +0.002 A 
ATOM     15  C   UNL     1       0.683  -2.008   1.099  0.00  0.00    +0.162 A 
BRANCH  12  16
ATOM     16  N   UNL     1       2.450   0.319   4.184  0.00  0.00    +0.057 N 
ATOM     17  O   UNL     1       2.398   1.526   4.139  0.00  0.00    -0.126 OA
ATOM     18  O   UNL     1       3.005  -0.228   5.109  0.00  0.00    -0.126 OA
ENDBRANCH  12  16
BRANCH  10  20
ATOM     19  C   UNL     1      -0.017   1.425   0.010  0.00  0.00    +0.277 C 
ATOM     20  O   UNL     1       0.002  -0.004   0.002  0.00  0.00    -0.491 OA
ENDBRANCH  10  20
BRANCH  15  21
ATOM     21  O   UNL     1       0.114  -2.754   0.114  0.00  0.00    -0.503 OA
ATOM     22  H   UNL     1       0.711  -2.957  -0.620  0.00  0.00    +0.292 HD
ENDBRANCH  15  21
ENDBRANCH   9  14
ENDBRANCH   5   9
ENDBRANCH   1   5
BRANCH   2  23
ATOM     23  O   UNL     1       6.085  -3.572   1.858  0.00  0.00    -0.449 OA
BRANCH  23  24
ATOM     24  C   UNL     1       7.228  -3.439   1.010  0.00  0.00    +0.246 C 
BRANCH  24  25
ATOM     25  C   UNL     1       8.418  -2.940   1.833  0.00  0.00    +0.088 C 
ATOM     26  C   UNL     1       8.182  -1.517   2.277  0.00  0.00    -0.029 A 
ATOM     27  C   UNL     1       7.206  -0.942   3.063  0.00  0.00    +0.005 A 
ATOM     28  C   UNL     1       7.232   0.418   3.315  0.00  0.00    +0.000 A 
ATOM     29  C   UNL     1       8.236   1.204   2.779  0.00  0.00    +0.001 A 
ATOM     30  C   UNL     1       9.216   0.637   1.991  0.00  0.00    +0.009 A 
ATOM     31  C   UNL     1       9.197  -0.735   1.733  0.00  0.00    -0.014 A 
ATOM     32  C   UNL     1      10.108  -1.592   0.935  0.00  0.00    -0.014 A 
ATOM     33  C   UNL     1       9.663  -2.910   0.981  0.00  0.00    -0.029 A 
ATOM     34  C   UNL     1      10.350  -3.900   0.311  0.00  0.00    +0.005 A 
ATOM     35  C   UNL     1      11.488  -3.587  -0.411  0.00  0.00    +0.000 A 
ATOM     36  C   UNL     1      11.938  -2.280  -0.462  0.00  0.00    +0.001 A 
ATOM     37  C   UNL     1      11.257  -1.283   0.204  0.00  0.00    +0.009 A 
ENDBRANCH  24  25
ENDBRANCH  23  24
ENDBRANCH   2  23
TORSDOF 10
