REMARK  Name = ZINC39916792
REMARK  9 active torsions:
REMARK  status: ('A' for Active; 'I' for Inactive)
REMARK    1  A    between atoms: C_1  and  N_2
REMARK    2  A    between atoms: N_2  and  C_3
REMARK    3  A    between atoms: N_2  and  C_4
REMARK    4  A    between atoms: C_4  and  C_5
REMARK    5  A    between atoms: C_5  and  N_6
REMARK    6  A    between atoms: N_6  and  C_7
REMARK    7  A    between atoms: C_7  and  C_9
REMARK    8  A    between atoms: C_7  and  N_13
REMARK    9  A    between atoms: C_14  and  C_16
REMARK                            x       y       z     vdW  Elec       q    Type
REMARK                         _______ _______ _______ _____ _____    ______ ____
ROOT
ATOM      1  N   UNL     1       0.601   0.871   5.536  0.00  0.00    -0.292 N 
ATOM      2  C   UNL     1       0.086   2.115   5.482  0.00  0.00    +0.252 C 
ATOM      3  O   UNL     1      -0.949   2.319   4.877  0.00  0.00    -0.270 OA
ATOM      4  H   UNL     1       1.427   0.708   6.019  0.00  0.00    +0.151 HD
ENDROOT
BRANCH   2   5
ATOM      5  C   UNL     1       0.777   3.228   6.156  0.00  0.00    +0.122 A 
ATOM      6  C   UNL     1       0.267   4.519   6.123  0.00  0.00    +0.031 A 
ATOM      7  C   UNL     1       1.005   5.544   6.769  0.00  0.00    +0.018 A 
ATOM      8  C   UNL     1       0.450   6.820   6.942  0.00  0.00    +0.011 A 
ATOM      9  C   UNL     1       1.156   7.784   7.603  0.00  0.00    +0.001 A 
ATOM     10  C   UNL     1       2.424   7.514   8.099  0.00  0.00    +0.004 A 
ATOM     11  C   UNL     1       2.999   6.273   7.922  0.00  0.00    +0.047 A 
ATOM     12  C   UNL     1       2.302   5.279   7.247  0.00  0.00    +0.139 A 
ATOM     13  O   UNL     1       2.872   4.069   7.030  0.00  0.00    -0.422 OA
ATOM     14  C   UNL     1       2.033   3.014   6.898  0.00  0.00    +0.350 A 
ATOM     15  O   UNL     1       2.306   1.926   7.370  0.00  0.00    -0.244 OA
ENDBRANCH   2   5
BRANCH   1  16
ATOM     16  C   UNL     1      -0.086  -0.236   4.865  0.00  0.00    +0.193 C 
BRANCH  16  17
ATOM     17  C   UNL     1      -0.132  -1.447   5.798  0.00  0.00    +0.222 C 
ATOM     18 CL   UNL     1       1.549  -1.948   6.216  0.00  0.00    -0.080 Cl
ATOM     19 CL   UNL     1      -1.021  -1.012   7.305  0.00  0.00    -0.080 Cl
ATOM     20 CL   UNL     1      -0.977  -2.809   4.973  0.00  0.00    -0.080 Cl
ENDBRANCH  16  17
BRANCH  16  21
ATOM     21  N   UNL     1       0.639  -0.590   3.638  0.00  0.00    -0.297 NA
ATOM     22  H   UNL     1       0.795  -1.586   3.584  0.00  0.00    +0.124 HD
BRANCH  21  23
ATOM     23  C   UNL     1      -0.071  -0.103   2.448  0.00  0.00    +0.064 C 
BRANCH  23  24
ATOM     24  C   UNL     1       0.713  -0.491   1.192  0.00  0.00    -0.064 C 
BRANCH  24  26
ATOM     25  C   UNL     1      -0.018   1.465   0.010  0.00  0.00    -0.097 C 
ATOM     26  N   UNL     1       0.002  -0.004   0.002  0.00  0.00    +0.377 N 
ATOM     27  C   UNL     1       0.690  -0.478  -1.207  0.00  0.00    -0.097 C 
ATOM     28  H   UNL     1      -0.945  -0.353   0.009  0.00  0.00    -0.083 HD
ENDBRANCH  24  26
ENDBRANCH  23  24
ENDBRANCH  21  23
ENDBRANCH  16  21
ENDBRANCH   1  16
TORSDOF 7
