REMARK  Name = ZINC63122563
REMARK  6 active torsions:
REMARK  status: ('A' for Active; 'I' for Inactive)
REMARK    1  A    between atoms: C_4  and  C_7
REMARK    2  A    between atoms: C_13  and  C_14
REMARK    3  A    between atoms: N_16  and  C_17
REMARK    4  A    between atoms: C_17  and  C_18
REMARK    5  A    between atoms: C_18  and  C_20
REMARK    6  A    between atoms: C_18  and  C_25
REMARK                            x       y       z     vdW  Elec       q    Type
REMARK                         _______ _______ _______ _____ _____    ______ ____
ROOT
ATOM      1  C   UNL     1       2.557  -4.497   1.384  0.00  0.00    +0.238 C 
ATOM      2  O   UNL     1       2.382  -3.538   2.115  0.00  0.00    -0.271 OA
ATOM      3  N   UNL     1       2.122  -5.716   1.756  0.00  0.00    -0.311 N 
ATOM      4  H   UNL     1       2.261  -6.480   1.174  0.00  0.00    +0.149 HD
ENDROOT
BRANCH   1  10
ATOM      5  C   UNL     1       3.920  -0.737   0.168  0.00  0.00    +0.159 C 
ATOM      6  N   UNL     1       3.809  -2.110   0.697  0.00  0.00    -0.331 N 
ATOM      7  C   UNL     1       3.755  -3.135  -0.178  0.00  0.00    +0.020 C 
ATOM      8  C   UNL     1       4.344  -2.852  -1.555  0.00  0.00    +0.121 C 
ATOM      9  S   UNL     1       4.067  -1.025  -1.647  0.00  0.00    -0.128 S 
ATOM     10  C   UNL     1       3.216  -4.329   0.143  0.00  0.00    +0.086 C 
ATOM     11  H   UNL     1       3.775  -2.271   1.652  0.00  0.00    +0.147 HD
BRANCH   5  15
ATOM     12  C   UNL     1       0.414   1.530   1.067  0.00  0.00    +0.000 A 
ATOM     13  C   UNL     1       1.627   2.171   0.899  0.00  0.00    +0.000 A 
ATOM     14  C   UNL     1       2.762   1.437   0.608  0.00  0.00    +0.006 A 
ATOM     15  C   UNL     1       2.683   0.063   0.486  0.00  0.00    -0.017 A 
ATOM     16  C   UNL     1       1.470  -0.578   0.655  0.00  0.00    +0.006 A 
ATOM     17  C   UNL     1       0.335   0.156   0.945  0.00  0.00    +0.000 A 
ENDBRANCH   5  15
ENDBRANCH   1  10
BRANCH   3  18
ATOM     18  C   UNL     1       1.440  -5.890   3.041  0.00  0.00    +0.117 C 
BRANCH  18  19
ATOM     19  C   UNL     1       1.053  -7.359   3.219  0.00  0.00    +0.071 C 
BRANCH  19  20
ATOM     20  C   UNL     1       0.462  -7.561   4.590  0.00  0.00    -0.032 C 
ATOM     21  C   UNL     1       0.928  -8.374   5.566  0.00  0.00    -0.000 A 
ATOM     22  C   UNL     1       2.081  -9.280   5.638  0.00  0.00    +0.010 A 
ATOM     23  C   UNL     1       2.295  -9.979   6.776  0.00  0.00    +0.001 A 
ATOM     24  C   UNL     1       1.445  -9.861   7.884  0.00  0.00    +0.002 A 
ATOM     25  C   UNL     1       0.366  -9.050   7.893  0.00  0.00    +0.026 A 
ATOM     26  C   UNL     1       0.047  -8.267   6.750  0.00  0.00    +0.043 A 
ATOM     27  N   UNL     1      -0.927  -7.421   6.516  0.00  0.00    -0.380 N 
ATOM     28  C   UNL     1      -0.769  -6.890   5.157  0.00  0.00    +0.145 C 
ATOM     29  H   UNL     1      -1.632  -7.182   7.139  0.00  0.00    +0.160 HD
ENDBRANCH  19  20
BRANCH  19  30
ATOM     30  C   UNL     1       0.037  -7.742   2.173  0.00  0.00    -0.002 A 
ATOM     31  C   UNL     1       0.117  -8.696   1.214  0.00  0.00    +0.012 A 
ATOM     32  C   UNL     1      -0.950  -8.873   0.354  0.00  0.00    +0.008 A 
ATOM     33  C   UNL     1      -2.045  -8.087   0.494  0.00  0.00    +0.045 A 
ATOM     34  S   UNL     1      -1.586  -7.059   1.880  0.00  0.00    -0.101 S 
ENDBRANCH  19  30
ENDBRANCH  18  19
ENDBRANCH   3  18
TORSDOF 6
