REMARK  Name = ZINC57509115
REMARK  8 active torsions:
REMARK  status: ('A' for Active; 'I' for Inactive)
REMARK    1  A    between atoms: C_1  and  C_2
REMARK    2  A    between atoms: C_2  and  O_3
REMARK    3  A    between atoms: O_3  and  C_4
REMARK    4  A    between atoms: C_4  and  C_6
REMARK    5  A    between atoms: C_7  and  C_22
REMARK    6  A    between atoms: C_12  and  C_14
REMARK    7  A    between atoms: C_17  and  O_21
REMARK    8  A    between atoms: C_19  and  O_20
REMARK                            x       y       z     vdW  Elec       q    Type
REMARK                         _______ _______ _______ _____ _____    ______ ____
ROOT
ATOM      1  C   UNL     1      -2.756  -2.353   0.113  0.00  0.00    +0.079 C 
ATOM      2  C   UNL     1      -2.883  -3.680  -0.102  0.00  0.00    +0.039 C 
ATOM      3  N   UNL     1      -4.114  -4.266  -0.191  0.00  0.00    -0.271 N 
ATOM      4  C   UNL     1      -5.266  -3.593  -0.075  0.00  0.00    +0.304 C 
ATOM      5  O   UNL     1      -6.314  -4.202  -0.169  0.00  0.00    -0.252 OA
ATOM      6  N   UNL     1      -5.302  -2.263   0.141  0.00  0.00    -0.288 N 
ATOM      7  C   UNL     1      -4.025  -1.538   0.259  0.00  0.00    +0.147 C 
ATOM      8  H   UNL     1      -4.155  -5.222  -0.346  0.00  0.00    +0.156 HD
ATOM      9  H   UNL     1      -6.148  -1.796   0.221  0.00  0.00    +0.151 HD
ENDROOT
BRANCH   7  10
ATOM     10  C   UNL     1      -3.992  -0.862   1.605  0.00  0.00    +0.019 A 
ATOM     11  C   UNL     1      -4.583  -1.470   2.697  0.00  0.00    +0.013 A 
ATOM     12  C   UNL     1      -4.553  -0.853   3.933  0.00  0.00    +0.046 A 
ATOM     13  C   UNL     1      -3.931   0.379   4.081  0.00  0.00    +0.120 A 
ATOM     14  C   UNL     1      -3.338   0.990   2.987  0.00  0.00    +0.091 A 
ATOM     15  C   UNL     1      -3.363   0.366   1.749  0.00  0.00    +0.126 A 
BRANCH  15  16
ATOM     16  O   UNL     1      -2.777   0.960   0.676  0.00  0.00    -0.506 OA
ATOM     17  H   UNL     1      -3.367   1.542   0.178  0.00  0.00    +0.292 HD
ENDBRANCH  15  16
BRANCH  13  18
ATOM     18  O   UNL     1      -3.903   0.985   5.297  0.00  0.00    -0.507 OA
ATOM     19  H   UNL     1      -3.133   0.753   5.835  0.00  0.00    +0.292 HD
ENDBRANCH  13  18
ENDBRANCH   7  10
BRANCH   1  20
ATOM     20  C   UNL     1      -1.482  -1.746   0.206  0.00  0.00    +0.339 C 
ATOM     21  O   UNL     1      -1.021  -1.151  -0.750  0.00  0.00    -0.245 OA
BRANCH  20  22
ATOM     22  O   UNL     1      -0.778  -1.826   1.354  0.00  0.00    -0.462 OA
BRANCH  22  24
ATOM     23  C   UNL     1       1.144  -1.386   2.751  0.00  0.00    +0.048 C 
ATOM     24  C   UNL     1       0.501  -1.189   1.377  0.00  0.00    +0.229 C 
ENDBRANCH  22  24
ENDBRANCH  20  22
ENDBRANCH   1  20
BRANCH   2  25
ATOM     25  C   UNL     1      -1.646  -4.529  -0.247  0.00  0.00    +0.160 C 
ATOM     26 CL   UNL     1      -1.213  -5.239   1.353  0.00  0.00    -0.119 Cl
ENDBRANCH   2  25
TORSDOF 7
