REMARK  Name = ZINC06790365
REMARK  7 active torsions:
REMARK  status: ('A' for Active; 'I' for Inactive)
REMARK    1  A    between atoms: C_1  and  C_2
REMARK    2  A    between atoms: C_4  and  C_16
REMARK    3  A    between atoms: C_5  and  C_15
REMARK    4  A    between atoms: N_6  and  C_7
REMARK    5  A    between atoms: C_16  and  C_18
REMARK    6  A    between atoms: C_18  and  S_19
REMARK    7  A    between atoms: S_19  and  C_20
REMARK                            x       y       z     vdW  Elec       q    Type
REMARK                         _______ _______ _______ _____ _____    ______ ____
ROOT
ATOM      1  C   UNL     1      -2.561   1.634   0.022  0.00  0.00    +0.064 C 
ATOM      2  C   UNL     1      -1.150   2.163   0.019  0.00  0.00    +0.022 A 
ATOM      3  C   UNL     1      -0.805   3.461   0.028  0.00  0.00    +0.034 A 
ATOM      4  C   UNL     1       0.664   3.500   0.014  0.00  0.00    +0.039 A 
ATOM      5  C   UNL     1       1.078   2.182   0.004  0.00  0.00    +0.031 A 
ATOM      6  N   UNL     1      -0.017   1.398   0.010  0.00  0.00    -0.317 N 
ATOM      7  C   UNL     1       2.508   1.704  -0.012  0.00  0.00    +0.064 C 
ENDROOT
BRANCH   6   8
ATOM      8  C   UNL     1       0.002  -0.004   0.002  0.00  0.00    +0.048 A 
ATOM      9  C   UNL     1      -0.486  -0.712   1.092  0.00  0.00    +0.027 A 
ATOM     10  C   UNL     1      -0.467  -2.093   1.083  0.00  0.00    +0.023 A 
ATOM     11  C   UNL     1       0.038  -2.772  -0.012  0.00  0.00    +0.059 A 
ATOM     12  C   UNL     1       0.525  -2.068  -1.101  0.00  0.00    +0.061 A 
ATOM     13  C   UNL     1       0.503  -0.686  -1.098  0.00  0.00    +0.047 A 
ATOM     14 CL   UNL     1       1.158  -2.923  -2.473  0.00  0.00    -0.082 Cl
ATOM     15 CL   UNL     1       0.061  -4.508  -0.021  0.00  0.00    -0.082 Cl
ENDBRANCH   6   8
BRANCH   4  16
ATOM     16  C   UNL     1       1.514   4.692   0.013  0.00  0.00    +0.175 C 
ATOM     17  O   UNL     1       2.722   4.576   0.001  0.00  0.00    -0.291 OA
BRANCH  16  18
ATOM     18  C   UNL     1       0.890   6.064   0.025  0.00  0.00    +0.157 C 
BRANCH  18  19
ATOM     19  S   UNL     1       2.195   7.323   0.020  0.00  0.00    -0.076 S 
BRANCH  19  20
ATOM     20  C   UNL     1       1.315   8.849   0.036  0.00  0.00    +0.210 A 
ATOM     21  N   UNL     1       1.870  10.067   0.037  0.00  0.00    -0.188 NA
ATOM     22  C   UNL     1       0.926  10.983   0.050  0.00  0.00    +0.209 A 
ATOM     23  N   UNL     1      -0.267  10.353   0.057  0.00  0.00    -0.246 N 
ATOM     24  H   UNL     1      -1.198  10.938   0.072  0.00  0.00    +0.192 HD
ATOM     25  N   UNL     1       0.010   8.977   0.042  0.00  0.00    -0.144 NA
ATOM     26  N   UNL     1       1.122  12.352   0.056  0.00  0.00    -0.328 N 
ATOM     27  H   UNL     1       0.258  13.032   0.067  0.00  0.00    +0.145 HD
ATOM     28  H   UNL     1       2.143  12.762   0.050  0.00  0.00    +0.145 HD
ENDBRANCH  19  20
ENDBRANCH  18  19
ENDBRANCH  16  18
ENDBRANCH   4  16
TORSDOF 5
