REMARK  Name = ZINC22006915
REMARK  11 active torsions:
REMARK  status: ('A' for Active; 'I' for Inactive)
REMARK    1  A    between atoms: C_1  and  C_2
REMARK    2  A    between atoms: C_2  and  C_25
REMARK    3  A    between atoms: C_3  and  C_4
REMARK    4  A    between atoms: C_6  and  C_11
REMARK    5  A    between atoms: C_8  and  C_9
REMARK    6  A    between atoms: C_8  and  C_10
REMARK    7  A    between atoms: N_13  and  C_14
REMARK    8  A    between atoms: C_17  and  O_22
REMARK    9  A    between atoms: C_19  and  O_20
REMARK   10  A    between atoms: O_20  and  C_21
REMARK   11  A    between atoms: O_22  and  C_23
REMARK                            x       y       z     vdW  Elec       q    Type
REMARK                         _______ _______ _______ _____ _____    ______ ____
ROOT
ATOM      1  C   UNL     1      -2.413  -0.308  -0.098  0.00  0.00    +0.221 C 
ATOM      2  O   UNL     1      -1.357  -0.904  -0.107  0.00  0.00    -0.275 OA
ATOM      3  N   UNL     1      -2.428   1.036   0.008  0.00  0.00    -0.282 N 
ATOM      4  H   UNL     1      -3.386   1.570   0.089  0.00  0.00    +0.155 HD
ENDROOT
BRANCH   3   5
ATOM      5  C   UNL     1      -1.222   1.752   0.014  0.00  0.00    +0.077 A 
ATOM      6  C   UNL     1      -0.094   1.207   0.611  0.00  0.00    +0.050 A 
ATOM      7  C   UNL     1       1.096   1.910   0.612  0.00  0.00    +0.084 A 
ATOM      8  C   UNL     1       1.164   3.165   0.022  0.00  0.00    +0.142 A 
ATOM      9  C   UNL     1       0.037   3.716  -0.570  0.00  0.00    +0.094 A 
ATOM     10  C   UNL     1      -1.157   3.013  -0.573  0.00  0.00    +0.145 A 
ATOM     11 CL   UNL     1       2.508   1.223   1.352  0.00  0.00    -0.080 Cl
BRANCH  10  12
ATOM     12  O   UNL     1      -2.262   3.552  -1.153  0.00  0.00    -0.493 OA
ATOM     13  C   UNL     1      -2.121   4.846  -1.741  0.00  0.00    +0.277 C 
ENDBRANCH  10  12
BRANCH   8  14
ATOM     14  O   UNL     1       2.336   3.855   0.025  0.00  0.00    -0.494 OA
ATOM     15  C   UNL     1       2.333   5.140  -0.600  0.00  0.00    +0.277 C 
ENDBRANCH   8  14
ENDBRANCH   3   5
BRANCH   1  17
ATOM     16  C   UNL     1      -3.965  -1.850  -1.497  0.00  0.00    +0.030 C 
ATOM     17  C   UNL     1      -3.709  -1.070  -0.206  0.00  0.00    +0.089 C 
ATOM     18  C   UNL     1      -3.633  -2.598  -0.204  0.00  0.00    -0.016 C 
ATOM     19  C   UNL     1      -2.247  -3.236  -0.094  0.00  0.00    +0.012 C 
ATOM     20  C   UNL     1      -4.768  -3.361   0.482  0.00  0.00    +0.012 C 
BRANCH  16  23
ATOM     21  C   UNL     1      -4.473  -2.937  -4.046  0.00  0.00    +0.038 C 
ATOM     22  C   UNL     1      -3.138  -2.303  -3.749  0.00  0.00    -0.079 C 
ATOM     23  C   UNL     1      -2.902  -1.797  -2.564  0.00  0.00    -0.023 C 
ATOM     24  C   UNL     1      -2.075  -2.250  -4.816  0.00  0.00    +0.038 C 
ENDBRANCH  16  23
ENDBRANCH   1  17
TORSDOF 5
