REMARK  Name = ZINC17306211
REMARK  9 active torsions:
REMARK  status: ('A' for Active; 'I' for Inactive)
REMARK    1  A    between atoms: C_1  and  C_2
REMARK    2  A    between atoms: C_2  and  C_4
REMARK    3  A    between atoms: C_2  and  N_51
REMARK    4  A    between atoms: C_7  and  N_10
REMARK    5  A    between atoms: C_15  and  N_51
REMARK    6  A    between atoms: C_16  and  C_17
REMARK    7  A    between atoms: C_16  and  N_51
REMARK    8  A    between atoms: C_22  and  O_28
REMARK    9  A    between atoms: O_28  and  C_29
REMARK                            x       y       z     vdW  Elec       q    Type
REMARK                         _______ _______ _______ _____ _____    ______ ____
ROOT
ATOM      1  C   UNL     1       5.743   7.657  -1.991  0.00  0.00    -0.095 C 
ATOM      2  N   UNL     1       6.545   6.577  -1.379  0.00  0.00    +0.385 N 
ATOM      3  H   UNL     1       6.380   5.705  -1.894  0.00  0.00    -0.081 HD
ENDROOT
BRANCH   2   5
ATOM      4  C   UNL     1       8.348   7.233  -2.902  0.00  0.00    -0.008 C 
ATOM      5  C   UNL     1       7.983   6.913  -1.451  0.00  0.00    -0.041 C 
BRANCH   5   6
ATOM      6  C   UNL     1       8.784   5.727  -0.981  0.00  0.00    -0.061 A 
ATOM      7  C   UNL     1       8.473   4.459  -1.437  0.00  0.00    +0.004 A 
ATOM      8  C   UNL     1       9.210   3.371  -1.012  0.00  0.00    +0.028 A 
ATOM      9  C   UNL     1      10.257   3.549  -0.118  0.00  0.00    +0.067 A 
ATOM     10  C   UNL     1      10.563   4.822   0.342  0.00  0.00    +0.028 A 
ATOM     11  C   UNL     1       9.826   5.908  -0.090  0.00  0.00    +0.004 A 
BRANCH   9  12
ATOM     12  N   UNL     1      11.003   2.446   0.318  0.00  0.00    -0.220 N 
ATOM     13  C   UNL     1      10.822   1.158  -0.034  0.00  0.00    +0.225 A 
ATOM     14  N   UNL     1      11.722   0.438   0.587  0.00  0.00    -0.222 NA
ATOM     15  C   UNL     1      12.485   1.224   1.345  0.00  0.00    +0.245 A 
ATOM     16  N   UNL     1      12.084   2.462   1.214  0.00  0.00    -0.154 NA
ENDBRANCH   9  12
ENDBRANCH   5   6
ENDBRANCH   2   5
BRANCH   2  17
ATOM     17  C   UNL     1       6.142   6.386   0.030  0.00  0.00    -0.039 C 
BRANCH  17  18
ATOM     18  C   UNL     1       4.726   5.872   0.066  0.00  0.00    -0.026 A 
ATOM     19  C   UNL     1       3.696   6.726   0.342  0.00  0.00    +0.014 A 
ATOM     20  C   UNL     1       2.389   6.206   0.365  0.00  0.00    +0.001 A 
ATOM     21  C   UNL     1       1.282   7.026   0.641  0.00  0.00    +0.013 A 
ATOM     22  C   UNL     1       0.032   6.490   0.649  0.00  0.00    +0.046 A 
ATOM     23  C   UNL     1      -0.166   5.129   0.396  0.00  0.00    +0.122 A 
ATOM     24  C   UNL     1       0.889   4.305   0.124  0.00  0.00    +0.074 A 
ATOM     25  C   UNL     1       2.193   4.827   0.102  0.00  0.00    +0.076 A 
ATOM     26  N   UNL     1       3.244   4.044  -0.162  0.00  0.00    -0.235 NA
ATOM     27  C   UNL     1       4.465   4.526  -0.184  0.00  0.00    +0.131 A 
ATOM     28 CL   UNL     1       5.789   3.459  -0.532  0.00  0.00    -0.062 Cl
BRANCH  23  29
ATOM     29  O   UNL     1      -1.425   4.620   0.416  0.00  0.00    -0.495 OA
ATOM     30  C   UNL     1      -2.488   5.530   0.707  0.00  0.00    +0.277 C 
ENDBRANCH  23  29
ENDBRANCH  17  18
ENDBRANCH   2  17
TORSDOF 6
