REMARK  Name = ZINC59310692
REMARK  11 active torsions:
REMARK  status: ('A' for Active; 'I' for Inactive)
REMARK    1  A    between atoms: C_1  and  C_2
REMARK    2  A    between atoms: C_2  and  C_25
REMARK    3  A    between atoms: N_3  and  N_4
REMARK    4  A    between atoms: C_7  and  S_10
REMARK    5  A    between atoms: S_10  and  C_11
REMARK    6  A    between atoms: C_11  and  C_12
REMARK    7  A    between atoms: N_14  and  C_15
REMARK    8  A    between atoms: C_18  and  O_23
REMARK    9  A    between atoms: C_20  and  O_21
REMARK   10  A    between atoms: O_21  and  C_22
REMARK   11  A    between atoms: O_23  and  C_24
REMARK                            x       y       z     vdW  Elec       q    Type
REMARK                         _______ _______ _______ _____ _____    ______ ____
ROOT
ATOM      1  N   UNL     1       0.093   0.042   2.322  0.00  0.00    -0.205 N 
ATOM      2  C   UNL     1       0.104  -0.656   3.516  0.00  0.00    +0.232 A 
ATOM      3  N   UNL     1       0.119  -1.966   3.647  0.00  0.00    -0.186 NA
ATOM      4  C   UNL     1       0.125  -2.288   4.945  0.00  0.00    +0.211 A 
ATOM      5  N   UNL     1       0.113  -1.186   5.658  0.00  0.00    -0.144 NA
ATOM      6  N   UNL     1       0.105  -0.113   4.752  0.00  0.00    -0.245 N 
ATOM      7  H   UNL     1       0.087   1.012   2.326  0.00  0.00    +0.177 HD
ATOM      8  H   UNL     1       0.100   0.832   4.971  0.00  0.00    +0.192 HD
ENDROOT
BRANCH   1  11
ATOM      9  C   UNL     1       0.073   1.500   0.007  0.00  0.00    +0.063 C 
ATOM     10  C   UNL     1       0.084  -0.007  -0.001  0.00  0.00    +0.040 C 
ATOM     11  N   UNL     1       0.093  -0.653   1.105  0.00  0.00    -0.189 NA
BRANCH  10  12
ATOM     12  C   UNL     1       0.083  -0.754  -1.310  0.00  0.00    +0.011 C 
ATOM     13  C   UNL     1       1.326  -0.372  -2.115  0.00  0.00    +0.016 C 
ATOM     14  C   UNL     1       1.325  -1.130  -3.444  0.00  0.00    -0.010 C 
ATOM     15  C   UNL     1       1.337  -2.635  -3.172  0.00  0.00    +0.007 C 
ATOM     16  C   UNL     1       0.094  -3.018  -2.366  0.00  0.00    -0.010 C 
ATOM     17  C   UNL     1       0.095  -2.260  -1.038  0.00  0.00    +0.016 C 
ATOM     18  C   UNL     1      -1.161  -2.653  -3.161  0.00  0.00    +0.007 C 
ATOM     19  C   UNL     1      -1.173  -1.147  -3.433  0.00  0.00    -0.010 C 
ATOM     20  C   UNL     1       0.070  -0.765  -4.239  0.00  0.00    +0.007 C 
ATOM     21  C   UNL     1      -1.172  -0.389  -2.104  0.00  0.00    +0.016 C 
ENDBRANCH  10  12
ENDBRANCH   1  11
BRANCH   4  22
ATOM     22  S   UNL     1       0.145  -3.926   5.593  0.00  0.00    -0.075 S 
BRANCH  22  23
ATOM     23  C   UNL     1       0.145  -3.687   7.392  0.00  0.00    +0.173 C 
BRANCH  23  24
ATOM     24  C   UNL     1       0.162  -5.029   8.077  0.00  0.00    +0.228 C 
ATOM     25  O   UNL     1       0.172  -6.046   7.418  0.00  0.00    -0.275 OA
ATOM     26  N   UNL     1       0.165  -5.098   9.423  0.00  0.00    -0.282 N 
ATOM     27  H   UNL     1       0.222  -4.286   9.950  0.00  0.00    +0.155 HD
BRANCH  26  28
ATOM     28  C   UNL     1       0.085  -6.345  10.062  0.00  0.00    +0.076 A 
ATOM     29  C   UNL     1       0.692  -7.455   9.494  0.00  0.00    +0.030 A 
ATOM     30  C   UNL     1       0.614  -8.683  10.123  0.00  0.00    +0.047 A 
ATOM     31  C   UNL     1      -0.071  -8.808  11.323  0.00  0.00    +0.124 A 
ATOM     32  C   UNL     1      -0.680  -7.701  11.894  0.00  0.00    +0.093 A 
ATOM     33  C   UNL     1      -0.598  -6.467  11.269  0.00  0.00    +0.145 A 
BRANCH  33  34
ATOM     34  O   UNL     1      -1.189  -5.379  11.831  0.00  0.00    -0.493 OA
ATOM     35  C   UNL     1      -1.873  -5.579  13.069  0.00  0.00    +0.277 C 
ENDBRANCH  33  34
BRANCH  31  36
ATOM     36  O   UNL     1      -0.146 -10.018  11.939  0.00  0.00    -0.495 OA
ATOM     37  C   UNL     1       0.504 -11.116  11.295  0.00  0.00    +0.277 C 
ENDBRANCH  31  36
ENDBRANCH  26  28
ENDBRANCH  23  24
ENDBRANCH  22  23
ENDBRANCH   4  22
TORSDOF 8
