REMARK  Name = ZINC66140703
REMARK  7 active torsions:
REMARK  status: ('A' for Active; 'I' for Inactive)
REMARK    1  A    between atoms: C_3  and  N_24
REMARK    2  A    between atoms: C_6  and  C_7
REMARK    3  A    between atoms: C_7  and  N_8
REMARK    4  A    between atoms: N_11  and  C_12
REMARK    5  A    between atoms: C_12  and  C_13
REMARK    6  A    between atoms: C_13  and  C_14
REMARK    7  A    between atoms: C_14  and  C_15
REMARK                            x       y       z     vdW  Elec       q    Type
REMARK                         _______ _______ _______ _____ _____    ______ ____
ROOT
ATOM      1  N   UNL     1      -1.720  -1.028  -1.368  0.00  0.00    -0.295 N 
ATOM      2  C   UNL     1      -2.857  -1.711  -1.606  0.00  0.00    +0.300 C 
ATOM      3  O   UNL     1      -3.524  -2.124  -0.678  0.00  0.00    -0.253 OA
ATOM      4  N   UNL     1      -3.254  -1.937  -2.874  0.00  0.00    -0.299 N 
ATOM      5  H   UNL     1      -1.188  -0.698  -2.108  0.00  0.00    +0.151 HD
ATOM      6  H   UNL     1      -2.722  -1.607  -3.615  0.00  0.00    +0.150 HD
ENDROOT
BRANCH   1   7
ATOM      7  C   UNL     1      -1.288  -0.783   0.011  0.00  0.00    +0.142 C 
BRANCH   7  13
ATOM      8  C   UNL     1      -0.017   1.384   0.010  0.00  0.00    +0.010 A 
ATOM      9  C   UNL     1       1.190   2.061   0.002  0.00  0.00    +0.042 A 
ATOM     10  C   UNL     1       2.374   1.332  -0.013  0.00  0.00    +0.099 A 
ATOM     11  N   UNL     1       2.350   0.008  -0.020  0.00  0.00    -0.349 N 
ATOM     12  C   UNL     1       1.215  -0.664  -0.013  0.00  0.00    +0.089 A 
ATOM     13  C   UNL     1       0.002  -0.004   0.002  0.00  0.00    -0.014 A 
ATOM     14  H   UNL     1       3.189  -0.480  -0.031  0.00  0.00    +0.167 HD
BRANCH  10  15
ATOM     15  N   UNL     1       3.594   1.999  -0.022  0.00  0.00    -0.317 N 
ATOM     16  C   UNL     1       3.772   3.458  -0.010  0.00  0.00    +0.106 C 
ATOM     17  C   UNL     1       5.290   3.734  -0.052  0.00  0.00    +0.020 C 
ATOM     18  C   UNL     1       5.865   2.426  -0.657  0.00  0.00    +0.020 C 
ATOM     19  C   UNL     1       4.922   1.360  -0.038  0.00  0.00    +0.106 C 
ENDBRANCH  10  15
ENDBRANCH   7  13
ENDBRANCH   1   7
BRANCH   4  20
ATOM     20  C   UNL     1      -4.490  -2.679  -3.134  0.00  0.00    +0.106 C 
BRANCH  20  21
ATOM     21  C   UNL     1      -4.708  -2.794  -4.644  0.00  0.00    +0.025 C 
BRANCH  21  22
ATOM     22  C   UNL     1      -5.999  -3.570  -4.915  0.00  0.00    +0.064 C 
BRANCH  22  23
ATOM     23  C   UNL     1      -6.214  -3.683  -6.402  0.00  0.00    +0.079 A 
ATOM     24  N   UNL     1      -5.805  -4.625  -7.214  0.00  0.00    -0.249 NA
ATOM     25  C   UNL     1      -6.068  -4.600  -8.515  0.00  0.00    +0.052 A 
ATOM     26  C   UNL     1      -6.789  -3.524  -8.930  0.00  0.00    +0.013 A 
ATOM     27  S   UNL     1      -7.046  -2.631  -7.423  0.00  0.00    -0.077 S 
ATOM     28  C   UNL     1      -7.238  -3.208 -10.316  0.00  0.00    +0.044 C 
ATOM     29  C   UNL     1      -6.451  -4.100 -11.290  0.00  0.00    +0.006 C 
ATOM     30  C   UNL     1      -6.479  -5.541 -10.772  0.00  0.00    +0.006 C 
ATOM     31  C   UNL     1      -5.624  -5.664  -9.509  0.00  0.00    +0.056 C 
ENDBRANCH  22  23
ENDBRANCH  21  22
ENDBRANCH  20  21
ENDBRANCH   4  20
TORSDOF 7
