REMARK  Name = ZINC67511354
REMARK  7 active torsions:
REMARK  status: ('A' for Active; 'I' for Inactive)
REMARK    1  A    between atoms: C_1  and  C_2
REMARK    2  A    between atoms: C_2  and  O_3
REMARK    3  A    between atoms: O_3  and  C_4
REMARK    4  A    between atoms: C_9  and  N_10
REMARK    5  A    between atoms: C_11  and  C_13
REMARK    6  A    between atoms: C_16  and  O_20
REMARK    7  A    between atoms: C_22  and  C_25
REMARK                            x       y       z     vdW  Elec       q    Type
REMARK                         _______ _______ _______ _____ _____    ______ ____
ROOT
ATOM      1  C   UNL     1       0.788  -1.819  -1.331  0.00  0.00    +0.142 A 
ATOM      2  C   UNL     1       0.266  -2.684  -0.382  0.00  0.00    +0.055 A 
ATOM      3  C   UNL     1       0.384  -4.047  -0.551  0.00  0.00    +0.001 A 
ATOM      4  C   UNL     1       1.016  -4.576  -1.669  0.00  0.00    +0.126 A 
ATOM      5  C   UNL     1       1.544  -3.708  -2.620  0.00  0.00    +0.073 A 
ATOM      6  C   UNL     1       1.427  -2.337  -2.456  0.00  0.00    +0.079 A 
ATOM      7  O   UNL     1       1.000  -5.938  -1.646  0.00  0.00    -0.488 OA
ATOM      8  C   UNL     1       0.751  -6.385  -0.302  0.00  0.00    +0.175 C 
ATOM      9  C   UNL     1      -0.066  -5.218   0.301  0.00  0.00    +0.083 C 
ATOM     10  C   UNL     1       2.065  -6.582   0.455  0.00  0.00    +0.052 C 
ENDROOT
BRANCH   6  11
ATOM     11  N   UNL     1       1.955  -1.470  -3.420  0.00  0.00    -0.278 N 
ATOM     12  C   UNL     1       2.115  -1.892  -4.690  0.00  0.00    +0.248 C 
ATOM     13  O   UNL     1       1.709  -2.989  -5.022  0.00  0.00    -0.270 OA
ATOM     14  H   UNL     1       2.206  -0.566  -3.174  0.00  0.00    +0.155 HD
BRANCH  12  15
ATOM     15  C   UNL     1       2.784  -1.023  -5.678  0.00  0.00    +0.039 A 
ATOM     16  C   UNL     1       3.257   0.236  -5.296  0.00  0.00    +0.017 A 
ATOM     17  C   UNL     1       3.881   1.044  -6.220  0.00  0.00    +0.047 A 
ATOM     18  C   UNL     1       4.040   0.611  -7.531  0.00  0.00    +0.135 A 
ATOM     19  C   UNL     1       3.571  -0.641  -7.915  0.00  0.00    +0.083 A 
ATOM     20  C   UNL     1       2.951  -1.458  -6.995  0.00  0.00    +0.036 A 
ATOM     21 CL   UNL     1       3.773  -1.177  -9.554  0.00  0.00    -0.080 Cl
BRANCH  18  22
ATOM     22  O   UNL     1       4.655   1.411  -8.439  0.00  0.00    -0.505 OA
ATOM     23  H   UNL     1       5.613   1.285  -8.489  0.00  0.00    +0.292 HD
ENDBRANCH  18  22
ENDBRANCH  12  15
ENDBRANCH   6  11
BRANCH   1  24
ATOM     24  O   UNL     1       0.673  -0.474  -1.169  0.00  0.00    -0.490 OA
BRANCH  24  26
ATOM     25  C   UNL     1      -0.026   1.512   0.018  0.00  0.00    +0.048 C 
ATOM     26  C   UNL     1       0.006  -0.017   0.010  0.00  0.00    +0.226 C 
ENDBRANCH  24  26
ENDBRANCH   1  24
TORSDOF 5
