REMARK  Name = ZINC65263520
REMARK  5 active torsions:
REMARK  status: ('A' for Active; 'I' for Inactive)
REMARK    1  A    between atoms: C_1  and  C_2
REMARK    2  A    between atoms: C_14  and  C_16
REMARK    3  A    between atoms: C_16  and  C_17
REMARK    4  A    between atoms: C_16  and  N_18
REMARK    5  A    between atoms: C_22  and  C_24
REMARK                            x       y       z     vdW  Elec       q    Type
REMARK                         _______ _______ _______ _____ _____    ______ ____
ROOT
ATOM      1  C   UNL     1      -0.019   1.526   0.010  0.00  0.00    +0.008 C 
ATOM      2  C   UNL     1       0.002  -0.004   0.002  0.00  0.00    -0.009 C 
ATOM      3  C   UNL     1       0.736  -0.501  -1.247  0.00  0.00    +0.008 C 
ATOM      4  C   UNL     1       0.548  -2.011  -1.393  0.00  0.00    +0.037 C 
ATOM      5  C   UNL     1       0.950  -2.688  -0.085  0.00  0.00    -0.023 A 
ATOM      6  C   UNL     1       1.022  -1.976   1.064  0.00  0.00    -0.004 A 
ATOM      7  S   UNL     1       1.517  -3.146   2.304  0.00  0.00    -0.073 S 
ATOM      8  C   UNL     1       1.626  -4.581   1.284  0.00  0.00    +0.116 A 
ATOM      9  C   UNL     1       1.271  -4.101   0.003  0.00  0.00    +0.075 A 
ATOM     10  C   UNL     1       1.266  -5.054  -1.071  0.00  0.00    +0.260 A 
ATOM     11  O   UNL     1       0.975  -4.742  -2.213  0.00  0.00    -0.267 OA
ATOM     12  N   UNL     1       1.605  -6.321  -0.734  0.00  0.00    -0.309 N 
ATOM     13  H   UNL     1       1.615  -6.997  -1.430  0.00  0.00    +0.170 HD
ATOM     14  C   UNL     1       1.933  -6.688   0.528  0.00  0.00    +0.128 A 
ATOM     15  N   UNL     1       1.949  -5.845   1.538  0.00  0.00    -0.225 NA
ATOM     16  C   UNL     1       0.744  -0.516   1.245  0.00  0.00    +0.046 C 
ENDROOT
BRANCH  14  17
ATOM     17  C   UNL     1       2.294  -8.127   0.787  0.00  0.00    +0.120 C 
ATOM     18  C   UNL     1       1.163  -9.034   0.298  0.00  0.00    +0.032 C 
BRANCH  17  19
ATOM     19  N   UNL     1       2.495  -8.330   2.228  0.00  0.00    -0.288 NA
ATOM     20  C   UNL     1       1.236  -8.154   2.966  0.00  0.00    +0.113 C 
ATOM     21  C   UNL     1       1.502  -8.315   4.465  0.00  0.00    +0.176 C 
ATOM     22  O   UNL     1       2.096  -9.594   4.704  0.00  0.00    -0.365 OA
ATOM     23  C   UNL     1       3.325  -9.799   4.002  0.00  0.00    +0.217 C 
ATOM     24  C   UNL     1       3.077  -9.653   2.498  0.00  0.00    +0.126 C 
BRANCH  23  25
ATOM     25  C   UNL     1       3.847 -11.181   4.294  0.00  0.00    +0.241 C 
ATOM     26  O   UNL     1       3.186 -11.952   4.957  0.00  0.00    -0.273 OA
ATOM     27  N   UNL     1       5.050 -11.562   3.819  0.00  0.00    -0.327 N 
ATOM     28  H   UNL     1       5.579 -10.946   3.288  0.00  0.00    +0.145 HD
ATOM     29  H   UNL     1       5.386 -12.452   4.007  0.00  0.00    +0.145 HD
ENDBRANCH  23  25
ENDBRANCH  17  19
ENDBRANCH  14  17
TORSDOF 3
