REMARK  Name = ZINC23080442
REMARK  11 active torsions:
REMARK  status: ('A' for Active; 'I' for Inactive)
REMARK    1  A    between atoms: C_1  and  N_2
REMARK    2  A    between atoms: N_2  and  C_3
REMARK    3  A    between atoms: N_2  and  C_4
REMARK    4  A    between atoms: C_4  and  C_6
REMARK    5  A    between atoms: C_4  and  C_28
REMARK    6  A    between atoms: C_6  and  N_7
REMARK    7  A    between atoms: C_8  and  C_10
REMARK    8  A    between atoms: C_10  and  C_12
REMARK    9  A    between atoms: C_10  and  N_19
REMARK   10  A    between atoms: C_12  and  C_13
REMARK   11  A    between atoms: C_20  and  C_22
REMARK                            x       y       z     vdW  Elec       q    Type
REMARK                         _______ _______ _______ _____ _____    ______ ____
ROOT
ATOM      1  C   UNL     1       1.710  -1.688  -0.009  0.00  0.00    +0.163 C 
ENDROOT
BRANCH   1   3
ATOM      2  N   UNL     1       3.135  -0.031   1.149  0.00  0.00    -0.315 N 
ATOM      3  C   UNL     1       2.514  -0.414   0.015  0.00  0.00    +0.234 C 
ATOM      4  O   UNL     1       2.603   0.266  -0.985  0.00  0.00    -0.274 OA
ATOM      5  H   UNL     1       3.055  -0.648   2.055  0.00  0.00    +0.149 HD
BRANCH   2   6
ATOM      6  C   UNL     1       3.917   1.208   1.172  0.00  0.00    +0.093 C 
BRANCH   6   7
ATOM      7  C   UNL     1       4.309   1.536   2.614  0.00  0.00    -0.020 C 
BRANCH   7   8
ATOM      8  C   UNL     1       5.221   2.736   2.627  0.00  0.00    -0.041 A 
ATOM      9  C   UNL     1       4.732   3.971   3.009  0.00  0.00    +0.003 A 
ATOM     10  C   UNL     1       5.569   5.071   3.024  0.00  0.00    +0.000 A 
ATOM     11  C   UNL     1       6.893   4.938   2.648  0.00  0.00    +0.001 A 
ATOM     12  C   UNL     1       7.381   3.705   2.261  0.00  0.00    +0.020 A 
ATOM     13  C   UNL     1       6.545   2.603   2.250  0.00  0.00    +0.043 A 
ATOM     14 CL   UNL     1       7.157   1.053   1.763  0.00  0.00    -0.083 Cl
ENDBRANCH   7   8
BRANCH   7  16
ATOM     15  C   UNL     1       2.131   2.592   2.596  0.00  0.00    -0.096 C 
ATOM     16  N   UNL     1       3.100   1.831   3.395  0.00  0.00    +0.382 N 
ATOM     17  C   UNL     1       2.498   0.598   3.919  0.00  0.00    -0.096 C 
ATOM     18  H   UNL     1       3.395   2.454   4.252  0.00  0.00    -0.082 HD
ENDBRANCH   7  16
ENDBRANCH   6   7
ENDBRANCH   2   6
ENDBRANCH   1   3
BRANCH   1  19
ATOM     19  N   UNL     1       1.140  -1.881  -1.345  0.00  0.00    -0.300 N 
ATOM     20  C   UNL     1       0.827  -3.120  -1.772  0.00  0.00    +0.245 C 
ATOM     21  O   UNL     1       1.017  -4.078  -1.049  0.00  0.00    -0.270 OA
ATOM     22  H   UNL     1       0.968  -1.014  -2.000  0.00  0.00    +0.150 HD
BRANCH  20  23
ATOM     23  C   UNL     1       0.252  -3.314  -3.120  0.00  0.00    +0.037 A 
ATOM     24  C   UNL     1       0.027  -2.215  -3.951  0.00  0.00    +0.013 A 
ATOM     25  C   UNL     1      -0.505  -2.404  -5.210  0.00  0.00    +0.001 A 
ATOM     26  C   UNL     1      -0.825  -3.678  -5.645  0.00  0.00    +0.000 A 
ATOM     27  C   UNL     1      -0.610  -4.770  -4.824  0.00  0.00    +0.001 A 
ATOM     28  C   UNL     1      -0.074  -4.596  -3.565  0.00  0.00    +0.013 A 
ENDBRANCH  20  23
ENDBRANCH   1  19
BRANCH   1  29
ATOM     29  C   UNL     1       0.580  -1.598   1.019  0.00  0.00    +0.067 C 
BRANCH  29  30
ATOM     30  C   UNL     1      -0.148  -2.916   1.082  0.00  0.00    -0.045 A 
ATOM     31  C   UNL     1      -1.235  -3.145   0.259  0.00  0.00    +0.004 A 
ATOM     32  C   UNL     1      -1.900  -4.356   0.313  0.00  0.00    +0.000 A 
ATOM     33  C   UNL     1      -1.485  -5.333   1.198  0.00  0.00    +0.000 A 
ATOM     34  C   UNL     1      -0.402  -5.102   2.025  0.00  0.00    +0.000 A 
ATOM     35  C   UNL     1       0.267  -3.893   1.967  0.00  0.00    +0.004 A 
ENDBRANCH  29  30
ENDBRANCH   1  29
TORSDOF 9
