REMARK  Name = ZINC12246649
REMARK  10 active torsions:
REMARK  status: ('A' for Active; 'I' for Inactive)
REMARK    1  A    between atoms: C_1  and  C_2
REMARK    2  A    between atoms: C_3  and  C_9
REMARK    3  A    between atoms: C_4  and  C_8
REMARK    4  A    between atoms: C_9  and  C_10
REMARK    5  A    between atoms: C_10  and  N_62
REMARK    6  A    between atoms: C_11  and  N_62
REMARK    7  A    between atoms: N_14  and  C_17
REMARK    8  A    between atoms: C_20  and  N_23
REMARK    9  A    between atoms: N_23  and  S_24
REMARK   10  A    between atoms: S_24  and  C_27
REMARK                            x       y       z     vdW  Elec       q    Type
REMARK                         _______ _______ _______ _____ _____    ______ ____
ROOT
ATOM      1  C   UNL     1       4.516   4.888  -7.275  0.00  0.00    -0.069 C 
ATOM      2  C   UNL     1       4.650   5.322  -5.813  0.00  0.00    +0.003 C 
ATOM      3  C   UNL     1       4.273   4.152  -4.902  0.00  0.00    +0.103 C 
ATOM      4  N   UNL     1       5.157   3.013  -5.175  0.00  0.00    -0.330 N 
ATOM      5  C   UNL     1       5.011   2.547  -6.560  0.00  0.00    +0.103 C 
ATOM      6  C   UNL     1       5.410   3.670  -7.521  0.00  0.00    +0.003 C 
ENDROOT
BRANCH   4   7
ATOM      7  C   UNL     1       4.927   1.970  -4.269  0.00  0.00    +0.030 A 
ATOM      8  C   UNL     1       5.665   0.797  -4.358  0.00  0.00    +0.025 A 
ATOM      9  C   UNL     1       5.438  -0.231  -3.464  0.00  0.00    +0.026 A 
ATOM     10  C   UNL     1       4.473  -0.091  -2.476  0.00  0.00    +0.048 A 
ATOM     11  C   UNL     1       3.731   1.080  -2.390  0.00  0.00    +0.026 A 
ATOM     12  C   UNL     1       3.962   2.110  -3.281  0.00  0.00    +0.025 A 
BRANCH  10  13
ATOM     13  N   UNL     1       4.243  -1.133  -1.569  0.00  0.00    -0.216 N 
ATOM     14  H   UNL     1       3.446  -1.680  -1.651  0.00  0.00    +0.174 HD
BRANCH  13  15
ATOM     15  S   UNL     1       5.332  -1.431  -0.358  0.00  0.00    +0.072 S 
ATOM     16  O   UNL     1       6.611  -1.511  -0.973  0.00  0.00    -0.150 OA
ATOM     17  O   UNL     1       4.794  -2.491   0.420  0.00  0.00    -0.150 OA
BRANCH  15  18
ATOM     18  C   UNL     1       5.361  -0.008   0.680  0.00  0.00    +0.108 A 
ATOM     19  C   UNL     1       4.426   0.130   1.689  0.00  0.00    +0.029 A 
ATOM     20  C   UNL     1       4.448   1.247   2.503  0.00  0.00    +0.002 A 
ATOM     21  C   UNL     1       5.404   2.226   2.308  0.00  0.00    +0.000 A 
ATOM     22  C   UNL     1       6.339   2.088   1.299  0.00  0.00    +0.002 A 
ATOM     23  C   UNL     1       6.317   0.971   0.485  0.00  0.00    +0.029 A 
ENDBRANCH  15  18
ENDBRANCH  13  15
ENDBRANCH  10  13
ENDBRANCH   4   7
BRANCH   1  24
ATOM     24  N   UNL     1       4.939   5.996  -8.152  0.00  0.00    +0.381 N 
ATOM     25  H   UNL     1       4.669   6.889  -7.723  0.00  0.00    -0.086 HD
ATOM     26  H   UNL     1       5.959   5.967  -8.266  0.00  0.00    -0.086 HD
BRANCH  24  27
ATOM     27  C   UNL     1       4.297   5.877  -9.474  0.00  0.00    -0.077 C 
BRANCH  27  28
ATOM     28  C   UNL     1       4.755   7.038 -10.360  0.00  0.00    +0.020 C 
BRANCH  28  31
ATOM     29  C   UNL     1       2.012   8.289 -11.195  0.00  0.00    +0.065 C 
ATOM     30  C   UNL     1       2.917   7.465 -12.075  0.00  0.00    +0.036 A 
ATOM     31  C   UNL     1       4.103   6.924 -11.714  0.00  0.00    -0.006 A 
ATOM     32  C   UNL     1       4.620   6.244 -12.821  0.00  0.00    +0.063 A 
ATOM     33  N   UNL     1       3.770   6.365 -13.809  0.00  0.00    -0.179 NA
ATOM     34  N   UNL     1       2.688   7.135 -13.363  0.00  0.00    -0.281 N 
ATOM     35  H   UNL     1       1.888   7.394 -13.904  0.00  0.00    +0.189 HD
ATOM     36  C   UNL     1       5.929   5.498 -12.868  0.00  0.00    +0.068 C 
ENDBRANCH  28  31
ENDBRANCH  27  28
ENDBRANCH  24  27
ENDBRANCH   1  24
TORSDOF 8
