REMARK  Name = ZINC18270980
REMARK  8 active torsions:
REMARK  status: ('A' for Active; 'I' for Inactive)
REMARK    1  A    between atoms: C_1  and  C_2
REMARK    2  A    between atoms: C_2  and  N_3
REMARK    3  A    between atoms: N_3  and  C_4
REMARK    4  A    between atoms: N_3  and  C_6
REMARK    5  A    between atoms: C_4  and  C_5
REMARK    6  A    between atoms: C_6  and  S_8
REMARK    7  A    between atoms: S_8  and  C_9
REMARK    8  A    between atoms: C_9  and  C_10
REMARK                            x       y       z     vdW  Elec       q    Type
REMARK                         _______ _______ _______ _____ _____    ______ ____
ROOT
ATOM      1  C   UNL     1      -5.476  -2.059   2.929  0.00  0.00    +0.142 A 
ATOM      2  N   UNL     1      -6.477  -1.200   3.005  0.00  0.00    -0.216 NA
ATOM      3  C   UNL     1      -7.706  -1.577   3.321  0.00  0.00    +0.128 A 
ATOM      4  C   UNL     1      -7.962  -2.950   3.587  0.00  0.00    +0.051 A 
ATOM      5  C   UNL     1      -9.225  -3.593   3.953  0.00  0.00    -0.025 A 
ATOM      6  C   UNL     1      -9.198  -4.926   4.153  0.00  0.00    -0.004 A 
ATOM      7  S   UNL     1      -7.514  -5.402   3.871  0.00  0.00    -0.073 S 
ATOM      8  C   UNL     1      -6.846  -3.805   3.485  0.00  0.00    +0.114 A 
ATOM      9  N   UNL     1      -5.653  -3.346   3.159  0.00  0.00    -0.224 NA
ATOM     10  C   UNL     1     -10.346  -5.811   4.533  0.00  0.00    +0.043 C 
ATOM     11  C   UNL     1     -11.498  -4.925   5.029  0.00  0.00    +0.005 C 
ATOM     12  C   UNL     1     -11.702  -3.782   4.030  0.00  0.00    +0.005 C 
ATOM     13  C   UNL     1     -10.525  -2.808   4.107  0.00  0.00    +0.037 C 
ATOM     14  N   UNL     1      -8.727  -0.647   3.391  0.00  0.00    -0.343 N 
ATOM     15  H   UNL     1      -8.612   0.231   2.994  0.00  0.00    +0.144 HD
ATOM     16  H   UNL     1      -9.559  -0.872   3.837  0.00  0.00    +0.144 HD
ENDROOT
BRANCH   1  17
ATOM     17  C   UNL     1      -4.102  -1.558   2.564  0.00  0.00    +0.152 C 
BRANCH  17  18
ATOM     18  S   UNL     1      -3.900  -1.606   0.762  0.00  0.00    -0.095 S 
BRANCH  18  19
ATOM     19  C   UNL     1      -2.266  -0.999   0.500  0.00  0.00    +0.110 C 
ATOM     20  S   UNL     1      -1.300  -0.537   1.836  0.00  0.00    -0.028 S 
BRANCH  19  21
ATOM     21  N   UNL     1      -1.777  -0.898  -0.752  0.00  0.00    -0.320 N 
BRANCH  21  23
ATOM     22  C   UNL     1      -0.461   1.127  -1.138  0.00  0.00    +0.024 C 
ATOM     23  C   UNL     1      -0.419  -0.394  -0.969  0.00  0.00    +0.102 C 
ENDBRANCH  21  23
BRANCH  21  24
ATOM     24  C   UNL     1      -2.604  -1.294  -1.895  0.00  0.00    +0.102 C 
ATOM     25  C   UNL     1      -2.377  -2.776  -2.200  0.00  0.00    +0.024 C 
ENDBRANCH  21  24
ENDBRANCH  19  21
ENDBRANCH  18  19
ENDBRANCH  17  18
ENDBRANCH   1  17
TORSDOF 6
