REMARK  Name = ZINC37987914
REMARK  9 active torsions:
REMARK  status: ('A' for Active; 'I' for Inactive)
REMARK    1  A    between atoms: C_1  and  C_2
REMARK    2  A    between atoms: C_2  and  C_4
REMARK    3  A    between atoms: C_2  and  N_18
REMARK    4  A    between atoms: C_4  and  N_5
REMARK    5  A    between atoms: N_5  and  S_6
REMARK    6  A    between atoms: S_6  and  C_9
REMARK    7  A    between atoms: C_11  and  C_15
REMARK    8  A    between atoms: N_18  and  C_19
REMARK    9  A    between atoms: N_18  and  C_20
REMARK                            x       y       z     vdW  Elec       q    Type
REMARK                         _______ _______ _______ _____ _____    ______ ____
ROOT
ATOM      1  S   UNL     1      -2.170  -3.434   0.097  0.00  0.00    +0.060 S 
ATOM      2  O   UNL     1      -1.569  -4.718   0.011  0.00  0.00    -0.153 OA
ATOM      3  O   UNL     1      -2.931  -3.022   1.224  0.00  0.00    -0.153 OA
ENDROOT
BRANCH   1   4
ATOM      4  C   UNL     1      -3.224  -3.276  -1.306  0.00  0.00    +0.127 A 
ATOM      5  C   UNL     1      -3.350  -4.309  -2.200  0.00  0.00    +0.052 A 
ATOM      6  C   UNL     1      -4.207  -4.079  -3.271  0.00  0.00    +0.103 A 
ATOM      7  S   UNL     1      -4.773  -2.422  -2.937  0.00  0.00    -0.073 S 
ATOM      8  C   UNL     1      -3.927  -2.132  -1.515  0.00  0.00    +0.082 A 
ATOM      9 BR   UNL     1      -3.947  -0.570  -0.449  0.00  0.00    -0.041 Br
BRANCH   6  10
ATOM     10  C   UNL     1      -4.543  -4.938  -4.345  0.00  0.00    +0.393 C 
ATOM     11  O   UNL     1      -4.050  -6.058  -4.412  0.00  0.00    -0.240 OA
ATOM     12  O   UNL     1      -5.327  -4.562  -5.209  0.00  0.00    -0.240 OA
ENDBRANCH   6  10
ENDBRANCH   1   4
BRANCH   1  13
ATOM     13  N   UNL     1      -0.951  -2.327  -0.080  0.00  0.00    -0.191 NA
ATOM     14  H   UNL     1      -0.036  -2.628  -0.195  0.00  0.00    +0.148 HD
BRANCH  13  15
ATOM     15  C   UNL     1      -1.254  -0.894  -0.063  0.00  0.00    +0.090 C 
BRANCH  15  17
ATOM     16  C   UNL     1      -0.297   1.385   0.303  0.00  0.00    -0.012 C 
ATOM     17  C   UNL     1       0.035  -0.103   0.170  0.00  0.00    -0.057 C 
BRANCH  17  18
ATOM     18  N   UNL     1       0.682  -0.572   1.402  0.00  0.00    +0.379 N 
ATOM     19  C   UNL     1       1.985   0.089   1.553  0.00  0.00    -0.096 C 
ATOM     20  C   UNL     1      -0.168  -0.248   2.555  0.00  0.00    -0.096 C 
ATOM     21  H   UNL     1       0.815  -1.571   1.352  0.00  0.00    -0.082 HD
ENDBRANCH  17  18
ENDBRANCH  15  17
ENDBRANCH  13  15
ENDBRANCH   1  13
TORSDOF 6
