REMARK  Name = ZINC40799169
REMARK  5 active torsions:
REMARK  status: ('A' for Active; 'I' for Inactive)
REMARK    1  A    between atoms: C_3  and  C_8
REMARK    2  A    between atoms: C_8  and  N_9
REMARK    3  A    between atoms: C_16  and  C_17
REMARK    4  A    between atoms: N_19  and  C_20
REMARK    5  A    between atoms: C_21  and  C_29
REMARK                            x       y       z     vdW  Elec       q    Type
REMARK                         _______ _______ _______ _____ _____    ______ ____
ROOT
ATOM      1  C   UNL     1       5.584   0.571   1.780  0.00  0.00    +0.265 C 
ATOM      2  O   UNL     1       6.231  -0.042   2.610  0.00  0.00    -0.268 OA
ATOM      3  N   UNL     1       5.483   0.100   0.522  0.00  0.00    -0.274 N 
ATOM      4  H   UNL     1       4.898   0.540  -0.115  0.00  0.00    +0.156 HD
ENDROOT
BRANCH   3   5
ATOM      5  C   UNL     1       6.214  -1.011   0.137  0.00  0.00    +0.085 A 
ATOM      6  C   UNL     1       6.241  -1.627  -1.105  0.00  0.00    +0.068 A 
ATOM      7  C   UNL     1       7.099  -2.789  -1.252  0.00  0.00    -0.023 A 
ATOM      8  C   UNL     1       7.773  -3.123  -0.130  0.00  0.00    -0.004 A 
ATOM      9  S   UNL     1       7.279  -1.919   1.067  0.00  0.00    -0.077 S 
ATOM     10  C   UNL     1       8.729  -4.264   0.039  0.00  0.00    +0.043 C 
ATOM     11  C   UNL     1       8.544  -5.227  -1.144  0.00  0.00    +0.005 C 
ATOM     12  C   UNL     1       8.539  -4.419  -2.445  0.00  0.00    +0.005 C 
ATOM     13  C   UNL     1       7.255  -3.589  -2.537  0.00  0.00    +0.037 C 
BRANCH   6  14
ATOM     14  C   UNL     1       5.436  -1.125  -2.223  0.00  0.00    +0.244 C 
ATOM     15  O   UNL     1       5.898  -0.292  -2.980  0.00  0.00    -0.270 OA
ATOM     16  N   UNL     1       4.184  -1.587  -2.412  0.00  0.00    -0.325 N 
ATOM     17  H   UNL     1       3.816  -2.251  -1.808  0.00  0.00    +0.145 HD
ATOM     18  H   UNL     1       3.651  -1.256  -3.152  0.00  0.00    +0.145 HD
ENDBRANCH   6  14
ENDBRANCH   3   5
BRANCH   1  26
ATOM     19  N   UNL     1       4.282   2.683   1.283  0.00  0.00    -0.331 N 
ATOM     20  C   UNL     1       3.762   3.757   2.003  0.00  0.00    +0.057 A 
ATOM     21  C   UNL     1       3.036   4.931   1.758  0.00  0.00    +0.034 A 
ATOM     22  C   UNL     1       2.712   5.752   2.779  0.00  0.00    +0.048 A 
ATOM     23  S   UNL     1       3.417   4.917   4.190  0.00  0.00    -0.095 S 
ATOM     24  C   UNL     1       4.106   3.520   3.339  0.00  0.00    +0.038 A 
ATOM     25  C   UNL     1       4.816   2.333   3.426  0.00  0.00    +0.048 A 
ATOM     26  C   UNL     1       4.916   1.820   2.151  0.00  0.00    +0.107 A 
BRANCH  19  27
ATOM     27  C   UNL     1       4.167   2.498  -0.166  0.00  0.00    +0.157 C 
BRANCH  27  30
ATOM     28  C   UNL     1       0.502   1.905  -0.851  0.00  0.00    +0.003 A 
ATOM     29  C   UNL     1       1.696   2.538  -0.560  0.00  0.00    +0.005 A 
ATOM     30  C   UNL     1       2.866   1.807  -0.483  0.00  0.00    -0.025 A 
ATOM     31  C   UNL     1       2.844   0.441  -0.696  0.00  0.00    +0.043 A 
ATOM     32  C   UNL     1       1.649  -0.194  -0.988  0.00  0.00    +0.124 A 
ATOM     33  C   UNL     1       0.477   0.540  -1.065  0.00  0.00    +0.038 A 
ATOM     34  F   UNL     1       1.626  -1.528  -1.197  0.00  0.00    -0.205 F 
ENDBRANCH  27  30
ENDBRANCH  19  27
ENDBRANCH   1  26
TORSDOF 5
