REMARK  Name = ZINC37019729
REMARK  5 active torsions:
REMARK  status: ('A' for Active; 'I' for Inactive)
REMARK    1  A    between atoms: C_1  and  O_2
REMARK    2  A    between atoms: O_2  and  C_3
REMARK    3  A    between atoms: C_4  and  N_11
REMARK    4  A    between atoms: C_12  and  C_14
REMARK    5  A    between atoms: C_17  and  O_21
REMARK                            x       y       z     vdW  Elec       q    Type
REMARK                         _______ _______ _______ _____ _____    ______ ____
ROOT
ATOM      1  N   UNL     1      -1.184  -0.642   2.431  0.00  0.00    -0.284 N 
ATOM      2  C   UNL     1      -1.818  -0.867   3.599  0.00  0.00    +0.203 C 
ATOM      3  O   UNL     1      -2.892  -1.431   3.607  0.00  0.00    -0.277 OA
ATOM      4  H   UNL     1      -0.297  -0.249   2.429  0.00  0.00    +0.155 HD
ENDROOT
BRANCH   1   6
ATOM      5  C   UNL     1      -1.599  -0.188   0.089  0.00  0.00    +0.155 A 
ATOM      6  C   UNL     1      -1.805  -0.975   1.220  0.00  0.00    +0.078 A 
ATOM      7  C   UNL     1      -2.627  -2.090   1.145  0.00  0.00    +0.047 A 
ATOM      8  C   UNL     1      -3.240  -2.417  -0.051  0.00  0.00    +0.044 A 
ATOM      9  C   UNL     1      -3.034  -1.636  -1.174  0.00  0.00    +0.039 A 
ATOM     10  C   UNL     1      -2.220  -0.519  -1.104  0.00  0.00    +0.063 A 
ATOM     11 BR   UNL     1      -1.949   0.551  -2.640  0.00  0.00    -0.046 Br
ATOM     12 CL   UNL     1      -4.269  -3.813  -0.144  0.00  0.00    -0.083 Cl
BRANCH   5  14
ATOM     13  C   UNL     1      -1.412   2.145   0.514  0.00  0.00    +0.277 C 
ATOM     14  O   UNL     1      -0.794   0.906   0.158  0.00  0.00    -0.492 OA
ENDBRANCH   5  14
ENDBRANCH   1   6
BRANCH   2  15
ATOM     15  C   UNL     1      -1.193  -0.417   4.894  0.00  0.00    +0.019 C 
ATOM     16  C   UNL     1      -0.148  -1.450   5.385  0.00  0.00    +0.023 C 
ATOM     17  C   UNL     1      -0.096  -1.192   6.908  0.00  0.00    +0.097 C 
ATOM     18  C   UNL     1      -1.430  -0.502   7.245  0.00  0.00    -0.050 C 
ATOM     19  N   UNL     1      -2.201  -0.404   5.985  0.00  0.00    +0.388 N 
ATOM     20  H   UNL     1      -2.727   0.457   5.962  0.00  0.00    -0.085 HD
ATOM     21  H   UNL     1      -2.821  -1.194   5.896  0.00  0.00    -0.085 HD
BRANCH  17  22
ATOM     22  O   UNL     1       1.002  -0.335   7.229  0.00  0.00    -0.394 OA
ATOM     23  H   UNL     1       1.085  -0.138   8.172  0.00  0.00    +0.210 HD
ENDBRANCH  17  22
ENDBRANCH   2  15
TORSDOF 4
