REMARK  Name = ZINC41082598
REMARK  12 active torsions:
REMARK  status: ('A' for Active; 'I' for Inactive)
REMARK    1  A    between atoms: C_1  and  C_2
REMARK    2  A    between atoms: C_9  and  C_10
REMARK    3  A    between atoms: C_13  and  O_18
REMARK    4  A    between atoms: C_14  and  O_16
REMARK    5  A    between atoms: O_16  and  C_17
REMARK    6  A    between atoms: O_18  and  C_19
REMARK    7  A    between atoms: C_19  and  C_20
REMARK    8  A    between atoms: C_20  and  C_21
REMARK    9  A    between atoms: C_21  and  O_22
REMARK   10  A    between atoms: O_22  and  C_23
REMARK   11  A    between atoms: C_28  and  O_29
REMARK   12  A    between atoms: O_29  and  C_30
REMARK                            x       y       z     vdW  Elec       q    Type
REMARK                         _______ _______ _______ _____ _____    ______ ____
ROOT
ATOM      1  C   UNL     1       2.769  -5.612   0.957  0.00  0.00    -0.021 A 
ATOM      2  C   UNL     1       3.547  -4.514   0.563  0.00  0.00    +0.012 A 
ATOM      3  C   UNL     1       4.918  -4.569   0.674  0.00  0.00    +0.050 A 
ATOM      4  C   UNL     1       5.534  -5.709   1.176  0.00  0.00    +0.162 A 
ATOM      5  C   UNL     1       4.767  -6.806   1.570  0.00  0.00    +0.162 A 
ATOM      6  C   UNL     1       3.392  -6.760   1.468  0.00  0.00    +0.057 A 
ENDROOT
BRANCH   1  15
ATOM      7  C   UNL     1       0.781  -0.577  -4.403  0.00  0.00    +0.089 C 
ATOM      8  C   UNL     1       0.598  -1.687  -3.401  0.00  0.00    +0.134 C 
ATOM      9  C   UNL     1      -0.572  -2.026  -2.816  0.00  0.00    +0.091 C 
ATOM     10  C   UNL     1      -0.339  -3.108  -1.955  0.00  0.00    +0.168 C 
ATOM     11  N   UNL     1      -1.183  -3.743  -1.143  0.00  0.00    -0.156 NA
ATOM     12  C   UNL     1      -0.733  -4.718  -0.341  0.00  0.00    +0.273 C 
ATOM     13  O   UNL     1      -1.513  -5.390   0.314  0.00  0.00    -0.268 OA
ATOM     14  C   UNL     1       0.728  -4.969  -0.259  0.00  0.00    +0.084 C 
ATOM     15  C   UNL     1       1.310  -5.558   0.841  0.00  0.00    +0.025 C 
ATOM     16  C   UNL     1       1.527  -4.541  -1.448  0.00  0.00    +0.176 C 
ATOM     17  N   UNL     1       2.619  -5.142  -1.840  0.00  0.00    -0.280 NA
ATOM     18  N   UNL     1       0.987  -3.436  -2.091  0.00  0.00    -0.142 N 
ATOM     19  O   UNL     1       1.570  -2.498  -2.954  0.00  0.00    -0.375 OA
ATOM     20  H   UNL     1       2.903  -5.963  -1.407  0.00  0.00    +0.188 HD
ENDBRANCH   1  15
BRANCH   5  21
ATOM     21  O   UNL     1       5.375  -7.919   2.059  0.00  0.00    -0.491 OA
ATOM     22  C   UNL     1       4.529  -9.005   2.443  0.00  0.00    +0.277 C 
ENDBRANCH   5  21
BRANCH   4  23
ATOM     23  O   UNL     1       6.886  -5.755   1.282  0.00  0.00    -0.488 OA
BRANCH  23  24
ATOM     24  C   UNL     1       7.611  -4.598   0.861  0.00  0.00    +0.232 C 
BRANCH  24  25
ATOM     25  C   UNL     1       9.110  -4.836   1.054  0.00  0.00    +0.082 C 
BRANCH  25  26
ATOM     26  C   UNL     1       9.885  -3.597   0.603  0.00  0.00    +0.232 C 
BRANCH  26  27
ATOM     27  O   UNL     1      11.285  -3.819   0.784  0.00  0.00    -0.488 OA
BRANCH  27  28
ATOM     28  C   UNL     1      12.122  -2.808   0.429  0.00  0.00    +0.162 A 
ATOM     29  C   UNL     1      11.606  -1.625  -0.077  0.00  0.00    +0.049 A 
ATOM     30  C   UNL     1      12.458  -0.598  -0.437  0.00  0.00    +0.004 A 
ATOM     31  C   UNL     1      13.825  -0.747  -0.294  0.00  0.00    +0.004 A 
ATOM     32  C   UNL     1      14.346  -1.924   0.209  0.00  0.00    +0.049 A 
ATOM     33  C   UNL     1      13.498  -2.955   0.578  0.00  0.00    +0.161 A 
BRANCH  33  34
ATOM     34  O   UNL     1      14.008  -4.112   1.079  0.00  0.00    -0.491 OA
ATOM     35  C   UNL     1      15.430  -4.193   1.204  0.00  0.00    +0.277 C 
ENDBRANCH  33  34
ENDBRANCH  27  28
ENDBRANCH  26  27
ENDBRANCH  25  26
ENDBRANCH  24  25
ENDBRANCH  23  24
ENDBRANCH   4  23
TORSDOF 9
