REMARK  Name = ZINC09899560
REMARK  8 active torsions:
REMARK  status: ('A' for Active; 'I' for Inactive)
REMARK    1  A    between atoms: C_3  and  C_6
REMARK    2  A    between atoms: C_6  and  C_8
REMARK    3  A    between atoms: C_6  and  N_15
REMARK    4  A    between atoms: C_16  and  C_18
REMARK    5  A    between atoms: C_18  and  C_19
REMARK    6  A    between atoms: C_19  and  N_20
REMARK    7  A    between atoms: N_20  and  S_21
REMARK    8  A    between atoms: S_21  and  C_24
REMARK                            x       y       z     vdW  Elec       q    Type
REMARK                         _______ _______ _______ _____ _____    ______ ____
ROOT
ATOM      1  N   UNL     1       1.913  -2.481  -0.917  0.00  0.00    -0.304 N 
ATOM      2  C   UNL     1       2.168  -2.460  -2.240  0.00  0.00    +0.215 C 
ATOM      3  O   UNL     1       2.937  -1.641  -2.697  0.00  0.00    -0.276 OA
ATOM      4  H   UNL     1       1.298  -3.136  -0.552  0.00  0.00    +0.150 HD
ENDROOT
BRANCH   1   5
ATOM      5  C   UNL     1       2.565  -1.514  -0.030  0.00  0.00    +0.140 C 
BRANCH   5   6
ATOM      6  C   UNL     1       2.631  -2.078   1.366  0.00  0.00    -0.022 A 
ATOM      7  C   UNL     1       1.557  -2.781   1.879  0.00  0.00    +0.008 A 
ATOM      8  C   UNL     1       1.619  -3.303   3.157  0.00  0.00    +0.038 A 
ATOM      9  C   UNL     1       2.754  -3.113   3.927  0.00  0.00    +0.123 A 
ATOM     10  C   UNL     1       3.827  -2.404   3.414  0.00  0.00    +0.038 A 
ATOM     11  C   UNL     1       3.765  -1.888   2.134  0.00  0.00    +0.008 A 
ATOM     12  F   UNL     1       2.814  -3.619   5.178  0.00  0.00    -0.205 F 
ENDBRANCH   5   6
BRANCH   5  15
ATOM     13  C   UNL     1       1.300   2.079   0.001  0.00  0.00    +0.008 A 
ATOM     14  C   UNL     1       2.220   1.048  -0.013  0.00  0.00    +0.013 A 
ATOM     15  C   UNL     1       1.773  -0.232  -0.016  0.00  0.00    +0.014 A 
ATOM     16  S   UNL     1       0.002  -0.004   0.002  0.00  0.00    -0.099 S 
ATOM     17  C   UNL     1      -0.022   1.781   0.012  0.00  0.00    +0.045 A 
ENDBRANCH   5  15
ENDBRANCH   1   5
BRANCH   2  18
ATOM     18  C   UNL     1       1.498  -3.454  -3.153  0.00  0.00    +0.112 C 
BRANCH  18  19
ATOM     19  C   UNL     1       1.956  -3.216  -4.593  0.00  0.00    +0.115 C 
BRANCH  19  20
ATOM     20  N   UNL     1       1.305  -4.183  -5.479  0.00  0.00    -0.189 NA
ATOM     21  H   UNL     1       0.868  -4.965  -5.107  0.00  0.00    +0.148 HD
BRANCH  20  22
ATOM     22  S   UNL     1       1.313  -3.940  -7.118  0.00  0.00    +0.058 S 
ATOM     23  O   UNL     1       0.635  -5.047  -7.696  0.00  0.00    -0.153 OA
ATOM     24  O   UNL     1       0.900  -2.598  -7.332  0.00  0.00    -0.153 OA
BRANCH  22  25
ATOM     25  C   UNL     1       2.990  -4.043  -7.651  0.00  0.00    +0.105 A 
ATOM     26  C   UNL     1       3.773  -2.904  -7.690  0.00  0.00    +0.029 A 
ATOM     27  C   UNL     1       5.089  -2.985  -8.104  0.00  0.00    +0.017 A 
ATOM     28  C   UNL     1       5.620  -4.203  -8.488  0.00  0.00    +0.018 A 
ATOM     29  C   UNL     1       4.834  -5.341  -8.453  0.00  0.00    +0.017 A 
ATOM     30  C   UNL     1       3.519  -5.260  -8.035  0.00  0.00    +0.029 A 
ATOM     31 BR   UNL     1       7.419  -4.313  -9.060  0.00  0.00    -0.050 Br
ENDBRANCH  22  25
ENDBRANCH  20  22
ENDBRANCH  19  20
ENDBRANCH  18  19
ENDBRANCH   2  18
TORSDOF 8
