REMARK  Name = ZINC08852274
REMARK  8 active torsions:
REMARK  status: ('A' for Active; 'I' for Inactive)
REMARK    1  A    between atoms: C_1  and  C_2
REMARK    2  A    between atoms: C_2  and  C_4
REMARK    3  A    between atoms: C_2  and  N_14
REMARK    4  A    between atoms: C_15  and  C_17
REMARK    5  A    between atoms: C_17  and  S_18
REMARK    6  A    between atoms: S_18  and  C_19
REMARK    7  A    between atoms: C_22  and  C_25
REMARK    8  A    between atoms: N_23  and  N_24
REMARK                            x       y       z     vdW  Elec       q    Type
REMARK                         _______ _______ _______ _____ _____    ______ ____
ROOT
ATOM      1  C   UNL     1       2.039   0.602   3.970  0.00  0.00    +0.173 C 
ENDROOT
BRANCH   1   3
ATOM      2  N   UNL     1       0.475  -0.043   2.166  0.00  0.00    -0.308 N 
ATOM      3  C   UNL     1       1.375   0.841   2.639  0.00  0.00    +0.224 C 
ATOM      4  O   UNL     1       1.651   1.830   1.993  0.00  0.00    -0.275 OA
ATOM      5  H   UNL     1       0.254  -0.834   2.683  0.00  0.00    +0.149 HD
BRANCH   2   7
ATOM      6  C   UNL     1       0.724  -0.346  -0.248  0.00  0.00    +0.033 C 
ATOM      7  C   UNL     1      -0.171   0.189   0.872  0.00  0.00    +0.100 C 
BRANCH   7   8
ATOM      8  C   UNL     1      -1.498  -0.523   0.837  0.00  0.00    -0.027 A 
ATOM      9  C   UNL     1      -1.622  -1.787   1.384  0.00  0.00    +0.006 A 
ATOM     10  C   UNL     1      -2.842  -2.431   1.352  0.00  0.00    +0.004 A 
ATOM     11  C   UNL     1      -3.945  -1.825   0.763  0.00  0.00    -0.044 A 
ATOM     12  C   UNL     1      -3.821  -0.568   0.217  0.00  0.00    -0.044 A 
ATOM     13  C   UNL     1      -2.593   0.082   0.255  0.00  0.00    +0.009 A 
ATOM     14  C   UNL     1      -4.975   0.153  -0.429  0.00  0.00    +0.035 C 
ATOM     15  C   UNL     1      -6.095  -0.826  -0.773  0.00  0.00    +0.005 C 
ATOM     16  C   UNL     1      -6.416  -1.653   0.477  0.00  0.00    +0.005 C 
ATOM     17  C   UNL     1      -5.241  -2.591   0.749  0.00  0.00    +0.035 C 
ENDBRANCH   7   8
ENDBRANCH   2   7
ENDBRANCH   1   3
BRANCH   1  18
ATOM     18  S   UNL     1       3.187   1.956   4.324  0.00  0.00    -0.075 S 
BRANCH  18  19
ATOM     19  C   UNL     1       3.803   1.434   5.890  0.00  0.00    +0.209 A 
ATOM     20  N   UNL     1       3.454   0.347   6.542  0.00  0.00    -0.121 NA
ATOM     21  N   UNL     1       4.099   0.272   7.651  0.00  0.00    -0.127 NA
ATOM     22  C   UNL     1       4.892   1.310   7.780  0.00  0.00    +0.182 A 
ATOM     23  N   UNL     1       4.726   2.087   6.656  0.00  0.00    -0.224 N 
BRANCH  22  24
ATOM     24  C   UNL     1       5.792   1.592   8.918  0.00  0.00    +0.021 A 
ATOM     25  C   UNL     1       6.128   0.576   9.814  0.00  0.00    +0.013 A 
ATOM     26  C   UNL     1       6.973   0.844  10.871  0.00  0.00    +0.021 A 
ATOM     27  C   UNL     1       7.479   2.121  11.050  0.00  0.00    +0.041 A 
ATOM     28  C   UNL     1       7.145   3.134  10.167  0.00  0.00    +0.021 A 
ATOM     29  C   UNL     1       6.306   2.877   9.103  0.00  0.00    +0.013 A 
ATOM     30 CL   UNL     1       8.537   2.452  12.386  0.00  0.00    -0.084 Cl
ENDBRANCH  22  24
BRANCH  23  31
ATOM     31  N   UNL     1       5.354   3.264   6.367  0.00  0.00    -0.295 N 
ATOM     32  H   UNL     1       4.879   4.043   6.798  0.00  0.00    +0.163 HD
ATOM     33  H   UNL     1       6.324   3.235   6.644  0.00  0.00    +0.163 HD
ENDBRANCH  23  31
ENDBRANCH  18  19
ENDBRANCH   1  18
TORSDOF 7
