REMARK  Name = ZINC33039290
REMARK  4 active torsions:
REMARK  status: ('A' for Active; 'I' for Inactive)
REMARK    1  A    between atoms: C_1  and  N_2
REMARK    2  A    between atoms: C_6  and  S_7
REMARK    3  A    between atoms: S_7  and  C_8
REMARK    4  A    between atoms: C_8  and  C_9
REMARK                            x       y       z     vdW  Elec       q    Type
REMARK                         _______ _______ _______ _____ _____    ______ ____
ROOT
ATOM      1  C   UNL     1       0.559  -1.477   5.179  0.00  0.00    +0.143 A 
ATOM      2  N   UNL     1       1.756  -1.335   5.720  0.00  0.00    -0.216 NA
ATOM      3  C   UNL     1       1.922  -1.095   7.011  0.00  0.00    +0.128 A 
ATOM      4  C   UNL     1       0.776  -0.985   7.846  0.00  0.00    +0.051 A 
ATOM      5  C   UNL     1       0.719  -0.725   9.289  0.00  0.00    -0.025 A 
ATOM      6  C   UNL     1      -0.506  -0.673   9.847  0.00  0.00    -0.004 A 
ATOM      7  S   UNL     1      -1.640  -0.951   8.511  0.00  0.00    -0.073 S 
ATOM      8  C   UNL     1      -0.464  -1.147   7.199  0.00  0.00    +0.114 A 
ATOM      9  N   UNL     1      -0.540  -1.380   5.902  0.00  0.00    -0.224 NA
ATOM     10  C   UNL     1      -0.852  -0.444  11.286  0.00  0.00    +0.043 C 
ATOM     11  C   UNL     1      -0.083   0.778  11.804  0.00  0.00    +0.005 C 
ATOM     12  C   UNL     1       1.258   0.305  12.355  0.00  0.00    +0.001 C 
ATOM     13  C   UNL     1       1.756  -0.898  11.556  0.00  0.00    +0.005 C 
ATOM     14  C   UNL     1       1.994  -0.513  10.101  0.00  0.00    +0.037 C 
ATOM     15  N   UNL     1       3.192  -0.953   7.540  0.00  0.00    -0.343 N 
ATOM     16  H   UNL     1       3.328  -0.419   8.338  0.00  0.00    +0.144 HD
ATOM     17  H   UNL     1       3.947  -1.388   7.112  0.00  0.00    +0.144 HD
ENDROOT
BRANCH   1  18
ATOM     18  C   UNL     1       0.446  -1.749   3.701  0.00  0.00    +0.153 C 
BRANCH  18  19
ATOM     19  S   UNL     1       0.347  -0.176   2.802  0.00  0.00    -0.078 S 
BRANCH  19  25
ATOM     20  C   UNL     1       0.101   1.649   0.097  0.00  0.00    +0.154 C 
ATOM     21  N   UNL     1       0.121   0.185   0.041  0.00  0.00    -0.293 N 
ATOM     22  C   UNL     1       0.050  -0.576  -1.091  0.00  0.00    +0.220 A 
ATOM     23  N   UNL     1       0.099  -1.836  -0.735  0.00  0.00    -0.112 NA
ATOM     24  N   UNL     1       0.204  -1.889   0.661  0.00  0.00    -0.121 NA
ATOM     25  C   UNL     1       0.221  -0.658   1.112  0.00  0.00    +0.193 A 
ATOM     26  N   UNL     1      -0.056  -0.098  -2.390  0.00  0.00    -0.295 N 
ATOM     27  C   UNL     1       1.139   0.081  -3.231  0.00  0.00    +0.136 C 
ATOM     28  C   UNL     1       0.890  -0.609  -4.577  0.00  0.00    +0.179 C 
ATOM     29  O   UNL     1      -0.346  -0.144  -5.124  0.00  0.00    -0.377 OA
ATOM     30  C   UNL     1      -1.492  -0.454  -4.327  0.00  0.00    +0.179 C 
ATOM     31  C   UNL     1      -1.366   0.239  -2.970  0.00  0.00    +0.136 C 
ENDBRANCH  19  25
ENDBRANCH  18  19
ENDBRANCH   1  18
TORSDOF 3
