REMARK  Name = ZINC09630277
REMARK  12 active torsions:
REMARK  status: ('A' for Active; 'I' for Inactive)
REMARK    1  A    between atoms: C_1  and  C_2
REMARK    2  A    between atoms: C_2  and  O_3
REMARK    3  A    between atoms: O_3  and  C_4
REMARK    4  A    between atoms: C_4  and  C_6
REMARK    5  A    between atoms: C_10  and  N_11
REMARK    6  A    between atoms: C_12  and  C_14
REMARK    7  A    between atoms: C_14  and  C_15
REMARK    8  A    between atoms: C_15  and  S_16
REMARK    9  A    between atoms: S_16  and  C_17
REMARK   10  A    between atoms: C_27  and  C_28
REMARK   11  A    between atoms: C_27  and  C_29
REMARK   12  A    between atoms: C_27  and  N_57
REMARK                            x       y       z     vdW  Elec       q    Type
REMARK                         _______ _______ _______ _____ _____    ______ ____
ROOT
ATOM      1  C   UNL     1       3.638   1.751  -0.029  0.00  0.00    +0.091 A 
ATOM      2  C   UNL     1       4.746   0.814  -0.038  0.00  0.00    -0.025 A 
ATOM      3  C   UNL     1       4.398  -0.493  -0.043  0.00  0.00    -0.021 A 
ATOM      4  S   UNL     1       2.630  -0.489  -0.026  0.00  0.00    -0.079 S 
ATOM      5  C   UNL     1       2.353   1.222  -0.014  0.00  0.00    +0.086 A 
ATOM      6  C   UNL     1       5.333  -1.661  -0.060  0.00  0.00    -0.035 C 
ATOM      7  C   UNL     1       7.045  -0.003   0.377  0.00  0.00    -0.073 C 
ATOM      8  C   UNL     1       6.217   1.214  -0.048  0.00  0.00    +0.018 C 
ATOM      9  N   UNL     1       6.673  -1.164  -0.458  0.00  0.00    +0.384 N 
ATOM     10  H   UNL     1       6.643  -0.873  -1.442  0.00  0.00    -0.081 HD
ENDROOT
BRANCH   5  11
ATOM     11  N   UNL     1       1.143   1.898   0.001  0.00  0.00    -0.279 N 
ATOM     12  C   UNL     1      -0.014   1.209   0.009  0.00  0.00    +0.218 C 
ATOM     13  O   UNL     1       0.002  -0.004   0.002  0.00  0.00    -0.275 OA
ATOM     14  H   UNL     1       1.130   2.868   0.007  0.00  0.00    +0.155 HD
BRANCH  12  15
ATOM     15  C   UNL     1      -1.330   1.944   0.019  0.00  0.00    +0.107 C 
BRANCH  15  16
ATOM     16  C   UNL     1      -2.479   0.934   0.019  0.00  0.00    +0.083 C 
BRANCH  16  17
ATOM     17  S   UNL     1      -4.062   1.820   0.031  0.00  0.00    -0.125 S 
BRANCH  17  18
ATOM     18  C   UNL     1      -5.269   0.536   0.030  0.00  0.00    +0.008 A 
ATOM     19  C   UNL     1      -4.869  -0.795   0.015  0.00  0.00    +0.016 A 
ATOM     20  C   UNL     1      -5.817  -1.799   0.019  0.00  0.00    +0.021 A 
ATOM     21  C   UNL     1      -7.164  -1.481   0.028  0.00  0.00    +0.041 A 
ATOM     22  C   UNL     1      -7.565  -0.156   0.037  0.00  0.00    +0.021 A 
ATOM     23  C   UNL     1      -6.622   0.852   0.038  0.00  0.00    +0.016 A 
ATOM     24 CL   UNL     1      -8.353  -2.746   0.027  0.00  0.00    -0.084 Cl
ENDBRANCH  17  18
ENDBRANCH  16  17
ENDBRANCH  15  16
ENDBRANCH  12  15
ENDBRANCH   5  11
BRANCH   9  25
ATOM     25  C   UNL     1       7.677  -2.239  -0.305  0.00  0.00    -0.074 C 
ATOM     26  C   UNL     1       7.737  -2.713   1.149  0.00  0.00    -0.014 C 
ATOM     27  C   UNL     1       7.291  -3.412  -1.208  0.00  0.00    -0.014 C 
ENDBRANCH   9  25
BRANCH   1  28
ATOM     28  C   UNL     1       3.865   3.197  -0.031  0.00  0.00    +0.342 C 
ATOM     29  O   UNL     1       3.972   3.798   1.021  0.00  0.00    -0.245 OA
BRANCH  28  30
ATOM     30  O   UNL     1       3.955   3.864  -1.200  0.00  0.00    -0.461 OA
BRANCH  30  32
ATOM     31  C   UNL     1       4.254   5.875  -2.541  0.00  0.00    +0.048 C 
ATOM     32  C   UNL     1       4.181   5.296  -1.127  0.00  0.00    +0.229 C 
ENDBRANCH  30  32
ENDBRANCH  28  30
ENDBRANCH   1  28
TORSDOF 9
