REMARK  Name = ZINC39774289
REMARK  7 active torsions:
REMARK  status: ('A' for Active; 'I' for Inactive)
REMARK    1  A    between atoms: C_1  and  C_2
REMARK    2  A    between atoms: C_10  and  O_40
REMARK    3  A    between atoms: N_22  and  N_23
REMARK    4  A    between atoms: C_24  and  C_26
REMARK    5  A    between atoms: C_26  and  C_27
REMARK    6  A    between atoms: C_26  and  C_33
REMARK    7  A    between atoms: C_26  and  O_39
REMARK                            x       y       z     vdW  Elec       q    Type
REMARK                         _______ _______ _______ _____ _____    ______ ____
ROOT
ATOM      1  C   UNL     1       0.448  -0.823   0.033  0.00  0.00    +0.018 C 
ATOM      2  C   UNL     1      -0.078  -2.259   0.023  0.00  0.00    +0.011 C 
ATOM      3  C   UNL     1       0.291  -2.982  -1.274  0.00  0.00    +0.013 C 
ATOM      4  C   UNL     1       1.775  -3.342  -1.310  0.00  0.00    +0.009 C 
ATOM      5  C   UNL     1       2.064  -4.284  -0.140  0.00  0.00    +0.023 C 
ATOM      6  C   UNL     1       3.486  -4.769  -0.179  0.00  0.00    -0.041 A 
ATOM      7  C   UNL     1       4.035  -5.093  -1.412  0.00  0.00    +0.008 A 
ATOM      8  C   UNL     1       5.332  -5.552  -1.505  0.00  0.00    +0.046 A 
ATOM      9  C   UNL     1       6.095  -5.691  -0.355  0.00  0.00    +0.117 A 
ATOM     10  C   UNL     1       5.549  -5.365   0.875  0.00  0.00    +0.049 A 
ATOM     11  C   UNL     1       4.244  -4.899   0.966  0.00  0.00    -0.040 A 
ATOM     12  C   UNL     1       3.725  -4.542   2.334  0.00  0.00    +0.036 C 
ATOM     13  C   UNL     1       2.202  -4.415   2.331  0.00  0.00    +0.009 C 
ATOM     14  C   UNL     1       1.813  -3.520   1.156  0.00  0.00    +0.001 C 
ATOM     15  C   UNL     1       0.405  -3.049   1.256  0.00  0.00    +0.005 C 
ATOM     16  C   UNL     1      -0.593  -4.220   1.328  0.00  0.00    +0.010 C 
ATOM     17  C   UNL     1      -1.937  -3.556   0.945  0.00  0.00    +0.053 C 
ATOM     18  C   UNL     1      -1.599  -2.306   0.158  0.00  0.00    +0.043 C 
ATOM     19  N   UNL     1      -2.432  -1.450  -0.306  0.00  0.00    -0.189 NA
ENDROOT
BRANCH  19  20
ATOM     20  N   UNL     1      -3.806  -1.628  -0.101  0.00  0.00    -0.204 N 
ATOM     21  C   UNL     1      -4.682  -0.728  -0.590  0.00  0.00    +0.273 C 
ATOM     22  O   UNL     1      -4.280   0.237  -1.206  0.00  0.00    -0.270 OA
ATOM     23  H   UNL     1      -4.127  -2.399   0.392  0.00  0.00    +0.177 HD
BRANCH  21  24
ATOM     24  C   UNL     1      -6.160  -0.918  -0.369  0.00  0.00    +0.194 C 
BRANCH  24  25
ATOM     25  C   UNL     1      -6.546  -0.350   0.972  0.00  0.00    -0.003 A 
ATOM     26  C   UNL     1      -5.990   0.839   1.405  0.00  0.00    +0.007 A 
ATOM     27  C   UNL     1      -6.344   1.360   2.635  0.00  0.00    +0.000 A 
ATOM     28  C   UNL     1      -7.254   0.692   3.433  0.00  0.00    +0.000 A 
ATOM     29  C   UNL     1      -7.810  -0.497   3.001  0.00  0.00    +0.000 A 
ATOM     30  C   UNL     1      -7.459  -1.016   1.768  0.00  0.00    +0.007 A 
ENDBRANCH  24  25
BRANCH  24  31
ATOM     31  C   UNL     1      -6.926  -0.207  -1.455  0.00  0.00    -0.003 A 
ATOM     32  C   UNL     1      -7.683  -0.932  -2.356  0.00  0.00    +0.007 A 
ATOM     33  C   UNL     1      -8.385  -0.280  -3.352  0.00  0.00    +0.000 A 
ATOM     34  C   UNL     1      -8.331   1.098  -3.446  0.00  0.00    +0.000 A 
ATOM     35  C   UNL     1      -7.575   1.824  -2.544  0.00  0.00    +0.000 A 
ATOM     36  C   UNL     1      -6.876   1.171  -1.546  0.00  0.00    +0.007 A 
ENDBRANCH  24  31
BRANCH  24  37
ATOM     37  O   UNL     1      -6.471  -2.313  -0.403  0.00  0.00    -0.371 OA
ATOM     38  H   UNL     1      -6.249  -2.745  -1.239  0.00  0.00    +0.212 HD
ENDBRANCH  24  37
ENDBRANCH  21  24
ENDBRANCH  19  20
BRANCH   9  39
ATOM     39  O   UNL     1       7.373  -6.146  -0.434  0.00  0.00    -0.507 OA
ATOM     40  H   UNL     1       8.033  -5.448  -0.549  0.00  0.00    +0.292 HD
ENDBRANCH   9  39
TORSDOF 6
