REMARK  Name = ZINC36585824
REMARK  16 active torsions:
REMARK  status: ('A' for Active; 'I' for Inactive)
REMARK    1  A    between atoms: C_1  and  C_2
REMARK    2  A    between atoms: C_2  and  C_3
REMARK    3  A    between atoms: C_2  and  C_4
REMARK    4  A    between atoms: C_2  and  N_5
REMARK    5  A    between atoms: C_6  and  C_8
REMARK    6  A    between atoms: C_8  and  C_10
REMARK    7  A    between atoms: C_8  and  N_19
REMARK    8  A    between atoms: C_11  and  O_18
REMARK    9  A    between atoms: C_13  and  O_17
REMARK   10  A    between atoms: C_15  and  O_16
REMARK   11  A    between atoms: N_19  and  C_32
REMARK   12  A    between atoms: C_20  and  C_22
REMARK   13  A    between atoms: C_24  and  N_29
REMARK   14  A    between atoms: C_32  and  C_33
REMARK   15  A    between atoms: C_32  and  C_34
REMARK   16  A    between atoms: C_32  and  C_35
REMARK                            x       y       z     vdW  Elec       q    Type
REMARK                         _______ _______ _______ _____ _____    ______ ____
ROOT
ATOM      1  C   UNL     1       5.058   0.178  -4.363  0.00  0.00    +0.200 C 
ENDROOT
BRANCH   1   2
ATOM      2  C   UNL     1       4.642  -0.708  -5.509  0.00  0.00    +0.065 A 
ATOM      3  C   UNL     1       5.585  -1.143  -6.427  0.00  0.00    +0.129 A 
ATOM      4  C   UNL     1       5.202  -1.958  -7.482  0.00  0.00    +0.091 A 
ATOM      5  C   UNL     1       3.875  -2.338  -7.617  0.00  0.00    +0.124 A 
ATOM      6  C   UNL     1       2.932  -1.904  -6.699  0.00  0.00    +0.091 A 
ATOM      7  C   UNL     1       3.316  -1.092  -5.642  0.00  0.00    +0.129 A 
BRANCH   7   8
ATOM      8  O   UNL     1       2.392  -0.670  -4.739  0.00  0.00    -0.506 OA
ATOM      9  H   UNL     1       1.968   0.167  -4.973  0.00  0.00    +0.292 HD
ENDBRANCH   7   8
BRANCH   5  10
ATOM     10  O   UNL     1       3.499  -3.136  -8.651  0.00  0.00    -0.507 OA
ATOM     11  H   UNL     1       3.545  -4.082  -8.454  0.00  0.00    +0.292 HD
ENDBRANCH   5  10
BRANCH   3  12
ATOM     12  O   UNL     1       6.885  -0.771  -6.294  0.00  0.00    -0.506 OA
ATOM     13  H   UNL     1       7.401  -1.344  -5.711  0.00  0.00    +0.292 HD
ENDBRANCH   3  12
ENDBRANCH   1   2
BRANCH   1  15
ATOM     14  N   UNL     1       5.600   2.206  -5.673  0.00  0.00    -0.309 N 
ATOM     15  C   UNL     1       6.028   1.220  -4.860  0.00  0.00    +0.239 C 
ATOM     16  O   UNL     1       7.193   1.170  -4.528  0.00  0.00    -0.273 OA
ATOM     17  H   UNL     1       4.668   2.245  -5.939  0.00  0.00    +0.149 HD
BRANCH  14  19
ATOM     18  C   UNL     1       7.656   2.538  -6.955  0.00  0.00    +0.031 C 
ATOM     19  C   UNL     1       6.543   3.218  -6.156  0.00  0.00    +0.026 C 
ATOM     20  C   UNL     1       7.150   3.959  -4.964  0.00  0.00    +0.031 C 
ATOM     21  C   UNL     1       5.806   4.213  -7.054  0.00  0.00    +0.031 C 
ENDBRANCH  14  19
ENDBRANCH   1  15
BRANCH   1  22
ATOM     22  N   UNL     1       5.702  -0.633  -3.327  0.00  0.00    -0.277 N 
ATOM     23  C   UNL     1       6.420  -1.720  -3.672  0.00  0.00    +0.252 C 
ATOM     24  O   UNL     1       6.194  -2.290  -4.723  0.00  0.00    -0.270 OA
BRANCH  23  25
ATOM     25  C   UNL     1       7.480  -2.219  -2.775  0.00  0.00    +0.086 A 
ATOM     26  C   UNL     1       7.207  -2.446  -1.424  0.00  0.00    +0.049 A 
ATOM     27  C   UNL     1       8.201  -2.912  -0.592  0.00  0.00    +0.127 A 
ATOM     28  C   UNL     1       9.471  -3.157  -1.088  0.00  0.00    +0.036 A 
ATOM     29  C   UNL     1       9.754  -2.937  -2.421  0.00  0.00    +0.054 A 
ATOM     30  C   UNL     1       8.764  -2.474  -3.275  0.00  0.00    +0.191 A 
ATOM     31  O   UNL     1       9.039  -2.262  -4.587  0.00  0.00    -0.287 OA
BRANCH  27  32
ATOM     32  N   UNL     1       7.911  -3.152   0.840  0.00  0.00    +0.056 N 
ATOM     33  O   UNL     1       6.783  -3.030   1.257  0.00  0.00    -0.126 OA
ATOM     34  O   UNL     1       8.803  -3.469   1.593  0.00  0.00    -0.126 OA
ENDBRANCH  27  32
ENDBRANCH  23  25
BRANCH  22  35
ATOM     35  C   UNL     1       5.564  -0.263  -1.917  0.00  0.00    +0.030 C 
ATOM     36  C   UNL     1       4.939   1.129  -1.813  0.00  0.00    +0.031 C 
ATOM     37  C   UNL     1       4.667  -1.280  -1.208  0.00  0.00    +0.031 C 
ATOM     38  C   UNL     1       6.944  -0.253  -1.255  0.00  0.00    +0.031 C 
ENDBRANCH  22  35
ENDBRANCH   1  22
TORSDOF 10
