REMARK  Name = ZINC17101820
REMARK  8 active torsions:
REMARK  status: ('A' for Active; 'I' for Inactive)
REMARK    1  A    between atoms: C_1  and  C_2
REMARK    2  A    between atoms: C_9  and  N_14
REMARK    3  A    between atoms: C_10  and  C_11
REMARK    4  A    between atoms: N_14  and  C_15
REMARK    5  A    between atoms: C_15  and  N_17
REMARK    6  A    between atoms: C_18  and  C_20
REMARK    7  A    between atoms: C_23  and  O_27
REMARK    8  A    between atoms: O_27  and  C_28
REMARK                            x       y       z     vdW  Elec       q    Type
REMARK                         _______ _______ _______ _____ _____    ______ ____
ROOT
ATOM      1  N   UNL     1       5.967   1.805  -0.043  0.00  0.00    -0.291 N 
ATOM      2  H   UNL     1       5.951   2.775  -0.039  0.00  0.00    +0.154 HD
ENDROOT
BRANCH   1  10
ATOM      3  C   UNL     1      12.581  -2.369  -0.029  0.00  0.00    +0.008 C 
ATOM      4  C   UNL     1      11.563  -1.268   0.271  0.00  0.00    -0.009 C 
ATOM      5  C   UNL     1      11.889  -0.025  -0.563  0.00  0.00    +0.008 C 
ATOM      6  C   UNL     1      11.037   1.155  -0.094  0.00  0.00    +0.037 C 
ATOM      7  C   UNL     1       9.573   0.729  -0.082  0.00  0.00    -0.023 A 
ATOM      8  C   UNL     1       9.229  -0.577  -0.085  0.00  0.00    -0.004 A 
ATOM      9  S   UNL     1       7.459  -0.578  -0.069  0.00  0.00    -0.077 S 
ATOM     10  C   UNL     1       7.178   1.132  -0.058  0.00  0.00    +0.084 A 
ATOM     11  C   UNL     1       8.460   1.663  -0.072  0.00  0.00    +0.068 A 
ATOM     12  C   UNL     1      10.154  -1.755  -0.098  0.00  0.00    +0.046 C 
BRANCH  11  13
ATOM     13  C   UNL     1       8.683   3.112  -0.075  0.00  0.00    +0.244 C 
ATOM     14  O   UNL     1       8.788   3.713   0.978  0.00  0.00    -0.270 OA
ATOM     15  N   UNL     1       8.771   3.778  -1.243  0.00  0.00    -0.325 N 
ATOM     16  H   UNL     1       8.687   3.299  -2.082  0.00  0.00    +0.145 HD
ATOM     17  H   UNL     1       8.918   4.737  -1.245  0.00  0.00    +0.145 HD
ENDBRANCH  11  13
ENDBRANCH   1  10
BRANCH   1  18
ATOM     18  C   UNL     1       4.811   1.113  -0.036  0.00  0.00    +0.141 C 
ATOM     19  S   UNL     1       4.838  -0.599  -0.044  0.00  0.00    -0.018 S 
BRANCH  18  20
ATOM     20  N   UNL     1       3.633   1.768  -0.022  0.00  0.00    -0.264 N 
ATOM     21  C   UNL     1       2.477   1.075  -0.015  0.00  0.00    +0.250 C 
ATOM     22  O   UNL     1       2.496  -0.140  -0.021  0.00  0.00    -0.270 OA
ATOM     23  H   UNL     1       3.617   2.738  -0.017  0.00  0.00    +0.157 HD
BRANCH  21  24
ATOM     24  C   UNL     1       1.188   1.792   0.000  0.00  0.00    +0.039 A 
ATOM     25  C   UNL     1       1.163   3.190   0.008  0.00  0.00    +0.017 A 
ATOM     26  C   UNL     1      -0.042   3.856   0.022  0.00  0.00    +0.048 A 
ATOM     27  C   UNL     1      -1.234   3.140   0.029  0.00  0.00    +0.138 A 
ATOM     28  C   UNL     1      -1.215   1.750   0.017  0.00  0.00    +0.083 A 
ATOM     29  C   UNL     1      -0.013   1.076   0.008  0.00  0.00    +0.036 A 
ATOM     30 CL   UNL     1      -2.706   0.862   0.019  0.00  0.00    -0.080 Cl
BRANCH  27  31
ATOM     31  O   UNL     1      -2.420   3.801   0.043  0.00  0.00    -0.494 OA
ATOM     32  C   UNL     1      -2.367   5.229   0.050  0.00  0.00    +0.277 C 
ENDBRANCH  27  31
ENDBRANCH  21  24
ENDBRANCH  18  20
ENDBRANCH   1  18
TORSDOF 6
