REMARK  Name = ZINC36389693
REMARK  8 active torsions:
REMARK  status: ('A' for Active; 'I' for Inactive)
REMARK    1  A    between atoms: C_1  and  C_2
REMARK    2  A    between atoms: C_7  and  C_9
REMARK    3  A    between atoms: C_7  and  C_10
REMARK    4  A    between atoms: N_11  and  C_13
REMARK    5  A    between atoms: C_13  and  C_14
REMARK    6  A    between atoms: C_14  and  C_16
REMARK    7  A    between atoms: C_14  and  O_32
REMARK    8  A    between atoms: C_16  and  N_17
REMARK                            x       y       z     vdW  Elec       q    Type
REMARK                         _______ _______ _______ _____ _____    ______ ____
ROOT
ATOM      1  C   UNL     1       1.368  -2.424  -3.427  0.00  0.00    +0.118 C 
ENDROOT
BRANCH   1   2
ATOM      2  O   UNL     1       0.462  -2.020  -4.456  0.00  0.00    -0.392 OA
ATOM      3  H   UNL     1      -0.161  -2.709  -4.724  0.00  0.00    +0.210 HD
ENDBRANCH   1   2
BRANCH   1   4
ATOM      4  C   UNL     1       0.577  -2.827  -2.181  0.00  0.00    -0.045 C 
BRANCH   4  14
ATOM      5  C   UNL     1      -0.019   1.532   0.011  0.00  0.00    +0.009 C 
ATOM      6  C   UNL     1       0.002  -0.004   0.002  0.00  0.00    -0.048 C 
ATOM      7  C   UNL     1      -1.426  -0.615   0.003  0.00  0.00    -0.011 C 
ATOM      8  C   UNL     1      -1.100  -2.018  -0.584  0.00  0.00    -0.067 C 
ATOM      9  C   UNL     1      -0.396  -2.818   0.494  0.00  0.00    -0.009 C 
ATOM     10  C   UNL     1       0.654  -2.101   1.313  0.00  0.00    -0.036 C 
ATOM     11  C   UNL     1       0.727  -0.591   1.214  0.00  0.00    +0.011 C 
ATOM     12  C   UNL     1       2.041  -2.692   0.990  0.00  0.00    +0.011 C 
ATOM     13  C   UNL     1       0.383  -2.444   2.801  0.00  0.00    +0.011 C 
ATOM     14  N   UNL     1      -0.211  -1.692  -1.717  0.00  0.00    +0.384 N 
ATOM     15  C   UNL     1       0.649  -0.577  -1.280  0.00  0.00    -0.072 C 
ATOM     16  H   UNL     1      -0.788  -1.358  -2.491  0.00  0.00    -0.081 HD
ENDBRANCH   4  14
ENDBRANCH   1   4
BRANCH   1  17
ATOM     17  C   UNL     1       2.195  -3.615  -3.914  0.00  0.00    +0.151 C 
BRANCH  17  18
ATOM     18  N   UNL     1       3.042  -3.196  -5.034  0.00  0.00    -0.337 N 
ATOM     19  C   UNL     1       2.671  -3.240  -6.367  0.00  0.00    +0.050 A 
ATOM     20  C   UNL     1       1.502  -3.652  -7.000  0.00  0.00    +0.028 A 
ATOM     21  C   UNL     1       1.401  -3.587  -8.373  0.00  0.00    +0.022 A 
ATOM     22  C   UNL     1       2.458  -3.112  -9.136  0.00  0.00    +0.042 A 
ATOM     23  C   UNL     1       3.624  -2.699  -8.526  0.00  0.00    +0.030 A 
ATOM     24  C   UNL     1       3.738  -2.760  -7.139  0.00  0.00    +0.009 A 
ATOM     25  C   UNL     1       4.814  -2.409  -6.194  0.00  0.00    +0.009 A 
ATOM     26  C   UNL     1       4.326  -2.694  -4.911  0.00  0.00    +0.050 A 
ATOM     27  C   UNL     1       5.135  -2.453  -3.804  0.00  0.00    +0.028 A 
ATOM     28  C   UNL     1       6.401  -1.936  -3.975  0.00  0.00    +0.022 A 
ATOM     29  C   UNL     1       6.882  -1.651  -5.245  0.00  0.00    +0.042 A 
ATOM     30  C   UNL     1       6.097  -1.891  -6.354  0.00  0.00    +0.030 A 
ATOM     31 CL   UNL     1       8.479  -1.000  -5.439  0.00  0.00    -0.084 Cl
ATOM     32 CL   UNL     1       2.313  -3.037 -10.864  0.00  0.00    -0.084 Cl
ENDBRANCH  17  18
ENDBRANCH   1  17
TORSDOF 5
