REMARK  Name = ZINC13232257
REMARK  12 active torsions:
REMARK  status: ('A' for Active; 'I' for Inactive)
REMARK    1  A    between atoms: C_1  and  C_2
REMARK    2  A    between atoms: C_2  and  O_3
REMARK    3  A    between atoms: O_3  and  C_4
REMARK    4  A    between atoms: C_7  and  C_10
REMARK    5  A    between atoms: C_13  and  S_18
REMARK    6  A    between atoms: N_14  and  C_15
REMARK    7  A    between atoms: C_15  and  C_16
REMARK    8  A    between atoms: S_18  and  C_19
REMARK    9  A    between atoms: C_19  and  C_20
REMARK   10  A    between atoms: N_22  and  C_23
REMARK   11  A    between atoms: N_22  and  C_24
REMARK   12  A    between atoms: C_24  and  C_25
REMARK                            x       y       z     vdW  Elec       q    Type
REMARK                         _______ _______ _______ _____ _____    ______ ____
ROOT
ATOM      1  C   UNL     1       0.012  -0.005  -0.060  0.00  0.00    +0.165 A 
ATOM      2  N   UNL     1       1.060  -0.772   0.135  0.00  0.00    -0.128 NA
ATOM      3  N   UNL     1       0.705  -2.007   0.142  0.00  0.00    -0.122 NA
ATOM      4  C   UNL     1      -0.591  -2.105  -0.049  0.00  0.00    +0.193 A 
ATOM      5  N   UNL     1      -1.079  -0.836  -0.179  0.00  0.00    -0.291 N 
ENDROOT
BRANCH   1   9
ATOM      6  C   UNL     1      -0.010   4.239  -0.269  0.00  0.00    +0.121 A 
ATOM      7  C   UNL     1      -1.066   3.513  -0.804  0.00  0.00    +0.046 A 
ATOM      8  C   UNL     1      -1.063   2.136  -0.739  0.00  0.00    +0.015 A 
ATOM      9  C   UNL     1       0.004   1.471  -0.133  0.00  0.00    +0.020 A 
ATOM     10  C   UNL     1       1.061   2.204   0.410  0.00  0.00    +0.015 A 
ATOM     11  C   UNL     1       1.053   3.580   0.335  0.00  0.00    +0.046 A 
BRANCH   6  12
ATOM     12  O   UNL     1      -0.018   5.596  -0.335  0.00  0.00    -0.492 OA
BRANCH  12  14
ATOM     13  C   UNL     1       0.915   7.788   0.068  0.00  0.00    +0.048 C 
ATOM     14  C   UNL     1       1.100   6.279   0.236  0.00  0.00    +0.225 C 
ENDBRANCH  12  14
ENDBRANCH   6  12
ENDBRANCH   1   9
BRANCH   5  15
ATOM     15  C   UNL     1      -2.472  -0.441  -0.401  0.00  0.00    +0.250 C 
BRANCH  15  16
ATOM     16  C   UNL     1      -2.757  -0.415  -1.881  0.00  0.00    +0.375 C 
ATOM     17  O   UNL     1      -1.885  -0.697  -2.669  0.00  0.00    -0.244 OA
ATOM     18  O   UNL     1      -3.978  -0.078  -2.324  0.00  0.00    -0.244 OA
ENDBRANCH  15  16
ENDBRANCH   5  15
BRANCH   4  19
ATOM     19  S   UNL     1      -1.528  -3.596  -0.116  0.00  0.00    -0.077 S 
BRANCH  19  20
ATOM     20  C   UNL     1      -0.208  -4.808   0.142  0.00  0.00    +0.173 C 
BRANCH  20  21
ATOM     21  C   UNL     1      -0.791  -6.197   0.123  0.00  0.00    +0.226 C 
ATOM     22  O   UNL     1      -1.981  -6.353  -0.049  0.00  0.00    -0.275 OA
ATOM     23  N   UNL     1       0.011  -7.267   0.296  0.00  0.00    -0.299 N 
ATOM     24  C   UNL     1       1.449  -7.079   0.503  0.00  0.00    +0.132 C 
BRANCH  23  25
ATOM     25  C   UNL     1      -0.556  -8.618   0.277  0.00  0.00    +0.149 C 
BRANCH  25  26
ATOM     26  C   UNL     1      -0.539  -9.150  -1.133  0.00  0.00    +0.008 A 
ATOM     27  C   UNL     1       0.428  -9.856  -1.767  0.00  0.00    +0.014 A 
ATOM     28  C   UNL     1       0.225 -10.245  -3.078  0.00  0.00    +0.028 A 
ATOM     29  C   UNL     1      -0.938  -9.908  -3.690  0.00  0.00    +0.078 A 
ATOM     30  S   UNL     1      -1.793  -9.021  -2.397  0.00  0.00    -0.080 S 
ATOM     31 CL   UNL     1      -1.463 -10.256  -5.308  0.00  0.00    -0.076 Cl
ENDBRANCH  25  26
ENDBRANCH  23  25
ENDBRANCH  20  21
ENDBRANCH  19  20
ENDBRANCH   4  19
TORSDOF 10
