REMARK  Name = ZINC05335663
REMARK  7 active torsions:
REMARK  status: ('A' for Active; 'I' for Inactive)
REMARK    1  A    between atoms: C_1  and  C_2
REMARK    2  A    between atoms: C_2  and  C_3
REMARK    3  A    between atoms: C_7  and  C_14
REMARK    4  A    between atoms: C_14  and  S_15
REMARK    5  A    between atoms: S_15  and  C_16
REMARK    6  A    between atoms: C_19  and  C_22
REMARK    7  A    between atoms: N_20  and  N_21
REMARK                            x       y       z     vdW  Elec       q    Type
REMARK                         _______ _______ _______ _____ _____    ______ ____
ROOT
ATOM      1  C   UNL     1      -5.170  -3.570   0.092  0.00  0.00    +0.113 C 
ENDROOT
BRANCH   1   6
ATOM      2  C   UNL     1      -8.165  -5.244   3.974  0.00  0.00    -0.044 A 
ATOM      3  C   UNL     1      -6.821  -4.915   3.862  0.00  0.00    +0.004 A 
ATOM      4  C   UNL     1      -6.307  -4.492   2.668  0.00  0.00    +0.012 A 
ATOM      5  C   UNL     1      -7.141  -4.395   1.550  0.00  0.00    +0.022 A 
ATOM      6  C   UNL     1      -6.622  -3.938   0.257  0.00  0.00    -0.020 A 
ATOM      7  C   UNL     1      -7.484  -3.860  -0.788  0.00  0.00    +0.097 A 
ATOM      8  C   UNL     1      -8.840  -4.210  -0.607  0.00  0.00    +0.338 A 
ATOM      9  O   UNL     1      -9.604  -4.135  -1.552  0.00  0.00    -0.245 OA
ATOM     10  O   UNL     1      -9.309  -4.622   0.581  0.00  0.00    -0.422 OA
ATOM     11  C   UNL     1      -8.504  -4.722   1.661  0.00  0.00    +0.140 A 
ATOM     12  C   UNL     1      -9.005  -5.150   2.884  0.00  0.00    +0.050 A 
BRANCH   2  14
ATOM     13  C   UNL     1      -8.591  -7.231   5.394  0.00  0.00    +0.009 C 
ATOM     14  C   UNL     1      -8.711  -5.708   5.299  0.00  0.00    +0.032 C 
ENDBRANCH   2  14
ENDBRANCH   1   6
BRANCH   1  15
ATOM     15  S   UNL     1      -4.950  -1.808   0.445  0.00  0.00    -0.080 S 
BRANCH  15  16
ATOM     16  C   UNL     1      -3.214  -1.659   0.183  0.00  0.00    +0.209 A 
ATOM     17  N   UNL     1      -2.393  -2.623  -0.170  0.00  0.00    -0.120 NA
ATOM     18  N   UNL     1      -1.196  -2.167  -0.278  0.00  0.00    -0.123 NA
ATOM     19  C   UNL     1      -1.177  -0.884   0.008  0.00  0.00    +0.217 A 
ATOM     20  N   UNL     1      -2.471  -0.519   0.309  0.00  0.00    -0.221 N 
BRANCH  19  21
ATOM     21  C   UNL     1       0.002  -0.004   0.002  0.00  0.00    +0.173 A 
ATOM     22  C   UNL     1       1.303  -0.409  -0.013  0.00  0.00    +0.053 A 
ATOM     23  C   UNL     1       2.091   0.758  -0.014  0.00  0.00    +0.042 A 
ATOM     24  C   UNL     1       1.245   1.807  -0.000  0.00  0.00    +0.196 A 
ATOM     25  O   UNL     1      -0.016   1.343   0.009  0.00  0.00    -0.460 OA
ENDBRANCH  19  21
BRANCH  20  26
ATOM     26  N   UNL     1      -2.917   0.723   0.660  0.00  0.00    -0.294 N 
ATOM     27  H   UNL     1      -3.190   1.253  -0.154  0.00  0.00    +0.163 HD
ATOM     28  H   UNL     1      -3.677   0.661   1.322  0.00  0.00    +0.163 HD
ENDBRANCH  20  26
ENDBRANCH  15  16
ENDBRANCH   1  15
TORSDOF 6
