REMARK  Name = ZINC64590867
REMARK  7 active torsions:
REMARK  status: ('A' for Active; 'I' for Inactive)
REMARK    1  A    between atoms: C_1  and  C_2
REMARK    2  A    between atoms: C_7  and  C_13
REMARK    3  A    between atoms: C_13  and  N_14
REMARK    4  A    between atoms: N_14  and  C_15
REMARK    5  A    between atoms: N_14  and  C_22
REMARK    6  A    between atoms: C_15  and  C_16
REMARK    7  A    between atoms: C_22  and  C_23
REMARK                            x       y       z     vdW  Elec       q    Type
REMARK                         _______ _______ _______ _____ _____    ______ ____
ROOT
ATOM      1  N   UNL     1      -1.305  -6.790   0.671  0.00  0.00    -0.288 NA
ENDROOT
BRANCH   1   2
ATOM      2  C   UNL     1       0.046  -6.662   1.235  0.00  0.00    +0.138 C 
BRANCH   2   9
ATOM      3  C   UNL     1       1.523   1.052   1.344  0.00  0.00    +0.045 C 
ATOM      4  C   UNL     1       1.225  -0.406   1.105  0.00  0.00    -0.034 A 
ATOM      5  C   UNL     1       1.025  -0.873  -0.202  0.00  0.00    +0.008 A 
ATOM      6  C   UNL     1       0.756  -2.193  -0.410  0.00  0.00    +0.045 A 
ATOM      7  C   UNL     1       0.684  -3.066   0.691  0.00  0.00    +0.118 A 
ATOM      8  N   UNL     1       0.421  -4.356   0.489  0.00  0.00    -0.343 N 
ATOM      9  C   UNL     1       0.345  -5.209   1.498  0.00  0.00    +0.037 A 
ATOM     10  C   UNL     1       0.539  -4.768   2.793  0.00  0.00    +0.093 A 
ATOM     11  C   UNL     1       0.815  -3.414   3.013  0.00  0.00    +0.258 A 
ATOM     12  O   UNL     1       0.992  -2.993   4.145  0.00  0.00    -0.267 OA
ATOM     13  N   UNL     1       0.884  -2.580   1.953  0.00  0.00    -0.269 N 
ATOM     14  C   UNL     1       1.156  -1.261   2.150  0.00  0.00    +0.099 A 
ATOM     15  H   UNL     1       0.283  -4.677  -0.416  0.00  0.00    +0.167 HD
ENDBRANCH   2   9
ENDBRANCH   1   2
BRANCH   1  16
ATOM     16  C   UNL     1      -1.312  -6.456  -0.759  0.00  0.00    +0.120 C 
BRANCH  16  17
ATOM     17  C   UNL     1      -0.321  -7.329  -1.484  0.00  0.00    -0.033 A 
ATOM     18  C   UNL     1       0.995  -6.924  -1.608  0.00  0.00    +0.005 A 
ATOM     19  C   UNL     1       1.905  -7.725  -2.273  0.00  0.00    +0.000 A 
ATOM     20  C   UNL     1       1.498  -8.931  -2.813  0.00  0.00    +0.000 A 
ATOM     21  C   UNL     1       0.183  -9.336  -2.688  0.00  0.00    +0.000 A 
ATOM     22  C   UNL     1      -0.726  -8.537  -2.020  0.00  0.00    +0.005 A 
ENDBRANCH  16  17
ENDBRANCH   1  16
BRANCH   1  23
ATOM     23  C   UNL     1      -1.846  -8.136   0.900  0.00  0.00    +0.120 C 
BRANCH  23  24
ATOM     24  C   UNL     1      -3.343  -8.111   0.734  0.00  0.00    -0.033 A 
ATOM     25  C   UNL     1      -4.149  -7.726   1.789  0.00  0.00    +0.008 A 
ATOM     26  C   UNL     1      -5.523  -7.702   1.637  0.00  0.00    +0.038 A 
ATOM     27  C   UNL     1      -6.091  -8.064   0.428  0.00  0.00    +0.123 A 
ATOM     28  C   UNL     1      -5.283  -8.450  -0.628  0.00  0.00    +0.038 A 
ATOM     29  C   UNL     1      -3.910  -8.468  -0.476  0.00  0.00    +0.008 A 
ATOM     30  F   UNL     1      -7.434  -8.041   0.279  0.00  0.00    -0.205 F 
ENDBRANCH  23  24
ENDBRANCH   1  23
TORSDOF 6
