REMARK  Name = ZINC14753530
REMARK  11 active torsions:
REMARK  status: ('A' for Active; 'I' for Inactive)
REMARK    1  A    between atoms: C_1  and  C_2
REMARK    2  A    between atoms: C_2  and  C_3
REMARK    3  A    between atoms: C_3  and  C_4
REMARK    4  A    between atoms: C_4  and  N_5
REMARK    5  A    between atoms: N_5  and  C_6
REMARK    6  A    between atoms: N_5  and  C_7
REMARK    7  A    between atoms: C_13  and  C_23
REMARK    8  A    between atoms: N_15  and  C_16
REMARK    9  A    between atoms: C_16  and  C_17
REMARK   10  A    between atoms: N_25  and  C_26
REMARK   11  A    between atoms: N_25  and  C_27
REMARK                            x       y       z     vdW  Elec       q    Type
REMARK                         _______ _______ _______ _____ _____    ______ ____
ROOT
ATOM      1  C   UNL     1      -0.744   0.669   3.981  0.00  0.00    -0.064 C 
ATOM      2  C   UNL     1      -2.031  -0.022   4.439  0.00  0.00    -0.009 C 
ATOM      3  C   UNL     1      -2.729   0.838   5.500  0.00  0.00    +0.054 C 
ATOM      4  C   UNL     1      -1.715   1.210   6.551  0.00  0.00    +0.043 A 
ATOM      5  C   UNL     1      -0.374   1.114   6.375  0.00  0.00    +0.004 A 
ATOM      6  C   UNL     1       0.205   1.548   7.579  0.00  0.00    +0.151 A 
ATOM      7  N   UNL     1      -0.792   1.872   8.384  0.00  0.00    -0.166 NA
ATOM      8  N   UNL     1      -1.920   1.679   7.792  0.00  0.00    -0.267 N 
ATOM      9  C   UNL     1       0.289   0.631   5.114  0.00  0.00    +0.024 C 
ENDROOT
BRANCH   6  10
ATOM     10  C   UNL     1       1.648   1.626   7.885  0.00  0.00    +0.267 C 
ATOM     11  O   UNL     1       2.463   1.209   7.085  0.00  0.00    -0.268 OA
ATOM     12  N   UNL     1       2.061   2.159   9.052  0.00  0.00    -0.302 N 
ATOM     13  C   UNL     1       3.493   2.293   9.330  0.00  0.00    +0.132 C 
ATOM     14  C   UNL     1       1.078   2.605  10.042  0.00  0.00    +0.132 C 
ENDBRANCH   6  10
BRANCH   1  15
ATOM     15  N   UNL     1      -0.207  -0.027   2.804  0.00  0.00    +0.380 N 
ATOM     16  C   UNL     1      -0.036  -1.461   3.073  0.00  0.00    -0.096 C 
ATOM     17  H   UNL     1       0.785   0.396   2.585  0.00  0.00    -0.082 HD
BRANCH  15  18
ATOM     18  C   UNL     1      -1.060   0.191   1.628  0.00  0.00    -0.079 C 
BRANCH  18  19
ATOM     19  C   UNL     1      -0.349  -0.333   0.379  0.00  0.00    -0.019 C 
BRANCH  19  21
ATOM     20  C   UNL     1      -0.527  -0.629  -2.096  0.00  0.00    +0.004 C 
ATOM     21  C   UNL     1      -1.238  -0.106  -0.846  0.00  0.00    -0.005 C 
ENDBRANCH  19  21
ENDBRANCH  18  19
ENDBRANCH  15  18
ENDBRANCH   1  15
BRANCH   8  22
ATOM     22  C   UNL     1      -3.235   1.935   8.387  0.00  0.00    +0.147 C 
BRANCH  22  23
ATOM     23  C   UNL     1      -3.726   0.672   9.099  0.00  0.00    +0.010 C 
ATOM     24  C   UNL     1      -3.955  -0.437   8.070  0.00  0.00    +0.005 C 
ATOM     25  C   UNL     1      -4.446  -1.699   8.782  0.00  0.00    +0.000 C 
ATOM     26  C   UNL     1      -5.759  -1.397   9.508  0.00  0.00    +0.000 C 
ATOM     27  C   UNL     1      -5.529  -0.288  10.537  0.00  0.00    +0.000 C 
ATOM     28  C   UNL     1      -5.038   0.974   9.825  0.00  0.00    +0.005 C 
ENDBRANCH  22  23
ENDBRANCH   8  22
TORSDOF 7
