REMARK  Name = ZINC39662773
REMARK  6 active torsions:
REMARK  status: ('A' for Active; 'I' for Inactive)
REMARK    1  A    between atoms: C_1  and  N_2
REMARK    2  A    between atoms: C_6  and  C_7
REMARK    3  A    between atoms: C_11  and  C_20
REMARK    4  A    between atoms: N_22  and  C_23
REMARK    5  A    between atoms: C_23  and  C_24
REMARK    6  A    between atoms: C_27  and  C_30
REMARK                            x       y       z     vdW  Elec       q    Type
REMARK                         _______ _______ _______ _____ _____    ______ ____
ROOT
ATOM      1  C   UNL     1      -0.177  -0.368   2.470  0.00  0.00    +0.263 C 
ATOM      2  O   UNL     1      -0.113  -1.191   3.365  0.00  0.00    -0.268 OA
ATOM      3  N   UNL     1      -0.385   0.931   2.762  0.00  0.00    -0.295 N 
ATOM      4  C   UNL     1      -0.633   2.046   1.818  0.00  0.00    +0.121 C 
ATOM      5  C   UNL     1      -1.706   2.914   2.512  0.00  0.00    +0.100 C 
ATOM      6  C   UNL     1      -1.558   2.597   4.010  0.00  0.00    -0.004 C 
ATOM      7  C   UNL     1      -0.424   1.566   4.101  0.00  0.00    +0.115 C 
ATOM      8  C   UNL     1      -2.852   1.998   4.553  0.00  0.00    -0.010 C 
ATOM      9  C   UNL     1      -2.699   1.745   6.056  0.00  0.00    -0.082 C 
ATOM     10  N   UNL     1      -2.397   3.008   6.739  0.00  0.00    +0.379 N 
ATOM     11  C   UNL     1      -1.105   3.530   6.277  0.00  0.00    -0.082 C 
ATOM     12  C   UNL     1      -1.190   3.859   4.784  0.00  0.00    -0.010 C 
ATOM     13  H   UNL     1      -3.121   3.680   6.537  0.00  0.00    -0.086 HD
ATOM     14  H   UNL     1      -2.357   2.850   7.735  0.00  0.00    -0.086 HD
ENDROOT
BRANCH   1  20
ATOM     15  C   UNL     1      -0.035  -3.291   1.453  0.00  0.00    +0.149 C 
ATOM     16  N   UNL     1       0.036  -2.089   0.618  0.00  0.00    -0.346 N 
ATOM     17  C   UNL     1       0.169  -2.070  -0.730  0.00  0.00    +0.086 A 
ATOM     18  C   UNL     1       0.197  -0.782  -1.149  0.00  0.00    +0.020 A 
ATOM     19  C   UNL     1       0.078   0.038  -0.023  0.00  0.00    +0.032 A 
ATOM     20  C   UNL     1      -0.028  -0.791   1.073  0.00  0.00    +0.104 A 
ENDBRANCH   1  20
BRANCH   5  21
ATOM     21  C   UNL     1      -3.082   2.536   2.027  0.00  0.00    +0.218 C 
ATOM     22  O   UNL     1      -3.288   1.421   1.597  0.00  0.00    -0.275 OA
ATOM     23  N   UNL     1      -4.083   3.438   2.070  0.00  0.00    -0.315 N 
ATOM     24  H   UNL     1      -3.918   4.330   2.414  0.00  0.00    +0.149 HD
BRANCH  23  25
ATOM     25  C   UNL     1      -5.420   3.070   1.599  0.00  0.00    +0.107 C 
BRANCH  25  26
ATOM     26  C   UNL     1      -6.363   4.265   1.756  0.00  0.00    +0.006 C 
ATOM     27  C   UNL     1      -5.906   5.400   0.836  0.00  0.00    +0.006 C 
ATOM     28  C   UNL     1      -6.848   6.595   0.994  0.00  0.00    +0.015 C 
ATOM     29  C   UNL     1      -8.271   6.175   0.619  0.00  0.00    +0.102 C 
ATOM     30  C   UNL     1      -8.728   5.041   1.539  0.00  0.00    +0.015 C 
ATOM     31  C   UNL     1      -7.785   3.846   1.381  0.00  0.00    +0.006 C 
BRANCH  29  32
ATOM     32  C   UNL     1      -9.200   7.352   0.774  0.00  0.00    +0.359 C 
ATOM     33  O   UNL     1     -10.079   7.547  -0.047  0.00  0.00    -0.246 OA
ATOM     34  O   UNL     1      -9.071   8.109   1.721  0.00  0.00    -0.246 OA
ENDBRANCH  29  32
ENDBRANCH  25  26
ENDBRANCH  23  25
ENDBRANCH   5  21
TORSDOF 5
