REMARK  Name = ZINC39364634
REMARK  7 active torsions:
REMARK  status: ('A' for Active; 'I' for Inactive)
REMARK    1  A    between atoms: C_1  and  C_2
REMARK    2  A    between atoms: C_2  and  C_3
REMARK    3  A    between atoms: C_3  and  C_4
REMARK    4  A    between atoms: C_4  and  C_6
REMARK    5  A    between atoms: C_4  and  C_7
REMARK    6  A    between atoms: C_15  and  C_17
REMARK    7  A    between atoms: N_25  and  C_26
REMARK                            x       y       z     vdW  Elec       q    Type
REMARK                         _______ _______ _______ _____ _____    ______ ____
ROOT
ATOM      1  C   UNL     1       0.782  -2.367  -2.554  0.00  0.00    +0.160 C 
ATOM      2  C   UNL     1       0.865  -3.853  -2.781  0.00  0.00    -0.003 C 
ATOM      3  C   UNL     1       0.149  -4.075  -3.889  0.00  0.00    +0.067 C 
ATOM      4  C   UNL     1      -0.045  -5.449  -4.492  0.00  0.00    +0.076 C 
ATOM      5  C   UNL     1       1.034  -6.390  -3.945  0.00  0.00    +0.114 C 
ATOM      6  N   UNL     1       1.141  -6.215  -2.489  0.00  0.00    -0.293 N 
ATOM      7  C   UNL     1       1.582  -4.902  -1.980  0.00  0.00    +0.143 C 
ATOM      8  C   UNL     1       0.845  -7.223  -1.644  0.00  0.00    +0.247 C 
ATOM      9  O   UNL     1       0.550  -8.318  -2.084  0.00  0.00    -0.270 OA
ATOM     10  N   UNL     1      -0.350  -2.908  -4.355  0.00  0.00    -0.158 NA
ATOM     11  N   UNL     1      -0.051  -1.910  -3.683  0.00  0.00    -0.179 NA
ENDROOT
BRANCH   8  12
ATOM     12  C   UNL     1       0.878  -6.999  -0.187  0.00  0.00    +0.039 A 
ATOM     13  C   UNL     1      -0.118  -7.543   0.628  0.00  0.00    +0.015 A 
ATOM     14  C   UNL     1      -0.088  -7.333   1.990  0.00  0.00    +0.027 A 
ATOM     15  C   UNL     1       0.932  -6.581   2.556  0.00  0.00    +0.068 A 
ATOM     16  C   UNL     1       1.933  -6.034   1.746  0.00  0.00    +0.066 A 
ATOM     17  C   UNL     1       1.910  -6.245   0.382  0.00  0.00    +0.039 A 
ATOM     18  N   UNL     1       2.810  -5.338   2.586  0.00  0.00    -0.263 N 
ATOM     19  N   UNL     1       2.355  -5.459   3.868  0.00  0.00    -0.161 NA
ATOM     20  N   UNL     1       1.216  -6.211   3.869  0.00  0.00    -0.252 N 
ATOM     21  C   UNL     1       0.425  -6.567   5.049  0.00  0.00    +0.151 C 
ATOM     22  H   UNL     1       3.603  -4.854   2.307  0.00  0.00    +0.168 HD
ATOM     23  H   UNL     1       2.191  -4.553   4.280  0.00  0.00    +0.168 HD
ENDBRANCH   8  12
BRANCH   1  24
ATOM     24  C   UNL     1       0.102  -2.059  -1.218  0.00  0.00    +0.016 C 
ATOM     25  C   UNL     1      -0.012  -0.544  -1.041  0.00  0.00    +0.010 C 
BRANCH  24  26
ATOM     26  C   UNL     1      -1.296  -2.681  -1.203  0.00  0.00    +0.005 C 
BRANCH  26  28
ATOM     27  C   UNL     1      -3.326  -3.103   0.191  0.00  0.00    +0.004 C 
ATOM     28  C   UNL     1      -1.928  -2.481   0.176  0.00  0.00    -0.003 C 
ENDBRANCH  26  28
ENDBRANCH  24  26
ENDBRANCH   1  24
TORSDOF 4
