REMARK  Name = ZINC54691436
REMARK  6 active torsions:
REMARK  status: ('A' for Active; 'I' for Inactive)
REMARK    1  A    between atoms: C_1  and  C_2
REMARK    2  A    between atoms: C_4  and  C_21
REMARK    3  A    between atoms: C_6  and  S_11
REMARK    4  A    between atoms: C_7  and  C_8
REMARK    5  A    between atoms: S_11  and  C_12
REMARK    6  A    between atoms: C_17  and  C_20
REMARK                            x       y       z     vdW  Elec       q    Type
REMARK                         _______ _______ _______ _____ _____    ______ ____
ROOT
ATOM      1  C   UNL     1      -0.018   1.503   0.010  0.00  0.00    +0.044 C 
ATOM      2  C   UNL     1       0.002  -0.004   0.002  0.00  0.00    -0.036 A 
ATOM      3  C   UNL     1       0.006  -0.707  -1.191  0.00  0.00    +0.027 A 
ATOM      4  C   UNL     1       0.025  -2.090  -1.167  0.00  0.00    +0.040 A 
ATOM      5  N   UNL     1       0.039  -2.753  -0.028  0.00  0.00    -0.245 NA
ATOM      6  C   UNL     1       0.036  -2.131   1.142  0.00  0.00    +0.108 A 
ATOM      7  C   UNL     1       0.023  -0.727   1.199  0.00  0.00    +0.047 A 
ATOM      8  C   UNL     1       0.029  -2.852  -2.467  0.00  0.00    +0.065 C 
ENDROOT
BRANCH   7   9
ATOM      9  C   UNL     1       0.027  -0.028   2.499  0.00  0.00    +0.097 C 
ATOM     10  N   UNL     1       1.082  -0.128   3.307  0.00  0.00    -0.387 N 
ATOM     11  N   UNL     1      -1.026   0.704   2.865  0.00  0.00    -0.344 N 
ATOM     12  H   UNL     1       1.848  -0.660   3.040  0.00  0.00    +0.157 HD
ATOM     13  H   UNL     1      -1.794   0.777   2.277  0.00  0.00    +0.144 HD
ATOM     14  H   UNL     1      -1.024   1.163   3.719  0.00  0.00    +0.144 HD
ATOM     15  H   UNL     1       1.085   0.332   4.161  0.00  0.00    +0.157 HD
ENDBRANCH   7   9
BRANCH   6  16
ATOM     16  S   UNL     1       0.056  -3.069   2.633  0.00  0.00    -0.102 S 
BRANCH  16  17
ATOM     17  C   UNL     1       0.076  -4.793   2.068  0.00  0.00    +0.053 C 
ATOM     18  C   UNL     1      -1.230  -5.105   1.336  0.00  0.00    +0.014 C 
ATOM     19  C   UNL     1      -1.213  -6.558   0.859  0.00  0.00    +0.001 C 
ATOM     20  C   UNL     1      -1.069  -7.489   2.064  0.00  0.00    +0.003 C 
ATOM     21  C   UNL     1       0.238  -7.177   2.797  0.00  0.00    -0.013 C 
ATOM     22  C   UNL     1       0.220  -5.723   3.274  0.00  0.00    +0.018 C 
ATOM     23  C   UNL     1       0.382  -8.108   4.002  0.00  0.00    +0.007 C 
ENDBRANCH  16  17
ENDBRANCH   6  16
TORSDOF 3
