REMARK  Name = ZINC34779731
REMARK  9 active torsions:
REMARK  status: ('A' for Active; 'I' for Inactive)
REMARK    1  A    between atoms: C_1  and  C_2
REMARK    2  A    between atoms: N_6  and  C_26
REMARK    3  A    between atoms: N_9  and  C_17
REMARK    4  A    between atoms: C_12  and  C_13
REMARK    5  A    between atoms: N_15  and  N_16
REMARK    6  A    between atoms: C_17  and  C_18
REMARK    7  A    between atoms: C_18  and  C_19
REMARK    8  A    between atoms: C_19  and  C_20
REMARK    9  A    between atoms: C_26  and  C_27
REMARK                            x       y       z     vdW  Elec       q    Type
REMARK                         _______ _______ _______ _____ _____    ______ ____
ROOT
ATOM      1  C   UNL     1      -0.018   1.503   0.010  0.00  0.00    +0.046 C 
ATOM      2  C   UNL     1       0.002  -0.004   0.002  0.00  0.00    -0.017 A 
ATOM      3  C   UNL     1       0.006  -0.728  -1.197  0.00  0.00    +0.074 A 
ATOM      4  C   UNL     1      -0.008  -0.215  -2.589  0.00  0.00    +0.265 A 
ATOM      5  O   UNL     1      -0.025   0.983  -2.803  0.00  0.00    -0.267 OA
ATOM      6  N   UNL     1      -0.002  -1.089  -3.610  0.00  0.00    -0.256 N 
ATOM      7  C   UNL     1       0.017  -2.416  -3.405  0.00  0.00    +0.333 A 
ATOM      8  O   UNL     1       0.021  -3.165  -4.363  0.00  0.00    -0.246 OA
ATOM      9  N   UNL     1       0.030  -2.936  -2.164  0.00  0.00    -0.287 N 
ATOM     10  C   UNL     1       0.025  -2.124  -1.066  0.00  0.00    +0.097 A 
ATOM     11  S   UNL     1       0.038  -2.406   0.582  0.00  0.00    -0.065 S 
ATOM     12  C   UNL     1       0.023  -0.722   1.163  0.00  0.00    +0.081 A 
ENDROOT
BRANCH  12  13
ATOM     13  C   UNL     1       0.031  -0.230   2.542  0.00  0.00    +0.264 C 
ATOM     14  O   UNL     1       0.017   0.967   2.762  0.00  0.00    -0.268 OA
ATOM     15  N   UNL     1       0.053  -1.103   3.569  0.00  0.00    -0.249 N 
ATOM     16  H   UNL     1       0.064  -2.058   3.394  0.00  0.00    +0.169 HD
BRANCH  15  17
ATOM     17  N   UNL     1       0.060  -0.645   4.856  0.00  0.00    -0.254 NA
ATOM     18  H   UNL     1       0.076  -1.411   5.512  0.00  0.00    +0.140 HD
ATOM     19  H   UNL     1       0.834  -0.018   5.012  0.00  0.00    +0.140 HD
ENDBRANCH  15  17
ENDBRANCH  12  13
BRANCH   9  20
ATOM     20  C   UNL     1       0.050  -4.391  -1.989  0.00  0.00    +0.128 C 
BRANCH  20  21
ATOM     21  C   UNL     1       1.499  -4.878  -1.936  0.00  0.00    +0.026 C 
BRANCH  21  22
ATOM     22  C   UNL     1       1.519  -6.397  -1.753  0.00  0.00    +0.037 C 
BRANCH  22  23
ATOM     23  C   UNL     1       2.947  -6.878  -1.701  0.00  0.00    -0.047 A 
ATOM     24  C   UNL     1       3.599  -7.236  -2.866  0.00  0.00    +0.003 A 
ATOM     25  C   UNL     1       4.908  -7.677  -2.818  0.00  0.00    +0.000 A 
ATOM     26  C   UNL     1       5.566  -7.759  -1.605  0.00  0.00    +0.000 A 
ATOM     27  C   UNL     1       4.914  -7.400  -0.440  0.00  0.00    +0.000 A 
ATOM     28  C   UNL     1       3.606  -6.955  -0.488  0.00  0.00    +0.003 A 
ENDBRANCH  22  23
ENDBRANCH  21  22
ENDBRANCH  20  21
ENDBRANCH   9  20
BRANCH   6  29
ATOM     29  C   UNL     1      -0.016  -0.580  -4.984  0.00  0.00    +0.165 C 
BRANCH  29  30
ATOM     30  C   UNL     1       1.399  -0.387  -5.462  0.00  0.00    -0.027 A 
ATOM     31  C   UNL     1       2.038   0.823  -5.261  0.00  0.00    +0.007 A 
ATOM     32  C   UNL     1       3.336   1.001  -5.699  0.00  0.00    +0.020 A 
ATOM     33  C   UNL     1       3.997  -0.031  -6.340  0.00  0.00    +0.041 A 
ATOM     34  C   UNL     1       3.358  -1.242  -6.542  0.00  0.00    +0.020 A 
ATOM     35  C   UNL     1       2.062  -1.420  -6.098  0.00  0.00    +0.007 A 
ATOM     36 CL   UNL     1       5.628   0.192  -6.892  0.00  0.00    -0.084 Cl
ENDBRANCH  29  30
ENDBRANCH   6  29
TORSDOF 8
