REMARK  Name = ZINC66617994
REMARK  10 active torsions:
REMARK  status: ('A' for Active; 'I' for Inactive)
REMARK    1  A    between atoms: C_1  and  C_2
REMARK    2  A    between atoms: C_5  and  C_9
REMARK    3  A    between atoms: C_6  and  C_8
REMARK    4  A    between atoms: C_9  and  C_10
REMARK    5  A    between atoms: C_10  and  C_12
REMARK    6  A    between atoms: C_10  and  N_13
REMARK    7  A    between atoms: N_16  and  C_17
REMARK    8  A    between atoms: C_17  and  C_18
REMARK    9  A    between atoms: C_21  and  S_24
REMARK   10  A    between atoms: S_24  and  N_27
REMARK                            x       y       z     vdW  Elec       q    Type
REMARK                         _______ _______ _______ _____ _____    ______ ____
ROOT
ATOM      1  N   UNL     1      -2.143  -4.420  -1.074  0.00  0.00    -0.297 N 
ATOM      2  C   UNL     1      -3.484  -4.311  -0.997  0.00  0.00    +0.300 C 
ATOM      3  O   UNL     1      -4.053  -4.532   0.055  0.00  0.00    -0.253 OA
ATOM      4  N   UNL     1      -4.196  -3.958  -2.086  0.00  0.00    -0.295 N 
ATOM      5  H   UNL     1      -1.690  -4.245  -1.914  0.00  0.00    +0.151 HD
ATOM      6  H   UNL     1      -3.742  -3.782  -2.925  0.00  0.00    +0.151 HD
ENDROOT
BRANCH   1   7
ATOM      7  C   UNL     1      -1.370  -4.804   0.109  0.00  0.00    +0.076 C 
ATOM      8  C   UNL     1      -1.341  -6.330   0.226  0.00  0.00    +0.028 C 
BRANCH   7   9
ATOM      9  C   UNL     1       0.059  -4.275  -0.021  0.00  0.00    +0.057 C 
BRANCH   9  14
ATOM     10  C   UNL     1      -0.018   1.503   0.010  0.00  0.00    +0.044 C 
ATOM     11  C   UNL     1       0.002  -0.004   0.002  0.00  0.00    -0.050 A 
ATOM     12  C   UNL     1       0.006  -0.689  -1.199  0.00  0.00    +0.003 A 
ATOM     13  C   UNL     1       0.025  -2.071  -1.207  0.00  0.00    +0.004 A 
ATOM     14  C   UNL     1       0.040  -2.768  -0.013  0.00  0.00    -0.043 A 
ATOM     15  C   UNL     1       0.037  -2.084   1.188  0.00  0.00    -0.047 A 
ATOM     16  C   UNL     1       0.023  -0.702   1.195  0.00  0.00    +0.007 A 
ATOM     17  C   UNL     1       0.054  -2.845   2.489  0.00  0.00    +0.044 C 
ENDBRANCH   9  14
ENDBRANCH   7   9
ENDBRANCH   1   7
BRANCH   4  18
ATOM     18  C   UNL     1      -5.653  -3.839  -2.002  0.00  0.00    +0.141 C 
BRANCH  18  19
ATOM     19  C   UNL     1      -6.203  -3.435  -3.346  0.00  0.00    -0.030 A 
ATOM     20  C   UNL     1      -6.338  -2.096  -3.662  0.00  0.00    +0.007 A 
ATOM     21  C   UNL     1      -6.842  -1.725  -4.895  0.00  0.00    +0.029 A 
ATOM     22  C   UNL     1      -7.210  -2.693  -5.811  0.00  0.00    +0.105 A 
ATOM     23  C   UNL     1      -7.074  -4.032  -5.495  0.00  0.00    +0.029 A 
ATOM     24  C   UNL     1      -6.566  -4.402  -4.263  0.00  0.00    +0.007 A 
BRANCH  22  25
ATOM     25  S   UNL     1      -7.854  -2.220  -7.382  0.00  0.00    +0.056 S 
ATOM     26  O   UNL     1      -8.632  -3.313  -7.848  0.00  0.00    -0.153 OA
ATOM     27  O   UNL     1      -8.392  -0.914  -7.224  0.00  0.00    -0.153 OA
BRANCH  25  28
ATOM     28  N   UNL     1      -6.568  -2.080  -8.416  0.00  0.00    -0.204 NA
ATOM     29  H   UNL     1      -6.685  -2.258  -9.362  0.00  0.00    +0.144 HD
ATOM     30  H   UNL     1      -5.697  -1.820  -8.075  0.00  0.00    +0.144 HD
ENDBRANCH  25  28
ENDBRANCH  22  25
ENDBRANCH  18  19
ENDBRANCH   4  18
TORSDOF 7
