REMARK  Name = ZINC59176946
REMARK  12 active torsions:
REMARK  status: ('A' for Active; 'I' for Inactive)
REMARK    1  A    between atoms: C_1  and  C_2
REMARK    2  A    between atoms: C_2  and  N_3
REMARK    3  A    between atoms: C_4  and  C_24
REMARK    4  A    between atoms: C_7  and  S_8
REMARK    5  A    between atoms: S_8  and  C_9
REMARK    6  A    between atoms: C_9  and  C_10
REMARK    7  A    between atoms: N_12  and  C_13
REMARK    8  A    between atoms: C_14  and  C_22
REMARK    9  A    between atoms: C_24  and  C_25
REMARK   10  A    between atoms: C_25  and  N_26
REMARK   11  A    between atoms: C_27  and  C_29
REMARK   12  A    between atoms: C_34  and  C_35
REMARK                            x       y       z     vdW  Elec       q    Type
REMARK                         _______ _______ _______ _____ _____    ______ ____
ROOT
ATOM      1  N   UNL     1      -2.861  -0.935   0.378  0.00  0.00    -0.306 N 
ATOM      2  C   UNL     1      -3.457  -1.091   1.599  0.00  0.00    +0.136 A 
ATOM      3  N   UNL     1      -4.694  -1.439   1.386  0.00  0.00    -0.133 NA
ATOM      4  N   UNL     1      -4.920  -1.514   0.123  0.00  0.00    -0.122 NA
ATOM      5  C   UNL     1      -3.831  -1.210  -0.544  0.00  0.00    +0.192 A 
ENDROOT
BRANCH   1   7
ATOM      6  C   UNL     1      -1.379   0.976   0.015  0.00  0.00    +0.027 C 
ATOM      7  C   UNL     1      -1.473  -0.548   0.113  0.00  0.00    +0.122 C 
ENDBRANCH   1   7
BRANCH   5   8
ATOM      8  S   UNL     1      -3.652  -1.168  -2.296  0.00  0.00    -0.077 S 
BRANCH   8   9
ATOM      9  C   UNL     1      -5.294  -1.629  -2.916  0.00  0.00    +0.173 C 
BRANCH   9  10
ATOM     10  C   UNL     1      -5.279  -1.631  -4.423  0.00  0.00    +0.228 C 
ATOM     11  O   UNL     1      -4.262  -1.350  -5.020  0.00  0.00    -0.275 OA
ATOM     12  N   UNL     1      -6.397  -1.947  -5.106  0.00  0.00    -0.278 N 
ATOM     13  H   UNL     1      -7.211  -2.172  -4.629  0.00  0.00    +0.155 HD
BRANCH  12  14
ATOM     14  C   UNL     1      -6.384  -1.949  -6.494  0.00  0.00    +0.090 A 
ATOM     15  C   UNL     1      -7.430  -2.239  -7.355  0.00  0.00    +0.084 A 
ATOM     16  C   UNL     1      -7.157  -2.170  -8.780  0.00  0.00    -0.018 A 
ATOM     17  C   UNL     1      -5.886  -1.823  -9.082  0.00  0.00    -0.004 A 
ATOM     18  S   UNL     1      -5.099  -1.594  -7.515  0.00  0.00    -0.077 S 
ATOM     19  C   UNL     1      -5.298  -1.669 -10.451  0.00  0.00    +0.043 C 
ATOM     20  C   UNL     1      -6.247  -2.329 -11.461  0.00  0.00    +0.005 C 
ATOM     21  C   UNL     1      -7.676  -1.852 -11.184  0.00  0.00    +0.005 C 
ATOM     22  C   UNL     1      -8.180  -2.453  -9.870  0.00  0.00    +0.037 C 
BRANCH  15  23
ATOM     23  C   UNL     1      -8.726  -2.594  -6.861  0.00  0.00    +0.102 C 
ATOM     24  N   UNL     1      -9.755  -2.875  -6.469  0.00  0.00    -0.191 NA
ENDBRANCH  15  23
ENDBRANCH  12  14
ENDBRANCH   9  10
ENDBRANCH   8   9
ENDBRANCH   5   8
BRANCH   2  25
ATOM     25  C   UNL     1      -2.803  -0.895   2.943  0.00  0.00    +0.095 C 
BRANCH  25  26
ATOM     26  C   UNL     1      -2.970   0.560   3.385  0.00  0.00    +0.112 C 
BRANCH  26  27
ATOM     27  N   UNL     1      -2.335   0.750   4.691  0.00  0.00    -0.311 N 
ATOM     28  C   UNL     1      -2.357   1.962   5.281  0.00  0.00    +0.244 C 
ATOM     29  O   UNL     1      -2.904   2.896   4.730  0.00  0.00    -0.270 OA
ATOM     30  H   UNL     1      -1.898   0.004   5.131  0.00  0.00    +0.149 HD
BRANCH  28  31
ATOM     31  C   UNL     1      -1.715   2.153   6.599  0.00  0.00    +0.040 A 
ATOM     32  C   UNL     1      -1.201   1.058   7.295  0.00  0.00    +0.013 A 
ATOM     33  C   UNL     1      -0.603   1.243   8.524  0.00  0.00    +0.001 A 
ATOM     34  C   UNL     1      -0.513   2.512   9.068  0.00  0.00    +0.000 A 
ATOM     35  C   UNL     1      -1.021   3.602   8.384  0.00  0.00    +0.004 A 
ATOM     36  C   UNL     1      -1.617   3.431   7.152  0.00  0.00    -0.038 A 
ATOM     37  C   UNL     1      -2.164   4.620   6.405  0.00  0.00    +0.044 C 
ENDBRANCH  28  31
ENDBRANCH  26  27
ENDBRANCH  25  26
ENDBRANCH   2  25
TORSDOF 10
