REMARK  Name = ZINC48687018
REMARK  7 active torsions:
REMARK  status: ('A' for Active; 'I' for Inactive)
REMARK    1  A    between atoms: C_1  and  C_2
REMARK    2  A    between atoms: C_7  and  N_12
REMARK    3  A    between atoms: C_9  and  C_11
REMARK    4  A    between atoms: C_13  and  C_15
REMARK    5  A    between atoms: N_17  and  C_18
REMARK    6  A    between atoms: C_20  and  C_25
REMARK    7  A    between atoms: N_27  and  C_28
REMARK                            x       y       z     vdW  Elec       q    Type
REMARK                         _______ _______ _______ _____ _____    ______ ____
ROOT
ATOM      1  C   UNL     1       1.926  -4.247   4.121  0.00  0.00    +0.303 C 
ATOM      2  O   UNL     1       2.754  -3.545   4.663  0.00  0.00    -0.265 OA
ATOM      3  N   UNL     1       1.665  -5.478   4.605  0.00  0.00    -0.276 N 
ATOM      4  H   UNL     1       0.958  -6.013   4.212  0.00  0.00    +0.155 HD
ENDROOT
BRANCH   3   5
ATOM      5  C   UNL     1       2.413  -5.982   5.673  0.00  0.00    +0.053 A 
ATOM      6  C   UNL     1       2.861  -5.129   6.669  0.00  0.00    +0.037 A 
ATOM      7  C   UNL     1       3.608  -5.638   7.732  0.00  0.00    +0.039 A 
ATOM      8  C   UNL     1       3.899  -7.002   7.786  0.00  0.00    +0.014 A 
ATOM      9  C   UNL     1       3.449  -7.844   6.790  0.00  0.00    +0.022 A 
ATOM     10  C   UNL     1       2.703  -7.341   5.738  0.00  0.00    +0.062 A 
ATOM     11 CL   UNL     1       2.134  -8.409   4.493  0.00  0.00    -0.082 Cl
BRANCH   7  12
ATOM     12  C   UNL     1       4.090  -4.734   8.798  0.00  0.00    +0.244 C 
ATOM     13  O   UNL     1       3.836  -3.546   8.749  0.00  0.00    -0.270 OA
ATOM     14  N   UNL     1       4.811  -5.227   9.824  0.00  0.00    -0.314 N 
ATOM     15  C   UNL     1       5.288  -4.332  10.881  0.00  0.00    +0.128 C 
ATOM     16  H   UNL     1       5.014  -6.175   9.863  0.00  0.00    +0.149 HD
ENDBRANCH   7  12
ENDBRANCH   3   5
BRANCH   1  18
ATOM     17  N   UNL     1       1.457  -2.517   2.433  0.00  0.00    -0.304 N 
ATOM     18  C   UNL     1       1.196  -3.748   2.917  0.00  0.00    +0.300 C 
ATOM     19  O   UNL     1       0.367  -4.450   2.375  0.00  0.00    -0.265 OA
ATOM     20  H   UNL     1       2.119  -1.956   2.867  0.00  0.00    +0.149 HD
BRANCH  17  26
ATOM     21  C   UNL     1      -0.050   1.544   0.050  0.00  0.00    +0.008 C 
ATOM     22  C   UNL     1      -0.029   0.014   0.035  0.00  0.00    -0.009 C 
ATOM     23  C   UNL     1       0.680  -0.474  -1.230  0.00  0.00    +0.003 C 
ATOM     24  C   UNL     1       0.701  -2.003  -1.245  0.00  0.00    +0.002 C 
ATOM     25  C   UNL     1       1.449  -2.515  -0.012  0.00  0.00    +0.022 C 
ATOM     26  C   UNL     1       0.741  -2.027   1.253  0.00  0.00    +0.076 C 
ATOM     27  C   UNL     1       0.719  -0.497   1.268  0.00  0.00    +0.009 C 
ATOM     28  C   UNL     1       0.011  -0.009   2.533  0.00  0.00    +0.009 C 
ENDBRANCH  17  26
ENDBRANCH   1  18
TORSDOF 4
