REMARK  Name = ZINC25060648
REMARK  8 active torsions:
REMARK  status: ('A' for Active; 'I' for Inactive)
REMARK    1  A    between atoms: C_1  and  C_2
REMARK    2  A    between atoms: C_3  and  C_14
REMARK    3  A    between atoms: C_5  and  C_7
REMARK    4  A    between atoms: N_16  and  C_17
REMARK    5  A    between atoms: C_19  and  C_22
REMARK    6  A    between atoms: C_22  and  N_23
REMARK    7  A    between atoms: C_25  and  C_32
REMARK    8  A    between atoms: C_28  and  C_31
REMARK                            x       y       z     vdW  Elec       q    Type
REMARK                         _______ _______ _______ _____ _____    ______ ____
ROOT
ATOM      1  C   UNL     1      -0.911  -6.480  -1.033  0.00  0.00    +0.288 C 
ATOM      2  O   UNL     1      -1.006  -6.748   0.150  0.00  0.00    -0.265 OA
ATOM      3  N   UNL     1      -0.948  -5.195  -1.438  0.00  0.00    -0.182 NA
ENDROOT
BRANCH   1   6
ATOM      4  C   UNL     1      -0.787  -9.531  -0.450  0.00  0.00    +0.067 C 
ATOM      5  C   UNL     1      -0.694  -8.930  -1.829  0.00  0.00    +0.059 A 
ATOM      6  C   UNL     1      -0.756  -7.554  -2.018  0.00  0.00    +0.101 A 
ATOM      7  S   UNL     1      -0.604  -7.460  -3.796  0.00  0.00    -0.062 S 
ATOM      8  C   UNL     1      -0.469  -9.164  -4.102  0.00  0.00    +0.109 A 
ATOM      9  N   UNL     1      -0.552  -9.683  -2.885  0.00  0.00    -0.243 NA
BRANCH   8  10
ATOM     10  C   UNL     1      -0.309  -9.861  -5.395  0.00  0.00    +0.007 A 
ATOM     11  C   UNL     1      -0.220 -11.254  -5.434  0.00  0.00    +0.012 A 
ATOM     12  C   UNL     1      -0.076 -11.899  -6.645  0.00  0.00    +0.020 A 
ATOM     13  C   UNL     1      -0.009 -11.168  -7.819  0.00  0.00    +0.041 A 
ATOM     14  C   UNL     1      -0.092  -9.786  -7.786  0.00  0.00    +0.020 A 
ATOM     15  C   UNL     1      -0.241  -9.129  -6.582  0.00  0.00    +0.012 A 
ATOM     16 CL   UNL     1       0.179 -11.986  -9.338  0.00  0.00    -0.084 Cl
ENDBRANCH   8  10
ENDBRANCH   1   6
BRANCH   3  17
ATOM     17  C   UNL     1      -1.094  -4.177  -0.505  0.00  0.00    +0.196 A 
ATOM     18  N   UNL     1      -1.157  -2.874  -0.703  0.00  0.00    -0.228 NA
ATOM     19  C   UNL     1      -1.295  -2.036   0.306  0.00  0.00    +0.034 A 
ATOM     20  C   UNL     1      -1.383  -2.543   1.560  0.00  0.00    +0.070 A 
ATOM     21  S   UNL     1      -1.249  -4.293   1.221  0.00  0.00    -0.056 S 
BRANCH  19  22
ATOM     22  C   UNL     1      -1.360  -0.549   0.069  0.00  0.00    -0.022 C 
BRANCH  22  23
ATOM     23  N   UNL     1       0.002  -0.004   0.002  0.00  0.00    +0.387 N 
ATOM     24  C   UNL     1      -0.018   1.466   0.010  0.00  0.00    -0.047 C 
ATOM     25  C   UNL     1       1.420   1.990  -0.001  0.00  0.00    +0.099 C 
ATOM     26  O   UNL     1       2.106   1.465  -1.141  0.00  0.00    -0.378 OA
ATOM     27  C   UNL     1       2.145   0.035  -1.180  0.00  0.00    +0.099 C 
ATOM     28  C   UNL     1       0.714  -0.509  -1.181  0.00  0.00    -0.047 C 
ATOM     29  C   UNL     1       2.866  -0.422  -2.449  0.00  0.00    +0.036 C 
ATOM     30  C   UNL     1       1.406   3.519  -0.073  0.00  0.00    +0.036 C 
ATOM     31  H   UNL     1       0.544  -0.343   0.897  0.00  0.00    -0.081 HD
ENDBRANCH  22  23
ENDBRANCH  19  22
ENDBRANCH   3  17
TORSDOF 5
