REMARK  Name = ZINC39659613
REMARK  6 active torsions:
REMARK  status: ('A' for Active; 'I' for Inactive)
REMARK    1  A    between atoms: C_1  and  C_2
REMARK    2  A    between atoms: C_2  and  C_32
REMARK    3  A    between atoms: C_5  and  C_8
REMARK    4  A    between atoms: C_8  and  N_9
REMARK    5  A    between atoms: C_10  and  C_12
REMARK    6  A    between atoms: C_23  and  C_25
REMARK                            x       y       z     vdW  Elec       q    Type
REMARK                         _______ _______ _______ _____ _____    ______ ____
ROOT
ATOM      1  C   UNL     1       3.091  -1.125   5.865  0.00  0.00    +0.100 C 
ATOM      2  C   UNL     1       4.379  -0.336   5.543  0.00  0.00    +0.121 C 
ATOM      3  N   UNL     1       5.224  -0.489   6.751  0.00  0.00    -0.300 N 
ATOM      4  C   UNL     1       5.013  -1.894   7.173  0.00  0.00    +0.115 C 
ATOM      5  C   UNL     1       3.511  -2.147   6.934  0.00  0.00    -0.004 C 
ATOM      6  C   UNL     1       2.726  -1.917   8.222  0.00  0.00    -0.010 C 
ATOM      7  C   UNL     1       3.120  -2.981   9.251  0.00  0.00    -0.082 C 
ATOM      8  N   UNL     1       2.834  -4.316   8.712  0.00  0.00    +0.379 N 
ATOM      9  C   UNL     1       3.662  -4.565   7.526  0.00  0.00    -0.082 C 
ATOM     10  C   UNL     1       3.291  -3.568   6.424  0.00  0.00    -0.010 C 
ATOM     11  C   UNL     1       6.007   0.440   7.334  0.00  0.00    +0.219 C 
ATOM     12  O   UNL     1       6.014   1.578   6.915  0.00  0.00    -0.275 OA
ATOM     13  H   UNL     1       3.037  -5.011   9.414  0.00  0.00    -0.086 HD
ATOM     14  H   UNL     1       1.859  -4.372   8.458  0.00  0.00    -0.086 HD
ENDROOT
BRANCH  11  15
ATOM     15  C   UNL     1       6.875   0.065   8.508  0.00  0.00    +0.079 C 
ATOM     16  C   UNL     1       7.161   1.310   9.357  0.00  0.00    +0.017 C 
ATOM     17  C   UNL     1       7.888   0.872  10.629  0.00  0.00    +0.027 C 
ATOM     18  C   UNL     1       9.040  -0.026  10.283  0.00  0.00    -0.031 C 
ATOM     19  C   UNL     1       9.176  -0.624   9.143  0.00  0.00    -0.030 C 
ATOM     20  C   UNL     1       8.205  -0.500   8.005  0.00  0.00    +0.039 C 
ENDBRANCH  11  15
BRANCH   1  22
ATOM     21  N   UNL     1       1.272  -2.096   4.497  0.00  0.00    -0.312 N 
ATOM     22  C   UNL     1       2.587  -1.832   4.633  0.00  0.00    +0.218 C 
ATOM     23  O   UNL     1       3.365  -2.164   3.763  0.00  0.00    -0.275 OA
ATOM     24  H   UNL     1       0.650  -1.831   5.193  0.00  0.00    +0.149 HD
BRANCH  21  25
ATOM     25  C   UNL     1       0.783  -2.783   3.300  0.00  0.00    +0.138 C 
BRANCH  25  30
ATOM     26  C   UNL     1      -3.480  -3.637   4.745  0.00  0.00    +0.074 C 
ATOM     27  C   UNL     1      -2.358  -4.423   4.061  0.00  0.00    +0.165 C 
ATOM     28  O   UNL     1      -2.490  -4.311   2.638  0.00  0.00    -0.347 OA
ATOM     29  C   UNL     1      -1.290  -3.682   2.145  0.00  0.00    +0.196 C 
ATOM     30  C   UNL     1      -0.734  -2.957   3.396  0.00  0.00    +0.164 C 
ATOM     31  O   UNL     1      -1.084  -3.884   4.452  0.00  0.00    -0.342 OA
ATOM     32  C   UNL     1      -2.441  -5.895   4.468  0.00  0.00    +0.074 C 
ENDBRANCH  25  30
ENDBRANCH  21  25
ENDBRANCH   1  22
TORSDOF 4
