REMARK  Name = ZINC40650411
REMARK  5 active torsions:
REMARK  status: ('A' for Active; 'I' for Inactive)
REMARK    1  A    between atoms: C_1  and  C_2
REMARK    2  A    between atoms: C_13  and  N_29
REMARK    3  A    between atoms: C_14  and  N_18
REMARK    4  A    between atoms: N_18  and  N_19
REMARK    5  A    between atoms: C_20  and  C_22
REMARK                            x       y       z     vdW  Elec       q    Type
REMARK                         _______ _______ _______ _____ _____    ______ ____
ROOT
ATOM      1  C   UNL     1      -0.018   1.503   0.010  0.00  0.00    +0.046 C 
ATOM      2  C   UNL     1       0.002  -0.004   0.002  0.00  0.00    -0.024 A 
ATOM      3  C   UNL     1       0.005  -0.675  -1.193  0.00  0.00    +0.005 A 
ATOM      4  C   UNL     1       0.024  -2.061  -1.246  0.00  0.00    +0.001 A 
ATOM      5  C   UNL     1       0.040  -2.784  -0.066  0.00  0.00    +0.017 A 
ATOM      6  C   UNL     1       0.036  -2.120   1.134  0.00  0.00    +0.041 A 
ATOM      7  C   UNL     1       0.023  -0.710   1.227  0.00  0.00    +0.083 A 
ATOM      8  N   UNL     1       0.028  -0.205   2.480  0.00  0.00    -0.224 NA
ATOM      9  C   UNL     1       0.048  -0.969   3.548  0.00  0.00    +0.165 A 
ATOM     10  S   UNL     1       0.051  -2.611   2.842  0.00  0.00    -0.052 S 
ATOM     11  N   UNL     1       0.055  -0.598   4.880  0.00  0.00    -0.277 N 
ATOM     12  C   UNL     1       0.077  -1.570   5.871  0.00  0.00    +0.160 A 
ATOM     13  C   UNL     1       0.079  -1.208   7.214  0.00  0.00    +0.207 A 
ATOM     14  C   UNL     1       0.102  -2.220   8.170  0.00  0.00    +0.171 A 
ATOM     15  N   UNL     1       0.121  -3.489   7.767  0.00  0.00    -0.217 NA
ATOM     16  C   UNL     1       0.119  -3.791   6.484  0.00  0.00    +0.225 A 
ATOM     17  N   UNL     1       0.092  -2.862   5.550  0.00  0.00    -0.218 NA
ATOM     18  H   UNL     1       0.045   0.341   5.121  0.00  0.00    +0.156 HD
ENDROOT
BRANCH  13  19
ATOM     19  N   UNL     1       0.057   0.216   7.617  0.00  0.00    +0.063 N 
ATOM     20  O   UNL     1      -0.998   0.780   7.787  0.00  0.00    -0.126 OA
ATOM     21  O   UNL     1       1.095   0.815   7.776  0.00  0.00    -0.126 OA
ENDBRANCH  13  19
BRANCH  14  22
ATOM     22  N   UNL     1       0.105  -1.911   9.521  0.00  0.00    -0.246 N 
ATOM     23  H   UNL     1       0.091  -0.984   9.807  0.00  0.00    +0.172 HD
BRANCH  22  24
ATOM     24  N   UNL     1       0.128  -2.938  10.474  0.00  0.00    -0.231 N 
ATOM     25  C   UNL     1       0.131  -2.638  11.788  0.00  0.00    +0.261 C 
ATOM     26  O   UNL     1       0.113  -1.476  12.146  0.00  0.00    -0.269 OA
ATOM     27  H   UNL     1       0.142  -3.865  10.188  0.00  0.00    +0.173 HD
BRANCH  25  28
ATOM     28  C   UNL     1       0.155  -3.721  12.793  0.00  0.00    +0.052 A 
ATOM     29  C   UNL     1       0.181  -5.056  12.386  0.00  0.00    +0.014 A 
ATOM     30  C   UNL     1       0.204  -6.061  13.329  0.00  0.00    +0.001 A 
ATOM     31  C   UNL     1       0.201  -5.750  14.678  0.00  0.00    +0.001 A 
ATOM     32  C   UNL     1       0.175  -4.431  15.090  0.00  0.00    +0.016 A 
ATOM     33  C   UNL     1       0.158  -3.413  14.156  0.00  0.00    +0.030 A 
ATOM     34 BR   UNL     1       0.131  -1.609  14.721  0.00  0.00    -0.050 Br
ENDBRANCH  25  28
ENDBRANCH  22  24
ENDBRANCH  14  22
TORSDOF 4
