REMARK  Name = ZINC08186500
REMARK  6 active torsions:
REMARK  status: ('A' for Active; 'I' for Inactive)
REMARK    1  A    between atoms: C_1  and  C_2
REMARK    2  A    between atoms: C_2  and  C_3
REMARK    3  A    between atoms: C_12  and  N_13
REMARK    4  A    between atoms: C_12  and  N_47
REMARK    5  A    between atoms: N_16  and  C_26
REMARK    6  A    between atoms: C_17  and  C_19
REMARK                            x       y       z     vdW  Elec       q    Type
REMARK                         _______ _______ _______ _____ _____    ______ ____
ROOT
ATOM      1  N   UNL     1      -0.078  -1.971   2.361  0.00  0.00    -0.257 N 
ATOM      2  C   UNL     1      -0.087  -1.762   3.693  0.00  0.00    +0.176 A 
ATOM      3  S   UNL     1       1.270  -1.381   4.666  0.00  0.00    -0.011 S 
ATOM      4  N   UNL     1      -1.358  -1.904   4.121  0.00  0.00    -0.306 N 
ATOM      5  C   UNL     1      -2.148  -2.215   3.032  0.00  0.00    +0.165 A 
ATOM      6  N   UNL     1      -1.393  -2.258   1.970  0.00  0.00    -0.152 NA
ATOM      7  C   UNL     1      -1.819  -1.759   5.503  0.00  0.00    +0.153 C 
ENDROOT
BRANCH   5   8
ATOM      8  C   UNL     1      -3.607  -2.458   3.065  0.00  0.00    +0.054 A 
ATOM      9  C   UNL     1      -4.155  -3.303   4.031  0.00  0.00    +0.014 A 
ATOM     10  C   UNL     1      -5.516  -3.525   4.057  0.00  0.00    +0.001 A 
ATOM     11  C   UNL     1      -6.340  -2.913   3.128  0.00  0.00    +0.003 A 
ATOM     12  C   UNL     1      -5.805  -2.074   2.168  0.00  0.00    +0.039 A 
ATOM     13  C   UNL     1      -4.443  -1.837   2.134  0.00  0.00    +0.134 A 
ATOM     14  F   UNL     1      -3.922  -1.013   1.199  0.00  0.00    -0.205 F 
ENDBRANCH   5   8
BRANCH   1  15
ATOM     15  C   UNL     1       1.093  -1.914   1.483  0.00  0.00    +0.072 C 
BRANCH  15  24
ATOM     16  C   UNL     1       2.541  -0.394   0.277  0.00  0.00    -0.035 C 
ATOM     17  C   UNL     1       2.643   1.034  -0.251  0.00  0.00    -0.051 A 
ATOM     18  C   UNL     1       3.840   1.641  -0.623  0.00  0.00    +0.010 A 
ATOM     19  C   UNL     1       3.840   2.915  -1.080  0.00  0.00    +0.045 A 
ATOM     20  S   UNL     1       2.103   3.332  -1.006  0.00  0.00    -0.101 S 
ATOM     21  C   UNL     1       1.514   1.786  -0.377  0.00  0.00    -0.010 A 
ATOM     22  C   UNL     1       0.119   1.364  -0.049  0.00  0.00    +0.024 C 
ATOM     23  C   UNL     1       0.120  -0.165   0.120  0.00  0.00    -0.070 C 
ATOM     24  N   UNL     1       1.255  -0.528   1.002  0.00  0.00    +0.397 N 
ATOM     25  H   UNL     1       1.263   0.106   1.809  0.00  0.00    -0.078 HD
BRANCH  16  27
ATOM     26  C   UNL     1       3.585   0.291   2.441  0.00  0.00    +0.002 C 
ATOM     27  C   UNL     1       3.687  -0.668   1.253  0.00  0.00    -0.014 C 
ENDBRANCH  16  27
ENDBRANCH  15  24
ENDBRANCH   1  15
TORSDOF 4
