REMARK  Name = ZINC43722542
REMARK  9 active torsions:
REMARK  status: ('A' for Active; 'I' for Inactive)
REMARK    1  A    between atoms: C_1  and  C_2
REMARK    2  A    between atoms: C_2  and  O_4
REMARK    3  A    between atoms: O_4  and  C_5
REMARK    4  A    between atoms: C_5  and  C_6
REMARK    5  A    between atoms: C_6  and  C_8
REMARK    6  A    between atoms: C_8  and  O_31
REMARK    7  A    between atoms: C_11  and  O_30
REMARK    8  A    between atoms: C_12  and  C_29
REMARK    9  A    between atoms: C_27  and  C_28
REMARK                            x       y       z     vdW  Elec       q    Type
REMARK                         _______ _______ _______ _____ _____    ______ ____
ROOT
ATOM      1  C   UNL     1       0.276  -4.337  -2.826  0.00  0.00    +0.135 C 
ATOM      2  C   UNL     1       1.586  -5.017  -3.300  0.00  0.00    +0.046 C 
ATOM      3  C   UNL     1       1.251  -5.721  -4.644  0.00  0.00    +0.039 C 
ATOM      4  C   UNL     1      -0.280  -5.897  -4.546  0.00  0.00    +0.078 C 
ATOM      5  C   UNL     1      -0.699  -4.514  -4.005  0.00  0.00    +0.033 C 
ATOM      6  C   UNL     1      -2.163  -4.511  -3.635  0.00  0.00    +0.013 C 
ATOM      7  C   UNL     1      -2.919  -5.554  -4.476  0.00  0.00    +0.005 C 
ATOM      8  C   UNL     1      -2.339  -5.606  -5.880  0.00  0.00    +0.005 C 
ATOM      9  C   UNL     1      -0.940  -6.192  -5.891  0.00  0.00    +0.026 C 
ATOM     10  C   UNL     1      -0.870  -7.688  -6.127  0.00  0.00    +0.011 C 
ATOM     11  C   UNL     1      -1.784  -8.224  -7.211  0.00  0.00    +0.032 C 
ATOM     12  C   UNL     1      -3.172  -7.652  -7.013  0.00  0.00    -0.060 C 
ATOM     13  C   UNL     1      -4.206  -8.488  -6.939  0.00  0.00    +0.046 C 
ATOM     14  C   UNL     1      -5.553  -7.934  -6.747  0.00  0.00    +0.156 C 
ATOM     15  O   UNL     1      -6.548  -8.509  -7.135  0.00  0.00    -0.293 OA
ATOM     16  C   UNL     1      -5.623  -6.596  -6.036  0.00  0.00    +0.080 C 
ATOM     17  C   UNL     1      -4.694  -5.632  -6.769  0.00  0.00    +0.019 C 
ATOM     18  C   UNL     1      -3.287  -6.167  -6.914  0.00  0.00    -0.007 C 
ATOM     19  C   UNL     1      -2.796  -5.616  -8.261  0.00  0.00    +0.016 C 
ATOM     20  C   UNL     1      -0.396  -3.396  -5.008  0.00  0.00    +0.017 C 
ENDROOT
BRANCH   1  21
ATOM     21  C   UNL     1       0.513  -2.872  -2.573  0.00  0.00    +0.202 C 
ATOM     22  O   UNL     1       1.476  -2.324  -3.053  0.00  0.00    -0.291 OA
BRANCH  21  23
ATOM     23  C   UNL     1      -0.453  -2.089  -1.721  0.00  0.00    +0.309 C 
BRANCH  23  24
ATOM     24  O   UNL     1      -0.015  -0.731  -1.630  0.00  0.00    -0.457 OA
BRANCH  24  26
ATOM     25  C   UNL     1      -0.372   1.551  -0.759  0.00  0.00    +0.136 C 
ATOM     26  C   UNL     1      -0.770   0.105  -0.901  0.00  0.00    +0.304 C 
ATOM     27  O   UNL     1      -1.770  -0.302  -0.358  0.00  0.00    -0.251 OA
ENDBRANCH  24  26
ENDBRANCH  23  24
ENDBRANCH  21  23
ENDBRANCH   1  21
BRANCH   4  28
ATOM     28  O   UNL     1      -0.578  -6.921  -3.587  0.00  0.00    -0.388 OA
ATOM     29  H   UNL     1      -0.221  -7.791  -3.817  0.00  0.00    +0.210 HD
ENDBRANCH   4  28
BRANCH   1  30
ATOM     30  O   UNL     1      -0.222  -4.976  -1.655  0.00  0.00    -0.380 OA
ATOM     31  H   UNL     1       0.368  -4.913  -0.892  0.00  0.00    +0.211 HD
ENDBRANCH   1  30
TORSDOF 6
