REMARK  Name = ZINC38894182
REMARK  9 active torsions:
REMARK  status: ('A' for Active; 'I' for Inactive)
REMARK    1  A    between atoms: C_5  and  C_7
REMARK    2  A    between atoms: C_7  and  S_8
REMARK    3  A    between atoms: S_8  and  C_9
REMARK    4  A    between atoms: C_9  and  C_10
REMARK    5  A    between atoms: C_10  and  N_11
REMARK    6  A    between atoms: C_12  and  C_14
REMARK    7  A    between atoms: N_19  and  C_21
REMARK    8  A    between atoms: C_21  and  C_22
REMARK    9  A    between atoms: C_24  and  C_27
REMARK                            x       y       z     vdW  Elec       q    Type
REMARK                         _______ _______ _______ _____ _____    ______ ____
ROOT
ATOM      1  C   UNL     1       1.355  -9.003   3.677  0.00  0.00    +0.058 C 
ATOM      2  C   UNL     1       2.605  -9.422   2.897  0.00  0.00    +0.009 C 
ATOM      3  C   UNL     1       2.655 -10.951   2.816  0.00  0.00    -0.018 C 
ATOM      4  C   UNL     1       2.632 -11.533   4.231  0.00  0.00    -0.078 C 
ATOM      5  N   UNL     1       1.401 -11.117   4.915  0.00  0.00    +0.386 N 
ATOM      6  C   UNL     1       1.380  -9.657   5.060  0.00  0.00    -0.065 C 
ATOM      7  H   UNL     1       0.602 -11.412   4.374  0.00  0.00    -0.081 HD
ENDROOT
BRANCH   1   9
ATOM      8  N   UNL     1       1.315  -6.716   2.736  0.00  0.00    -0.314 N 
ATOM      9  C   UNL     1       1.337  -7.504   3.829  0.00  0.00    +0.214 C 
ATOM     10  O   UNL     1       1.341  -7.007   4.936  0.00  0.00    -0.276 OA
ATOM     11  H   UNL     1       1.312  -7.113   1.852  0.00  0.00    +0.149 HD
BRANCH   8  12
ATOM     12  C   UNL     1       1.297  -5.258   2.885  0.00  0.00    +0.115 C 
BRANCH  12  13
ATOM     13  C   UNL     1       1.275  -4.605   1.501  0.00  0.00    +0.088 C 
BRANCH  13  14
ATOM     14  S   UNL     1       1.253  -2.800   1.685  0.00  0.00    -0.154 S 
BRANCH  14  15
ATOM     15  C   UNL     1       1.228  -2.186  -0.022  0.00  0.00    +0.107 C 
BRANCH  15  20
ATOM     16  C   UNL     1      -0.017   1.378   0.010  0.00  0.00    +0.000 A 
ATOM     17  C   UNL     1       1.171   2.087   0.002  0.00  0.00    +0.003 A 
ATOM     18  C   UNL     1       2.377   1.414  -0.013  0.00  0.00    +0.038 A 
ATOM     19  C   UNL     1       2.397   0.029  -0.021  0.00  0.00    +0.127 A 
ATOM     20  C   UNL     1       1.208  -0.679  -0.013  0.00  0.00    -0.002 A 
ATOM     21  C   UNL     1       0.002  -0.004   0.002  0.00  0.00    +0.007 A 
ATOM     22  F   UNL     1       3.577  -0.630  -0.036  0.00  0.00    -0.205 F 
ENDBRANCH  15  20
ENDBRANCH  14  15
ENDBRANCH  13  14
ENDBRANCH  12  13
ENDBRANCH   8  12
ENDBRANCH   1   9
BRANCH   5  23
ATOM     23  C   UNL     1       1.347 -11.741   6.243  0.00  0.00    +0.022 C 
BRANCH  23  24
ATOM     24  C   UNL     1       1.235 -13.236   6.092  0.00  0.00    +0.211 A 
ATOM     25  N   UNL     1       2.232 -14.072   6.027  0.00  0.00    -0.193 NA
ATOM     26  C   UNL     1       1.773 -15.329   5.893  0.00  0.00    +0.202 A 
ATOM     27  N   UNL     1       0.463 -15.295   5.873  0.00  0.00    -0.056 NA
ATOM     28  O   UNL     1       0.093 -13.931   6.008  0.00  0.00    -0.340 OA
BRANCH  26  29
ATOM     29  C   UNL     1       2.609 -16.550   5.786  0.00  0.00    +0.023 A 
ATOM     30  C   UNL     1       3.998 -16.450   5.826  0.00  0.00    +0.014 A 
ATOM     31  C   UNL     1       4.772 -17.588   5.727  0.00  0.00    +0.039 A 
ATOM     32  C   UNL     1       4.170 -18.828   5.587  0.00  0.00    +0.123 A 
ATOM     33  C   UNL     1       2.789 -18.931   5.546  0.00  0.00    +0.039 A 
ATOM     34  C   UNL     1       2.007 -17.799   5.650  0.00  0.00    +0.014 A 
ATOM     35  F   UNL     1       4.932 -19.940   5.490  0.00  0.00    -0.205 F 
ENDBRANCH  26  29
ENDBRANCH  23  24
ENDBRANCH   5  23
TORSDOF 9
