REMARK  Name = ZINC36612945
REMARK  6 active torsions:
REMARK  status: ('A' for Active; 'I' for Inactive)
REMARK    1  A    between atoms: C_1  and  C_2
REMARK    2  A    between atoms: C_3  and  C_8
REMARK    3  A    between atoms: N_5  and  C_7
REMARK    4  A    between atoms: C_19  and  O_32
REMARK    5  A    between atoms: C_27  and  C_31
REMARK    6  A    between atoms: C_28  and  O_30
REMARK                            x       y       z     vdW  Elec       q    Type
REMARK                         _______ _______ _______ _____ _____    ______ ____
ROOT
ATOM      1  C   UNL     1      -0.005  -0.366  -2.550  0.00  0.00    +0.013 C 
ATOM      2  C   UNL     1       0.002  -1.251  -3.536  0.00  0.00    -0.040 C 
ATOM      3  C   UNL     1       0.018  -2.770  -3.392  0.00  0.00    +0.037 C 
ATOM      4  C   UNL     1       0.106  -3.314  -4.813  0.00  0.00    +0.005 C 
ATOM      5  C   UNL     1      -0.607  -4.623  -5.089  0.00  0.00    +0.001 C 
ATOM      6  C   UNL     1       0.015  -5.744  -4.249  0.00  0.00    +0.009 C 
ATOM      7  C   UNL     1       1.533  -5.672  -4.393  0.00  0.00    +0.036 C 
ATOM      8  C   UNL     1       1.926  -5.635  -5.847  0.00  0.00    -0.040 A 
ATOM      9  C   UNL     1       3.239  -5.953  -6.169  0.00  0.00    +0.049 A 
ATOM     10  C   UNL     1       3.663  -5.932  -7.487  0.00  0.00    +0.117 A 
ATOM     11  C   UNL     1       2.769  -5.590  -8.491  0.00  0.00    +0.046 A 
ATOM     12  C   UNL     1       1.466  -5.277  -8.168  0.00  0.00    +0.008 A 
ATOM     13  C   UNL     1       1.038  -5.300  -6.845  0.00  0.00    -0.041 A 
ATOM     14  C   UNL     1      -0.417  -4.951  -6.574  0.00  0.00    +0.023 C 
ATOM     15  C   UNL     1      -0.894  -3.824  -7.481  0.00  0.00    +0.009 C 
ATOM     16  C   UNL     1      -0.257  -2.477  -7.103  0.00  0.00    +0.010 C 
ATOM     17  C   UNL     1      -0.601  -2.212  -5.649  0.00  0.00    +0.001 C 
ATOM     18  C   UNL     1      -0.009  -0.943  -5.034  0.00  0.00    +0.147 C 
ATOM     19  C   UNL     1      -2.116  -2.268  -5.442  0.00  0.00    +0.014 C 
ENDROOT
BRANCH   1  22
ATOM     20  C   UNL     1      -0.018   1.503   0.010  0.00  0.00    +0.068 C 
ATOM     21  C   UNL     1       0.002  -0.004   0.002  0.00  0.00    +0.067 A 
ATOM     22  C   UNL     1       0.008  -0.826  -1.144  0.00  0.00    +0.015 A 
ATOM     23  C   UNL     1       0.028  -2.124  -0.718  0.00  0.00    +0.116 A 
ATOM     24  N   UNL     1       0.034  -2.111   0.630  0.00  0.00    -0.274 N 
ATOM     25  N   UNL     1       0.023  -0.777   1.055  0.00  0.00    -0.176 NA
ATOM     26  C   UNL     1       0.053  -3.289   1.500  0.00  0.00    +0.172 C 
ENDBRANCH   1  22
BRANCH  18  27
ATOM     27  O   UNL     1       1.319  -0.725  -5.515  0.00  0.00    -0.387 OA
ATOM     28  H   UNL     1       1.768   0.026  -5.103  0.00  0.00    +0.210 HD
ENDBRANCH  18  27
BRANCH  10  29
ATOM     29  O   UNL     1       4.949  -6.245  -7.795  0.00  0.00    -0.507 OA
ATOM     30  H   UNL     1       5.094  -7.185  -7.971  0.00  0.00    +0.292 HD
ENDBRANCH  10  29
TORSDOF 3
