REMARK  Name = ZINC13546501
REMARK  7 active torsions:
REMARK  status: ('A' for Active; 'I' for Inactive)
REMARK    1  A    between atoms: C_1  and  C_2
REMARK    2  A    between atoms: C_4  and  C_18
REMARK    3  A    between atoms: C_5  and  C_17
REMARK    4  A    between atoms: N_6  and  C_7
REMARK    5  A    between atoms: C_10  and  S_13
REMARK    6  A    between atoms: S_13  and  N_16
REMARK    7  A    between atoms: N_24  and  C_25
REMARK                            x       y       z     vdW  Elec       q    Type
REMARK                         _______ _______ _______ _____ _____    ______ ____
ROOT
ATOM      1  C   UNL     1      -0.018   1.503   0.010  0.00  0.00    +0.064 C 
ATOM      2  C   UNL     1       0.002  -0.004   0.002  0.00  0.00    +0.022 A 
ATOM      3  C   UNL     1       0.008  -0.777  -1.098  0.00  0.00    +0.031 A 
ATOM      4  C   UNL     1       0.029  -2.169  -0.632  0.00  0.00    -0.003 A 
ATOM      5  C   UNL     1       0.034  -2.110   0.747  0.00  0.00    +0.028 A 
ATOM      6  N   UNL     1       0.023  -0.802   1.111  0.00  0.00    -0.317 N 
ATOM      7  C   UNL     1       0.053  -3.290   1.685  0.00  0.00    +0.064 C 
ENDROOT
BRANCH   4   8
ATOM      8  C   UNL     1       0.041  -3.378  -1.464  0.00  0.00    +0.030 C 
ATOM      9  C   UNL     1       0.034  -3.271  -2.818  0.00  0.00    +0.078 C 
ATOM     10  C   UNL     1       0.038  -4.331  -3.839  0.00  0.00    +0.256 C 
ATOM     11  O   UNL     1       0.049  -5.509  -3.531  0.00  0.00    -0.269 OA
ATOM     12  N   UNL     1       0.029  -3.948  -5.104  0.00  0.00    -0.260 N 
ATOM     13  C   UNL     1       0.017  -2.610  -5.433  0.00  0.00    +0.166 C 
ATOM     14  N   UNL     1       0.006  -2.061  -6.627  0.00  0.00    -0.226 NA
ATOM     15  S   UNL     1       0.010  -1.804  -3.839  0.00  0.00    -0.049 S 
ATOM     16  H   UNL     1       0.031  -4.616  -5.808  0.00  0.00    +0.157 HD
BRANCH  14  17
ATOM     17  C   UNL     1       0.007  -2.852  -7.744  0.00  0.00    +0.067 A 
ATOM     18  C   UNL     1       0.865  -3.951  -7.825  0.00  0.00    +0.029 A 
ATOM     19  C   UNL     1       0.860  -4.745  -8.953  0.00  0.00    +0.022 A 
ATOM     20  C   UNL     1       0.007  -4.454 -10.004  0.00  0.00    +0.041 A 
ATOM     21  C   UNL     1      -0.846  -3.365  -9.930  0.00  0.00    +0.022 A 
ATOM     22  C   UNL     1      -0.855  -2.567  -8.805  0.00  0.00    +0.029 A 
ATOM     23 CL   UNL     1       0.007  -5.457 -11.421  0.00  0.00    -0.084 Cl
ENDBRANCH  14  17
ENDBRANCH   4   8
BRANCH   6  24
ATOM     24  C   UNL     1       0.030  -0.337   2.433  0.00  0.00    +0.047 A 
ATOM     25  C   UNL     1       1.133  -0.566   3.245  0.00  0.00    +0.028 A 
ATOM     26  C   UNL     1       1.137  -0.107   4.548  0.00  0.00    +0.030 A 
ATOM     27  C   UNL     1       0.044   0.580   5.044  0.00  0.00    +0.105 A 
ATOM     28  C   UNL     1      -1.056   0.809   4.237  0.00  0.00    +0.030 A 
ATOM     29  C   UNL     1      -1.063   0.358   2.932  0.00  0.00    +0.028 A 
BRANCH  27  30
ATOM     30  S   UNL     1       0.052   1.163   6.706  0.00  0.00    +0.056 S 
ATOM     31  O   UNL     1      -1.308   1.298   7.096  0.00  0.00    -0.153 OA
ATOM     32  O   UNL     1       0.971   0.346   7.419  0.00  0.00    -0.153 OA
BRANCH  30  33
ATOM     33  N   UNL     1       0.693   2.690   6.686  0.00  0.00    -0.204 NA
ATOM     34  H   UNL     1       0.977   3.086   5.848  0.00  0.00    +0.144 HD
ATOM     35  H   UNL     1       0.784   3.188   7.514  0.00  0.00    +0.144 HD
ENDBRANCH  30  33
ENDBRANCH  27  30
ENDBRANCH   6  24
TORSDOF 5
