REMARK  Name = ZINC64640302
REMARK  9 active torsions:
REMARK  status: ('A' for Active; 'I' for Inactive)
REMARK    1  A    between atoms: C_1  and  O_2
REMARK    2  A    between atoms: O_2  and  C_3
REMARK    3  A    between atoms: C_3  and  C_5
REMARK    4  A    between atoms: C_5  and  C_6
REMARK    5  A    between atoms: C_6  and  C_7
REMARK    6  A    between atoms: C_7  and  C_8
REMARK    7  A    between atoms: C_23  and  C_25
REMARK    8  A    between atoms: C_28  and  S_31
REMARK    9  A    between atoms: S_31  and  C_32
REMARK                            x       y       z     vdW  Elec       q    Type
REMARK                         _______ _______ _______ _____ _____    ______ ____
ROOT
ATOM      1  C   UNL     1      -4.251  -4.520  -0.001  0.00  0.00    +0.216 C 
ATOM      2  O   UNL     1      -5.163  -3.721   0.033  0.00  0.00    -0.276 OA
ATOM      3  N   UNL     1      -4.513  -5.842  -0.009  0.00  0.00    -0.292 N 
ATOM      4  C   UNL     1      -3.405  -6.801  -0.044  0.00  0.00    +0.113 C 
ATOM      5  C   UNL     1      -3.497  -7.737   1.176  0.00  0.00    +0.052 C 
ATOM      6  C   UNL     1      -4.939  -8.168   1.282  0.00  0.00    -0.035 C 
ATOM      7  C   UNL     1      -5.491  -9.371   1.377  0.00  0.00    -0.001 A 
ATOM      8  C   UNL     1      -4.900 -10.711   1.523  0.00  0.00    +0.010 A 
ATOM      9  C   UNL     1      -5.775 -11.750   1.572  0.00  0.00    +0.001 A 
ATOM     10  C   UNL     1      -7.162 -11.593   1.489  0.00  0.00    +0.002 A 
ATOM     11  C   UNL     1      -7.791 -10.398   1.361  0.00  0.00    +0.026 A 
ATOM     12  C   UNL     1      -6.977  -9.229   1.308  0.00  0.00    +0.043 A 
ATOM     13  N   UNL     1      -7.310  -7.976   1.214  0.00  0.00    -0.375 N 
ATOM     14  C   UNL     1      -6.090  -7.169   1.273  0.00  0.00    +0.131 C 
ATOM     15  C   UNL     1      -5.909  -6.307   0.025  0.00  0.00    +0.133 C 
ATOM     16  H   UNL     1      -8.213  -7.634   1.121  0.00  0.00    +0.160 HD
ENDROOT
BRANCH  15  17
ATOM     17  C   UNL     1      -6.203  -7.128  -1.205  0.00  0.00    -0.025 A 
ATOM     18  C   UNL     1      -5.438  -8.245  -1.488  0.00  0.00    +0.006 A 
ATOM     19  C   UNL     1      -5.705  -8.999  -2.614  0.00  0.00    +0.015 A 
ATOM     20  C   UNL     1      -6.742  -8.634  -3.463  0.00  0.00    +0.008 A 
ATOM     21  C   UNL     1      -7.509  -7.511  -3.175  0.00  0.00    +0.015 A 
ATOM     22  C   UNL     1      -7.240  -6.765  -2.045  0.00  0.00    +0.006 A 
BRANCH  20  23
ATOM     23  S   UNL     1      -7.085  -9.592  -4.901  0.00  0.00    -0.129 S 
ATOM     24  C   UNL     1      -8.491  -8.742  -5.670  0.00  0.00    +0.090 C 
ENDBRANCH  20  23
ENDBRANCH  15  17
BRANCH   1  25
ATOM     25  C   UNL     1      -2.825  -4.035  -0.035  0.00  0.00    +0.096 C 
BRANCH  25  26
ATOM     26  C   UNL     1      -2.806  -2.505  -0.018  0.00  0.00    +0.020 C 
BRANCH  26  27
ATOM     27  C   UNL     1      -1.358  -2.012  -0.053  0.00  0.00    +0.121 C 
BRANCH  27  28
ATOM     28  C   UNL     1      -1.339  -0.505  -0.036  0.00  0.00    +0.307 C 
ATOM     29  O   UNL     1      -2.378   0.111  -0.001  0.00  0.00    -0.251 OA
BRANCH  28  31
ATOM     30  C   UNL     1      -0.227   1.580  -0.043  0.00  0.00    +0.280 C 
ATOM     31  O   UNL     1      -0.169   0.152  -0.061  0.00  0.00    -0.468 OA
ENDBRANCH  28  31
ENDBRANCH  27  28
ENDBRANCH  26  27
ENDBRANCH  25  26
ENDBRANCH   1  25
TORSDOF 7
