REMARK  Name = ZINC43919176
REMARK  13 active torsions:
REMARK  status: ('A' for Active; 'I' for Inactive)
REMARK    1  A    between atoms: C_1  and  C_2
REMARK    2  A    between atoms: C_2  and  C_4
REMARK    3  A    between atoms: C_2  and  C_10
REMARK    4  A    between atoms: C_4  and  C_5
REMARK    5  A    between atoms: C_5  and  C_6
REMARK    6  A    between atoms: C_6  and  C_7
REMARK    7  A    between atoms: C_7  and  C_8
REMARK    8  A    between atoms: C_7  and  C_9
REMARK    9  A    between atoms: C_16  and  C_37
REMARK   10  A    between atoms: C_24  and  O_36
REMARK   11  A    between atoms: C_26  and  O_35
REMARK   12  A    between atoms: C_27  and  C_34
REMARK   13  A    between atoms: C_30  and  O_33
REMARK                            x       y       z     vdW  Elec       q    Type
REMARK                         _______ _______ _______ _____ _____    ______ ____
ROOT
ATOM      1  C   UNL     1       1.181  -0.513  -0.773  0.00  0.00    -0.002 C 
ATOM      2  C   UNL     1       1.324  -1.878  -0.048  0.00  0.00    +0.004 C 
ATOM      3  C   UNL     1       0.782  -2.956  -1.030  0.00  0.00    +0.004 C 
ATOM      4  C   UNL     1      -0.039  -2.113  -2.024  0.00  0.00    -0.001 C 
ATOM      5  C   UNL     1       0.892  -0.906  -2.237  0.00  0.00    -0.026 C 
ATOM      6  C   UNL     1       0.234   0.131  -3.100  0.00  0.00    +0.007 C 
ATOM      7  C   UNL     1      -0.455  -0.495  -4.322  0.00  0.00    +0.005 C 
ATOM      8  C   UNL     1      -0.110  -1.957  -4.522  0.00  0.00    +0.001 C 
ATOM      9  C   UNL     1      -0.420  -2.817  -3.308  0.00  0.00    -0.001 C 
ATOM     10  C   UNL     1      -1.923  -3.122  -3.220  0.00  0.00    +0.038 C 
ATOM     11  C   UNL     1      -2.426  -3.781  -4.500  0.00  0.00    +0.147 C 
ATOM     12  C   UNL     1      -2.196  -2.820  -5.670  0.00  0.00    +0.100 C 
ATOM     13  C   UNL     1      -0.710  -2.525  -5.809  0.00  0.00    +0.002 C 
ATOM     14  C   UNL     1      -0.504  -1.534  -6.960  0.00  0.00    +0.012 C 
ATOM     15  C   UNL     1      -1.028  -2.125  -8.266  0.00  0.00    +0.032 C 
ATOM     16  C   UNL     1      -2.501  -2.505  -8.146  0.00  0.00    +0.117 C 
ATOM     17  C   UNL     1      -2.742  -3.433  -6.959  0.00  0.00    +0.069 C 
ATOM     18  C   UNL     1       0.058  -3.814  -6.142  0.00  0.00    +0.014 C 
ATOM     19  C   UNL     1       2.253  -1.312  -2.821  0.00  0.00    +0.012 C 
ENDROOT
BRANCH   1  21
ATOM     20  C   UNL     1       0.455   0.770   1.237  0.00  0.00    +0.008 C 
ATOM     21  C   UNL     1       0.044   0.292  -0.157  0.00  0.00    -0.010 C 
BRANCH  21  22
ATOM     22  C   UNL     1      -1.202  -0.588  -0.048  0.00  0.00    +0.003 C 
BRANCH  22  23
ATOM     23  C   UNL     1      -2.151  -0.001   1.000  0.00  0.00    +0.001 C 
BRANCH  23  24
ATOM     24  C   UNL     1      -3.397  -0.881   1.110  0.00  0.00    +0.003 C 
BRANCH  24  25
ATOM     25  C   UNL     1      -4.345  -0.294   2.158  0.00  0.00    -0.017 C 
ATOM     26  C   UNL     1      -4.852   1.068   1.681  0.00  0.00    +0.007 C 
ATOM     27  C   UNL     1      -5.532  -1.239   2.357  0.00  0.00    +0.007 C 
ENDBRANCH  24  25
ENDBRANCH  23  24
ENDBRANCH  22  23
ENDBRANCH  21  22
ENDBRANCH   1  21
BRANCH  16  28
ATOM     28  O   UNL     1      -3.297  -1.325  -8.018  0.00  0.00    -0.392 OA
ATOM     29  H   UNL     1      -3.224  -0.718  -8.767  0.00  0.00    +0.210 HD
ENDBRANCH  16  28
BRANCH  12  30
ATOM     30  O   UNL     1      -2.911  -1.604  -5.406  0.00  0.00    -0.385 OA
ATOM     31  H   UNL     1      -3.865  -1.723  -5.306  0.00  0.00    +0.210 HD
ENDBRANCH  12  30
BRANCH  11  32
ATOM     32  O   UNL     1      -3.832  -4.033  -4.374  0.00  0.00    -0.389 OA
ATOM     33  H   UNL     1      -4.062  -4.616  -3.638  0.00  0.00    +0.210 HD
ENDBRANCH  11  32
TORSDOF 8
