REMARK  Name = ZINC09793608
REMARK  13 active torsions:
REMARK  status: ('A' for Active; 'I' for Inactive)
REMARK    1  A    between atoms: C_1  and  C_2
REMARK    2  A    between atoms: C_4  and  C_14
REMARK    3  A    between atoms: C_5  and  C_13
REMARK    4  A    between atoms: N_6  and  C_7
REMARK    5  A    between atoms: C_7  and  C_8
REMARK    6  A    between atoms: C_8  and  C_9
REMARK    7  A    between atoms: C_9  and  O_11
REMARK    8  A    between atoms: O_11  and  C_12
REMARK    9  A    between atoms: C_14  and  C_16
REMARK   10  A    between atoms: C_16  and  S_17
REMARK   11  A    between atoms: S_17  and  C_18
REMARK   12  A    between atoms: C_21  and  S_24
REMARK   13  A    between atoms: S_24  and  N_27
REMARK                            x       y       z     vdW  Elec       q    Type
REMARK                         _______ _______ _______ _____ _____    ______ ____
ROOT
ATOM      1  C   UNL     1       2.588  -0.105  -7.063  0.00  0.00    +0.155 C 
ENDROOT
BRANCH   1   2
ATOM      2  C   UNL     1       3.436  -0.133  -8.308  0.00  0.00    +0.175 C 
ATOM      3  O   UNL     1       4.197  -1.058  -8.503  0.00  0.00    -0.291 OA
BRANCH   2   7
ATOM      4  C   UNL     1       2.067   4.172 -10.666  0.00  0.00    +0.063 C 
ATOM      5  C   UNL     1       2.725   2.863 -10.312  0.00  0.00    +0.017 A 
ATOM      6  C   UNL     1       2.475   2.139  -9.207  0.00  0.00    +0.034 A 
ATOM      7  C   UNL     1       3.342   0.956  -9.283  0.00  0.00    +0.039 A 
ATOM      8  C   UNL     1       4.046   1.078 -10.466  0.00  0.00    +0.026 A 
ATOM      9  N   UNL     1       3.665   2.220 -11.065  0.00  0.00    -0.347 N 
ATOM     10  C   UNL     1       5.065   0.101 -10.994  0.00  0.00    +0.064 C 
BRANCH   9  11
ATOM     11  C   UNL     1       4.186   2.707 -12.345  0.00  0.00    +0.133 C 
BRANCH  11  12
ATOM     12  C   UNL     1       3.323   2.164 -13.486  0.00  0.00    +0.142 C 
BRANCH  12  13
ATOM     13  C   UNL     1       3.858   2.665 -14.803  0.00  0.00    +0.309 C 
ATOM     14  O   UNL     1       4.830   3.382 -14.826  0.00  0.00    -0.251 OA
BRANCH  13  15
ATOM     15  O   UNL     1       3.256   2.313 -15.949  0.00  0.00    -0.468 OA
ATOM     16  C   UNL     1       3.826   2.833 -17.180  0.00  0.00    +0.280 C 
ENDBRANCH  13  15
ENDBRANCH  12  13
ENDBRANCH  11  12
ENDBRANCH   9  11
ENDBRANCH   2   7
ENDBRANCH   1   2
BRANCH   1  17
ATOM     17  S   UNL     1       2.930  -1.580  -6.065  0.00  0.00    -0.098 S 
BRANCH  17  18
ATOM     18  C   UNL     1       1.876  -1.402  -4.664  0.00  0.00    +0.097 A 
ATOM     19  C   UNL     1       1.879  -2.376  -3.670  0.00  0.00    +0.037 A 
ATOM     20  C   UNL     1       1.047  -2.223  -2.576  0.00  0.00    +0.032 A 
ATOM     21  C   UNL     1       0.236  -1.096  -2.513  0.00  0.00    +0.124 A 
ATOM     22  C   UNL     1       0.280  -0.173  -3.538  0.00  0.00    +0.140 A 
ATOM     23  N   UNL     1       1.088  -0.342  -4.567  0.00  0.00    -0.247 NA
BRANCH  21  24
ATOM     24  S   UNL     1      -0.843  -0.853  -1.141  0.00  0.00    +0.062 S 
ATOM     25  O   UNL     1      -1.095  -2.138  -0.589  0.00  0.00    -0.153 OA
ATOM     26  O   UNL     1      -1.887   0.000  -1.592  0.00  0.00    -0.153 OA
BRANCH  24  27
ATOM     27  N   UNL     1       0.002  -0.004   0.002  0.00  0.00    -0.177 NA
ATOM     28  C   UNL     1      -0.018   1.465   0.010  0.00  0.00    +0.109 C 
ATOM     29  C   UNL     1       1.426   1.978  -0.001  0.00  0.00    +0.017 C 
ATOM     30  C   UNL     1       2.194   1.353   1.166  0.00  0.00    +0.003 C 
ATOM     31  C   UNL     1       2.220  -0.169   1.005  0.00  0.00    +0.017 C 
ATOM     32  C   UNL     1       0.786  -0.706   1.028  0.00  0.00    +0.109 C 
ENDBRANCH  24  27
ENDBRANCH  21  24
ENDBRANCH  17  18
ENDBRANCH   1  17
TORSDOF 10
