REMARK  Name = ZINC09501160
REMARK  7 active torsions:
REMARK  status: ('A' for Active; 'I' for Inactive)
REMARK    1  A    between atoms: C_4  and  C_7
REMARK    2  A    between atoms: C_7  and  S_8
REMARK    3  A    between atoms: S_8  and  N_11
REMARK    4  A    between atoms: C_16  and  C_17
REMARK    5  A    between atoms: C_16  and  N_60
REMARK    6  A    between atoms: C_20  and  C_30
REMARK    7  A    between atoms: C_23  and  C_25
REMARK                            x       y       z     vdW  Elec       q    Type
REMARK                         _______ _______ _______ _____ _____    ______ ____
ROOT
ATOM      1  C   UNL     1       8.781  -3.543   0.563  0.00  0.00    +0.021 C 
ENDROOT
BRANCH   1   7
ATOM      2  N   UNL     1       5.664  -1.800  -1.642  0.00  0.00    -0.184 NA
ATOM      3  C   UNL     1       6.938  -1.066  -1.597  0.00  0.00    +0.090 C 
ATOM      4  C   UNL     1       7.743  -1.573  -0.390  0.00  0.00    -0.061 C 
ATOM      5  C   UNL     1       6.559  -3.690  -0.390  0.00  0.00    -0.061 C 
ATOM      6  C   UNL     1       5.705  -3.269  -1.590  0.00  0.00    +0.090 C 
ATOM      7  N   UNL     1       7.884  -3.042  -0.500  0.00  0.00    +0.387 N 
ATOM      8  H   UNL     1       8.291  -3.269  -1.415  0.00  0.00    -0.081 HD
BRANCH   2   9
ATOM      9  S   UNL     1       4.222  -0.993  -1.756  0.00  0.00    +0.036 S 
ATOM     10  O   UNL     1       3.339  -1.914  -2.382  0.00  0.00    -0.158 OA
ATOM     11  O   UNL     1       4.545   0.241  -2.382  0.00  0.00    -0.158 OA
BRANCH   9  12
ATOM     12  C   UNL     1       3.711  -0.707  -0.039  0.00  0.00    +0.220 C 
BRANCH  12  16
ATOM     13  C   UNL     1      -0.017   1.378   0.010  0.00  0.00    +0.000 A 
ATOM     14  C   UNL     1       1.171   2.086   0.002  0.00  0.00    +0.000 A 
ATOM     15  C   UNL     1       2.377   1.411  -0.014  0.00  0.00    +0.005 A 
ATOM     16  C   UNL     1       2.396   0.029  -0.022  0.00  0.00    -0.025 A 
ATOM     17  C   UNL     1       1.208  -0.679  -0.014  0.00  0.00    +0.005 A 
ATOM     18  C   UNL     1       0.002  -0.004   0.002  0.00  0.00    +0.000 A 
ENDBRANCH  12  16
ENDBRANCH   9  12
ENDBRANCH   2   9
ENDBRANCH   1   7
BRANCH   1  19
ATOM     19  C   UNL     1      10.176  -3.038   0.298  0.00  0.00    +0.219 C 
ATOM     20  O   UNL     1      10.391  -2.324  -0.659  0.00  0.00    -0.276 OA
ATOM     21  N   UNL     1      11.184  -3.378   1.126  0.00  0.00    -0.184 N 
ATOM     22  C   UNL     1      12.586  -2.957   0.984  0.00  0.00    +0.172 C 
ATOM     23  C   UNL     1      13.289  -3.625   2.182  0.00  0.00    +0.090 C 
ATOM     24  C   UNL     1      12.178  -4.370   2.887  0.00  0.00    +0.075 C 
ATOM     25  N   UNL     1      11.066  -4.183   2.257  0.00  0.00    -0.180 NA
BRANCH  24  26
ATOM     26  C   UNL     1      12.337  -5.176   4.102  0.00  0.00    +0.035 A 
ATOM     27  C   UNL     1      11.381  -5.882   4.812  0.00  0.00    +0.017 A 
ATOM     28  C   UNL     1      11.778  -6.574   5.933  0.00  0.00    +0.008 A 
ATOM     29  C   UNL     1      13.083  -6.534   6.311  0.00  0.00    +0.046 A 
ATOM     30  S   UNL     1      13.812  -5.496   5.056  0.00  0.00    -0.095 S 
ENDBRANCH  24  26
BRANCH  22  31
ATOM     31  C   UNL     1      13.162  -3.458  -0.315  0.00  0.00    +0.128 A 
ATOM     32  C   UNL     1      14.007  -2.781  -1.114  0.00  0.00    +0.046 A 
ATOM     33  C   UNL     1      14.289  -3.621  -2.216  0.00  0.00    +0.041 A 
ATOM     34  C   UNL     1      13.600  -4.760  -2.025  0.00  0.00    +0.195 A 
ATOM     35  O   UNL     1      12.924  -4.658  -0.869  0.00  0.00    -0.466 OA
ENDBRANCH  22  31
ENDBRANCH   1  19
TORSDOF 7
