REMARK  Name = ZINC65408145
REMARK  3 active torsions:
REMARK  status: ('A' for Active; 'I' for Inactive)
REMARK    1  A    between atoms: C_7  and  C_11
REMARK    2  A    between atoms: C_11  and  C_12
REMARK    3  A    between atoms: C_12  and  N_13
REMARK                            x       y       z     vdW  Elec       q    Type
REMARK                         _______ _______ _______ _____ _____    ______ ____
ROOT
ATOM      1  N   UNL     1       1.882  -5.254   0.226  0.00  0.00    -0.282 N 
ATOM      2  C   UNL     1       0.814  -5.872  -0.553  0.00  0.00    +0.213 C 
ATOM      3  N   UNL     1       1.260  -6.178  -1.924  0.00  0.00    -0.322 N 
ATOM      4  C   UNL     1       2.551  -6.627  -2.069  0.00  0.00    +0.079 A 
ATOM      5  C   UNL     1       3.557  -6.348  -1.132  0.00  0.00    +0.068 A 
ATOM      6  H   UNL     1       0.672  -6.068  -2.687  0.00  0.00    +0.148 HD
ATOM      7  C   UNL     1       3.189  -5.543   0.054  0.00  0.00    +0.250 C 
ATOM      8  O   UNL     1       4.031  -5.161   0.846  0.00  0.00    -0.270 OA
ATOM      9  C   UNL     1       4.867  -6.888  -1.443  0.00  0.00    -0.027 A 
ATOM     10  C   UNL     1       4.928  -7.593  -2.597  0.00  0.00    -0.022 A 
ATOM     11  S   UNL     1       3.283  -7.538  -3.248  0.00  0.00    -0.080 S 
ATOM     12  C   UNL     1       6.143  -8.257  -3.164  0.00  0.00    -0.039 C 
ATOM     13  N   UNL     1       7.331  -7.710  -2.483  0.00  0.00    +0.382 N 
ATOM     14  C   UNL     1       7.136  -7.772  -1.028  0.00  0.00    -0.077 C 
ATOM     15  C   UNL     1       6.115  -6.719  -0.587  0.00  0.00    +0.017 C 
ATOM     16  H   UNL     1       8.143  -8.253  -2.737  0.00  0.00    -0.085 HD
ATOM     17  H   UNL     1       7.467  -6.751  -2.763  0.00  0.00    -0.085 HD
ENDROOT
BRANCH   1  18
ATOM     18  C   UNL     1       1.517  -4.264   1.242  0.00  0.00    +0.112 C 
BRANCH  18  19
ATOM     19  C   UNL     1       1.493  -2.870   0.612  0.00  0.00    +0.052 C 
BRANCH  19  26
ATOM     20  C   UNL     1      -0.019   1.531   0.011  0.00  0.00    +0.005 C 
ATOM     21  C   UNL     1       1.421   2.054  -0.001  0.00  0.00    +0.006 C 
ATOM     22  C   UNL     1       2.091   1.749   1.343  0.00  0.00    +0.057 C 
ATOM     23  C   UNL     1       1.886   0.284   1.661  0.00  0.00    +0.064 C 
ATOM     24  C   UNL     1       0.961  -0.469   1.058  0.00  0.00    -0.021 C 
ATOM     25  C   UNL     1       0.002  -0.004   0.002  0.00  0.00    +0.035 C 
ATOM     26  C   UNL     1       1.112  -1.836   1.673  0.00  0.00    +0.157 C 
ATOM     27  N   UNL     1       2.214  -1.637   2.635  0.00  0.00    -0.180 NA
ATOM     28  N   UNL     1       2.572  -0.457   2.560  0.00  0.00    -0.158 NA
ENDBRANCH  19  26
ENDBRANCH  18  19
ENDBRANCH   1  18
TORSDOF 3
