REMARK  Name = ZINC32331934
REMARK  4 active torsions:
REMARK  status: ('A' for Active; 'I' for Inactive)
REMARK    1  A    between atoms: C_7  and  C_11
REMARK    2  A    between atoms: C_11  and  S_12
REMARK    3  A    between atoms: S_12  and  C_13
REMARK    4  A    between atoms: C_17  and  N_19
REMARK                            x       y       z     vdW  Elec       q    Type
REMARK                         _______ _______ _______ _____ _____    ______ ____
ROOT
ATOM      1  S   UNL     1       2.981   0.725  -1.729  0.00  0.00    -0.081 S 
ENDROOT
BRANCH   1   2
ATOM      2  C   UNL     1       4.493  -0.137  -1.458  0.00  0.00    +0.192 A 
ATOM      3  N   UNL     1       4.895  -0.360  -0.215  0.00  0.00    -0.207 NA
ATOM      4  C   UNL     1       6.030  -1.012   0.027  0.00  0.00    +0.122 A 
ATOM      5  C   UNL     1       6.801  -1.452  -1.045  0.00  0.00    +0.086 A 
ATOM      6  C   UNL     1       6.349  -1.194  -2.336  0.00  0.00    +0.122 A 
ATOM      7  N   UNL     1       5.202  -0.541  -2.502  0.00  0.00    -0.207 NA
ATOM      8  N   UNL     1       6.440  -1.247   1.330  0.00  0.00    -0.343 N 
ATOM      9  H   UNL     1       7.379  -1.787   1.522  0.00  0.00    +0.144 HD
ATOM     10  H   UNL     1       5.827  -0.892   2.172  0.00  0.00    +0.144 HD
BRANCH   6  11
ATOM     11  N   UNL     1       7.084  -1.614  -3.434  0.00  0.00    -0.343 N 
ATOM     12  H   UNL     1       6.720  -1.407  -4.451  0.00  0.00    +0.144 HD
ATOM     13  H   UNL     1       8.031  -2.154  -3.288  0.00  0.00    +0.144 HD
ENDBRANCH   6  11
ENDBRANCH   1   2
BRANCH   1  14
ATOM     14  C   UNL     1       2.473   1.015  -0.016  0.00  0.00    +0.114 C 
BRANCH  14  21
ATOM     15  C   UNL     1       1.102   5.905   0.021  0.00  0.00    +0.020 A 
ATOM     16  C   UNL     1      -0.099   5.253   0.030  0.00  0.00    +0.014 A 
ATOM     17  C   UNL     1      -0.090   3.847   0.023  0.00  0.00    +0.036 A 
ATOM     18  C   UNL     1      -1.286   3.107   0.030  0.00  0.00    +0.133 A 
ATOM     19  C   UNL     1      -1.235   1.744   0.017  0.00  0.00    +0.039 A 
ATOM     20  C   UNL     1      -0.013   1.076   0.008  0.00  0.00    +0.009 A 
ATOM     21  C   UNL     1       1.163   1.761   0.000  0.00  0.00    -0.011 A 
ATOM     22  C   UNL     1       1.153   3.167   0.008  0.00  0.00    +0.078 A 
ATOM     23  N   UNL     1       2.293   3.865   0.000  0.00  0.00    -0.255 NA
ATOM     24  C   UNL     1       2.289   5.176   0.006  0.00  0.00    +0.111 A 
ATOM     25  F   UNL     1      -2.479   3.742   0.044  0.00  0.00    -0.205 F 
ENDBRANCH  14  21
ENDBRANCH   1  14
TORSDOF 4
