REMARK  Name = ZINC39635944
REMARK  5 active torsions:
REMARK  status: ('A' for Active; 'I' for Inactive)
REMARK    1  A    between atoms: C_1  and  C_2
REMARK    2  A    between atoms: C_8  and  N_10
REMARK    3  A    between atoms: C_11  and  C_13
REMARK    4  A    between atoms: C_24  and  C_26
REMARK    5  A    between atoms: N_30  and  C_31
REMARK                            x       y       z     vdW  Elec       q    Type
REMARK                         _______ _______ _______ _____ _____    ______ ____
ROOT
ATOM      1  C   UNL     1       0.470   1.282   4.207  0.00  0.00    +0.100 C 
ATOM      2  C   UNL     1      -0.041   2.729   4.391  0.00  0.00    +0.121 C 
ATOM      3  N   UNL     1      -0.008   2.954   5.856  0.00  0.00    -0.295 N 
ATOM      4  C   UNL     1       1.239   2.289   6.303  0.00  0.00    +0.115 C 
ATOM      5  C   UNL     1       1.310   0.998   5.464  0.00  0.00    -0.004 C 
ATOM      6  C   UNL     1       2.756   0.700   5.077  0.00  0.00    -0.010 C 
ATOM      7  C   UNL     1       3.558   0.363   6.337  0.00  0.00    -0.082 C 
ATOM      8  N   UNL     1       2.959  -0.800   7.003  0.00  0.00    +0.379 N 
ATOM      9  C   UNL     1       1.601  -0.474   7.455  0.00  0.00    -0.082 C 
ATOM     10  C   UNL     1       0.717  -0.172   6.243  0.00  0.00    -0.010 C 
ATOM     11  C   UNL     1      -0.909   3.615   6.610  0.00  0.00    +0.263 C 
ATOM     12  O   UNL     1      -0.650   3.886   7.768  0.00  0.00    -0.268 OA
ATOM     13  H   UNL     1       2.921  -1.574   6.357  0.00  0.00    -0.086 HD
ATOM     14  H   UNL     1       3.524  -1.058   7.799  0.00  0.00    -0.086 HD
ENDROOT
BRANCH  11  15
ATOM     15  C   UNL     1      -2.200   4.006   6.036  0.00  0.00    +0.104 A 
ATOM     16  C   UNL     1      -2.776   3.488   4.895  0.00  0.00    +0.032 A 
ATOM     17  C   UNL     1      -3.998   4.144   4.717  0.00  0.00    +0.020 A 
ATOM     18  C   UNL     1      -4.144   5.032   5.729  0.00  0.00    +0.086 A 
ATOM     19  N   UNL     1      -3.061   4.954   6.541  0.00  0.00    -0.346 N 
ATOM     20  C   UNL     1      -2.842   5.749   7.752  0.00  0.00    +0.149 C 
ENDBRANCH  11  15
BRANCH   1  22
ATOM     21  N   UNL     1       1.477  -0.007   2.352  0.00  0.00    -0.312 N 
ATOM     22  C   UNL     1       1.325   1.181   2.970  0.00  0.00    +0.218 C 
ATOM     23  O   UNL     1       1.876   2.168   2.532  0.00  0.00    -0.275 OA
ATOM     24  H   UNL     1       1.037  -0.796   2.703  0.00  0.00    +0.149 HD
BRANCH  21  31
ATOM     25  C   UNL     1       0.390  -1.112  -0.094  0.00  0.00    +0.009 C 
ATOM     26  C   UNL     1       1.853  -1.301   0.311  0.00  0.00    +0.006 C 
ATOM     27  C   UNL     1       2.721  -1.404  -0.945  0.00  0.00    +0.005 C 
ATOM     28  C   UNL     1       4.184  -1.593  -0.539  0.00  0.00    +0.000 C 
ATOM     29  C   UNL     1       4.639  -0.397   0.299  0.00  0.00    +0.002 C 
ATOM     30  C   UNL     1       3.772  -0.294   1.555  0.00  0.00    +0.022 C 
ATOM     31  C   UNL     1       2.308  -0.105   1.150  0.00  0.00    +0.076 C 
ENDBRANCH  21  31
ENDBRANCH   1  22
TORSDOF 3
