REMARK  Name = ZINC64538953
REMARK  12 active torsions:
REMARK  status: ('A' for Active; 'I' for Inactive)
REMARK    1  A    between atoms: C_1  and  C_2
REMARK    2  A    between atoms: C_2  and  O_3
REMARK    3  A    between atoms: O_3  and  C_4
REMARK    4  A    between atoms: C_4  and  C_6
REMARK    5  A    between atoms: C_8  and  C_37
REMARK    6  A    between atoms: C_9  and  C_13
REMARK    7  A    between atoms: C_11  and  C_12
REMARK    8  A    between atoms: C_19  and  C_22
REMARK    9  A    between atoms: N_24  and  C_25
REMARK   10  A    between atoms: C_25  and  C_26
REMARK   11  A    between atoms: C_26  and  C_27
REMARK   12  A    between atoms: C_30  and  C_36
REMARK                            x       y       z     vdW  Elec       q    Type
REMARK                         _______ _______ _______ _____ _____    ______ ____
ROOT
ATOM      1  C   UNL     1       3.354  -5.553  -2.412  0.00  0.00    +0.265 C 
ATOM      2  O   UNL     1       2.592  -6.490  -2.271  0.00  0.00    -0.268 OA
ATOM      3  N   UNL     1       4.681  -5.771  -2.500  0.00  0.00    -0.296 N 
ATOM      4  C   UNL     1       5.624  -4.645  -2.538  0.00  0.00    +0.108 C 
ATOM      5  C   UNL     1       6.525  -4.797  -3.767  0.00  0.00    +0.020 C 
ATOM      6  C   UNL     1       7.192  -6.174  -3.738  0.00  0.00    +0.016 C 
ATOM      7  C   UNL     1       6.119  -7.264  -3.788  0.00  0.00    +0.092 C 
ATOM      8  C   UNL     1       5.213  -7.140  -2.553  0.00  0.00    +0.120 C 
ENDROOT
BRANCH   1  11
ATOM      9  C   UNL     1       1.477  -2.345  -2.461  0.00  0.00    +0.169 C 
ATOM     10  C   UNL     1       1.537  -3.850  -2.277  0.00  0.00    -0.023 C 
ATOM     11  C   UNL     1       2.825  -4.176  -2.488  0.00  0.00    +0.126 C 
ATOM     12  N   UNL     1       3.582  -3.082  -2.780  0.00  0.00    -0.250 NA
ATOM     13  C   UNL     1       2.910  -1.979  -2.794  0.00  0.00    +0.034 C 
ATOM     14  C   UNL     1       3.442  -0.599  -3.082  0.00  0.00    +0.062 C 
ATOM     15  C   UNL     1       0.401  -4.778  -1.931  0.00  0.00    +0.042 C 
BRANCH   9  16
ATOM     16  C   UNL     1       1.037  -1.670  -1.188  0.00  0.00    +0.320 C 
ATOM     17  O   UNL     1       0.748  -2.334  -0.220  0.00  0.00    -0.250 OA
BRANCH  16  18
ATOM     18  O   UNL     1       0.966  -0.331  -1.128  0.00  0.00    -0.464 OA
BRANCH  18  20
ATOM     19  C   UNL     1       0.522   1.766  -0.013  0.00  0.00    +0.048 C 
ATOM     20  C   UNL     1       0.541   0.242   0.110  0.00  0.00    +0.229 C 
ENDBRANCH  18  20
ENDBRANCH  16  18
ENDBRANCH   9  16
ENDBRANCH   1  11
BRANCH   7  21
ATOM     21  C   UNL     1       6.778  -8.619  -3.793  0.00  0.00    +0.218 C 
ATOM     22  O   UNL     1       7.988  -8.705  -3.760  0.00  0.00    -0.275 OA
ATOM     23  N   UNL     1       6.024  -9.735  -3.834  0.00  0.00    -0.315 N 
ATOM     24  H   UNL     1       5.057  -9.666  -3.861  0.00  0.00    +0.149 HD
BRANCH  23  25
ATOM     25  C   UNL     1       6.665 -11.052  -3.839  0.00  0.00    +0.108 C 
BRANCH  25  26
ATOM     26  C   UNL     1       5.591 -12.142  -3.889  0.00  0.00    +0.052 C 
BRANCH  26  27
ATOM     27  C   UNL     1       6.251 -13.497  -3.894  0.00  0.00    -0.040 C 
ATOM     28  C   UNL     1       6.486 -14.290  -2.825  0.00  0.00    -0.001 A 
ATOM     29  C   UNL     1       6.210 -14.135  -1.391  0.00  0.00    +0.013 A 
ATOM     30  C   UNL     1       6.572 -15.124  -0.543  0.00  0.00    -0.050 A 
ATOM     31  C   UNL     1       7.202 -16.291  -0.997  0.00  0.00    +0.005 A 
ATOM     32  C   UNL     1       7.489 -16.506  -2.298  0.00  0.00    +0.026 A 
ATOM     33  C   UNL     1       7.152 -15.532  -3.279  0.00  0.00    +0.043 A 
ATOM     34  N   UNL     1       7.323 -15.507  -4.578  0.00  0.00    -0.380 N 
ATOM     35  C   UNL     1       6.777 -14.247  -5.097  0.00  0.00    +0.144 C 
ATOM     36  C   UNL     1       6.290 -14.968   0.929  0.00  0.00    +0.044 C 
ATOM     37  H   UNL     1       7.737 -16.205  -5.108  0.00  0.00    +0.160 HD
ENDBRANCH  26  27
ENDBRANCH  25  26
ENDBRANCH  23  25
ENDBRANCH   7  21
TORSDOF 8
