REMARK  Name = ZINC59739776
REMARK  7 active torsions:
REMARK  status: ('A' for Active; 'I' for Inactive)
REMARK    1  A    between atoms: C_1  and  C_2
REMARK    2  A    between atoms: C_2  and  C_3
REMARK    3  A    between atoms: C_2  and  C_4
REMARK    4  A    between atoms: C_2  and  C_5
REMARK    5  A    between atoms: C_11  and  C_14
REMARK    6  A    between atoms: N_16  and  C_17
REMARK    7  A    between atoms: C_20  and  N_24
REMARK                            x       y       z     vdW  Elec       q    Type
REMARK                         _______ _______ _______ _____ _____    ______ ____
ROOT
ATOM      1  C   UNL     1       0.388  -5.534  -2.480  0.00  0.00    +0.222 C 
ATOM      2  O   UNL     1       1.589  -5.709  -2.497  0.00  0.00    -0.275 OA
ATOM      3  N   UNL     1      -0.419  -6.326  -3.213  0.00  0.00    -0.284 N 
ATOM      4  H   UNL     1      -1.374  -6.160  -3.233  0.00  0.00    +0.155 HD
ENDROOT
BRANCH   1  11
ATOM      5  C   UNL     1       0.693  -1.411  -0.045  0.00  0.00    +0.221 C 
ATOM      6  O   UNL     1       1.578  -1.060  -0.796  0.00  0.00    -0.275 OA
ATOM      7  N   UNL     1       0.326  -2.707   0.006  0.00  0.00    -0.300 N 
ATOM      8  C   UNL     1      -0.680  -3.163   0.975  0.00  0.00    +0.108 C 
ATOM      9  C   UNL     1      -1.786  -3.910   0.223  0.00  0.00    +0.020 C 
ATOM     10  C   UNL     1      -1.162  -5.032  -0.610  0.00  0.00    +0.016 C 
ATOM     11  C   UNL     1      -0.200  -4.432  -1.638  0.00  0.00    +0.093 C 
ATOM     12  C   UNL     1       0.919  -3.689  -0.911  0.00  0.00    +0.120 C 
BRANCH   5  14
ATOM     13  C   UNL     1       0.589   0.991   0.566  0.00  0.00    +0.020 C 
ATOM     14  C   UNL     1       0.003  -0.398   0.833  0.00  0.00    +0.039 C 
ATOM     15  C   UNL     1       0.215  -0.767   2.302  0.00  0.00    +0.020 C 
ATOM     16  C   UNL     1      -1.495  -0.388   0.520  0.00  0.00    +0.020 C 
ENDBRANCH   5  14
ENDBRANCH   1  11
BRANCH   3  17
ATOM     17  C   UNL     1       0.122  -7.388  -3.948  0.00  0.00    +0.052 A 
ATOM     18  C   UNL     1       1.405  -7.843  -3.673  0.00  0.00    +0.027 A 
ATOM     19  C   UNL     1       1.935  -8.891  -4.399  0.00  0.00    +0.034 A 
ATOM     20  C   UNL     1       1.190  -9.489  -5.399  0.00  0.00    +0.128 A 
ATOM     21  C   UNL     1      -0.087  -9.039  -5.676  0.00  0.00    +0.054 A 
ATOM     22  C   UNL     1      -0.626  -7.994  -4.950  0.00  0.00    +0.064 A 
ATOM     23 CL   UNL     1      -2.233  -7.434  -5.293  0.00  0.00    -0.082 Cl
BRANCH  20  24
ATOM     24  N   UNL     1       1.763 -10.612  -6.175  0.00  0.00    +0.056 N 
ATOM     25  O   UNL     1       2.880 -11.005  -5.934  0.00  0.00    -0.126 OA
ATOM     26  O   UNL     1       1.113 -11.135  -7.050  0.00  0.00    -0.126 OA
ENDBRANCH  20  24
ENDBRANCH   3  17
TORSDOF 4
