REMARK  Name = ZINC36646120
REMARK  6 active torsions:
REMARK  status: ('A' for Active; 'I' for Inactive)
REMARK    1  A    between atoms: C_6  and  C_7
REMARK    2  A    between atoms: N_14  and  N_26
REMARK    3  A    between atoms: C_15  and  S_17
REMARK    4  A    between atoms: S_17  and  C_18
REMARK    5  A    between atoms: C_18  and  C_19
REMARK    6  A    between atoms: C_19  and  N_20
REMARK                            x       y       z     vdW  Elec       q    Type
REMARK                         _______ _______ _______ _____ _____    ______ ____
ROOT
ATOM      1  C   UNL     1      -1.270  -0.765   0.011  0.00  0.00    +0.004 A 
ATOM      2  C   UNL     1      -2.239  -0.477   0.910  0.00  0.00    +0.056 A 
ATOM      3  S   UNL     1      -3.530  -1.641   0.515  0.00  0.00    -0.076 S 
ATOM      4  C   UNL     1      -2.746  -2.481  -0.837  0.00  0.00    +0.117 A 
ATOM      5  C   UNL     1      -1.503  -1.834  -0.955  0.00  0.00    +0.081 A 
ATOM      6  C   UNL     1      -0.647  -2.315  -1.993  0.00  0.00    +0.280 A 
ATOM      7  O   UNL     1       0.453  -1.818  -2.166  0.00  0.00    -0.265 OA
ATOM      8  N   UNL     1      -1.068  -3.325  -2.776  0.00  0.00    -0.209 N 
ATOM      9  C   UNL     1      -2.296  -3.894  -2.597  0.00  0.00    +0.190 A 
ATOM     10  N   UNL     1      -3.101  -3.476  -1.641  0.00  0.00    -0.215 NA
ENDROOT
BRANCH   1  16
ATOM     11  C   UNL     1      -0.017   1.390   0.010  0.00  0.00    +0.011 A 
ATOM     12  C   UNL     1       1.170   2.094   0.002  0.00  0.00    +0.039 A 
ATOM     13  C   UNL     1       2.379   1.417  -0.013  0.00  0.00    +0.123 A 
ATOM     14  C   UNL     1       2.403   0.032  -0.021  0.00  0.00    +0.039 A 
ATOM     15  C   UNL     1       1.221  -0.680  -0.014  0.00  0.00    +0.011 A 
ATOM     16  C   UNL     1       0.002  -0.004   0.002  0.00  0.00    -0.016 A 
ATOM     17  F   UNL     1       3.538   2.111  -0.020  0.00  0.00    -0.205 F 
ENDBRANCH   1  16
BRANCH   8  18
ATOM     18  N   UNL     1      -0.253  -3.788  -3.770  0.00  0.00    -0.293 N 
ATOM     19  H   UNL     1       0.619  -3.280  -3.789  0.00  0.00    +0.163 HD
ATOM     20  H   UNL     1      -0.091  -4.779  -3.672  0.00  0.00    +0.163 HD
ENDBRANCH   8  18
BRANCH   9  21
ATOM     21  S   UNL     1      -2.804  -5.213  -3.649  0.00  0.00    -0.088 S 
BRANCH  21  22
ATOM     22  C   UNL     1      -4.463  -5.638  -3.049  0.00  0.00    +0.059 C 
BRANCH  22  23
ATOM     23  C   UNL     1      -5.030  -6.786  -3.886  0.00  0.00    -0.068 C 
BRANCH  23  24
ATOM     24  N   UNL     1      -6.373  -7.130  -3.400  0.00  0.00    +0.380 N 
ATOM     25  C   UNL     1      -6.278  -7.647  -2.030  0.00  0.00    -0.079 C 
ATOM     26  C   UNL     1      -7.681  -7.931  -1.490  0.00  0.00    -0.019 C 
ATOM     27  C   UNL     1      -8.366  -8.969  -2.383  0.00  0.00    -0.004 C 
ATOM     28  C   UNL     1      -8.393  -8.451  -3.824  0.00  0.00    -0.019 C 
ATOM     29  C   UNL     1      -6.963  -8.148  -4.277  0.00  0.00    -0.079 C 
ATOM     30  H   UNL     1      -6.953  -6.304  -3.407  0.00  0.00    -0.082 HD
ENDBRANCH  23  24
ENDBRANCH  22  23
ENDBRANCH  21  22
ENDBRANCH   9  21
TORSDOF 6
