REMARK  Name = ZINC15731448
REMARK  8 active torsions:
REMARK  status: ('A' for Active; 'I' for Inactive)
REMARK    1  A    between atoms: C_3  and  C_6
REMARK    2  A    between atoms: C_6  and  C_7
REMARK    3  A    between atoms: C_7  and  N_49
REMARK    4  A    between atoms: C_10  and  C_13
REMARK    5  A    between atoms: C_13  and  N_14
REMARK    6  A    between atoms: N_14  and  S_15
REMARK    7  A    between atoms: S_15  and  C_18
REMARK    8  A    between atoms: C_20  and  C_23
REMARK                            x       y       z     vdW  Elec       q    Type
REMARK                         _______ _______ _______ _____ _____    ______ ____
ROOT
ATOM      1  C   UNL     1       8.030  -1.643  -1.816  0.00  0.00    +0.109 C 
ENDROOT
BRANCH   1   4
ATOM      2  C   UNL     1       4.588  -0.495  -0.530  0.00  0.00    -0.079 C 
ATOM      3  C   UNL     1       6.065  -0.888  -0.466  0.00  0.00    -0.014 C 
ATOM      4  C   UNL     1       6.537  -1.307  -1.861  0.00  0.00    +0.001 C 
ATOM      5  C   UNL     1       6.301  -0.154  -2.840  0.00  0.00    -0.014 C 
ATOM      6  C   UNL     1       4.817   0.218  -2.834  0.00  0.00    -0.079 C 
ATOM      7  N   UNL     1       4.431   0.635  -1.470  0.00  0.00    +0.380 N 
ATOM      8  H   UNL     1       5.044   1.403  -1.171  0.00  0.00    -0.082 HD
BRANCH   7   9
ATOM      9  C   UNL     1       3.031   1.107  -1.463  0.00  0.00    -0.074 C 
BRANCH   9  10
ATOM     10  C   UNL     1       2.565   1.272  -0.015  0.00  0.00    +0.024 C 
BRANCH  10  13
ATOM     11  C   UNL     1      -1.213   1.761   0.017  0.00  0.00    +0.008 A 
ATOM     12  C   UNL     1      -0.013   1.076   0.008  0.00  0.00    +0.011 A 
ATOM     13  C   UNL     1       1.146   1.780   0.001  0.00  0.00    -0.012 A 
ATOM     14  S   UNL     1       0.555   3.464   0.015  0.00  0.00    -0.102 S 
ATOM     15  C   UNL     1      -1.196   3.116   0.030  0.00  0.00    +0.045 A 
ENDBRANCH  10  13
ENDBRANCH   9  10
ENDBRANCH   7   9
ENDBRANCH   1   4
BRANCH   1  16
ATOM     16  N   UNL     1       8.240  -2.822  -0.973  0.00  0.00    -0.190 NA
ATOM     17  H   UNL     1       7.535  -3.126  -0.380  0.00  0.00    +0.148 HD
BRANCH  16  18
ATOM     18  S   UNL     1       9.681  -3.635  -1.032  0.00  0.00    +0.059 S 
ATOM     19  O   UNL     1       9.586  -4.698  -0.093  0.00  0.00    -0.153 OA
ATOM     20  O   UNL     1       9.967  -3.856  -2.406  0.00  0.00    -0.153 OA
BRANCH  18  21
ATOM     21  C   UNL     1      10.923  -2.541  -0.428  0.00  0.00    +0.113 A 
ATOM     22  C   UNL     1      11.597  -1.712  -1.291  0.00  0.00    +0.049 A 
ATOM     23  C   UNL     1      12.556  -0.876  -0.742  0.00  0.00    +0.076 A 
ATOM     24  S   UNL     1      12.474  -1.308   0.987  0.00  0.00    -0.090 S 
ATOM     25  C   UNL     1      11.228  -2.510   0.896  0.00  0.00    +0.074 A 
BRANCH  23  26
ATOM     26  C   UNL     1      13.418   0.104  -1.410  0.00  0.00    +0.248 C 
ATOM     27  O   UNL     1      13.336   0.267  -2.613  0.00  0.00    -0.270 OA
ATOM     28  N   UNL     1      14.302   0.825  -0.691  0.00  0.00    -0.325 N 
ATOM     29  H   UNL     1      14.367   0.695   0.268  0.00  0.00    +0.145 HD
ATOM     30  H   UNL     1      14.872   1.473  -1.132  0.00  0.00    +0.145 HD
ENDBRANCH  23  26
ENDBRANCH  18  21
ENDBRANCH  16  18
ENDBRANCH   1  16
TORSDOF 8
