REMARK  Name = ZINC04795524
REMARK  6 active torsions:
REMARK  status: ('A' for Active; 'I' for Inactive)
REMARK    1  A    between atoms: C_4  and  C_7
REMARK    2  A    between atoms: N_11  and  C_15
REMARK    3  A    between atoms: C_15  and  C_16
REMARK    4  A    between atoms: C_16  and  C_17
REMARK    5  A    between atoms: N_19  and  C_20
REMARK    6  A    between atoms: C_23  and  N_26
REMARK                            x       y       z     vdW  Elec       q    Type
REMARK                         _______ _______ _______ _____ _____    ______ ____
ROOT
ATOM      1  C   UNL     1      -3.359   5.164   0.228  0.00  0.00    +0.124 C 
ENDROOT
BRANCH   1   6
ATOM      2  C   UNL     1      -0.325   1.242   0.076  0.00  0.00    +0.028 C 
ATOM      3  C   UNL     1      -1.504   1.912   0.051  0.00  0.00    +0.077 C 
ATOM      4  C   UNL     1      -1.766   3.362   0.173  0.00  0.00    +0.258 C 
ATOM      5  O   UNL     1      -0.865   4.165   0.320  0.00  0.00    -0.269 OA
ATOM      6  N   UNL     1      -3.032   3.741   0.114  0.00  0.00    -0.255 N 
ATOM      7  C   UNL     1      -4.029   2.847  -0.049  0.00  0.00    +0.121 C 
ATOM      8  S   UNL     1      -5.712   3.139  -0.149  0.00  0.00    -0.027 S 
ATOM      9  S   UNL     1      -3.167   1.286  -0.144  0.00  0.00    -0.061 S 
BRANCH   2  13
ATOM     10  C   UNL     1       3.333   3.384  -0.025  0.00  0.00    +0.000 A 
ATOM     11  C   UNL     1       3.201   2.286   0.807  0.00  0.00    +0.001 A 
ATOM     12  C   UNL     1       2.015   1.584   0.846  0.00  0.00    +0.008 A 
ATOM     13  C   UNL     1       0.943   1.985   0.041  0.00  0.00    -0.024 A 
ATOM     14  C   UNL     1       1.087   3.092  -0.802  0.00  0.00    +0.008 A 
ATOM     15  C   UNL     1       2.278   3.787  -0.825  0.00  0.00    +0.001 A 
ENDBRANCH   2  13
ENDBRANCH   1   6
BRANCH   1  16
ATOM     16  C   UNL     1      -3.364   5.800  -1.163  0.00  0.00    +0.115 C 
BRANCH  16  17
ATOM     17  C   UNL     1      -3.701   7.264  -1.046  0.00  0.00    +0.219 C 
ATOM     18  O   UNL     1      -3.916   7.751   0.044  0.00  0.00    -0.275 OA
ATOM     19  N   UNL     1      -3.763   8.032  -2.151  0.00  0.00    -0.285 N 
ATOM     20  H   UNL     1      -3.670   7.628  -3.028  0.00  0.00    +0.155 HD
BRANCH  19  21
ATOM     21  C   UNL     1      -3.962   9.412  -2.034  0.00  0.00    +0.034 A 
ATOM     22  C   UNL     1      -4.609  10.111  -3.046  0.00  0.00    +0.025 A 
ATOM     23  C   UNL     1      -4.808  11.472  -2.925  0.00  0.00    +0.034 A 
ATOM     24  C   UNL     1      -4.355  12.141  -1.802  0.00  0.00    +0.126 A 
ATOM     25  C   UNL     1      -3.707  11.450  -0.796  0.00  0.00    +0.034 A 
ATOM     26  C   UNL     1      -3.509  10.088  -0.908  0.00  0.00    +0.025 A 
BRANCH  24  27
ATOM     27  N   UNL     1      -4.565  13.601  -1.679  0.00  0.00    +0.056 N 
ATOM     28  O   UNL     1      -4.167  14.192  -0.691  0.00  0.00    -0.126 OA
ATOM     29  O   UNL     1      -5.136  14.212  -2.565  0.00  0.00    -0.126 OA
ENDBRANCH  24  27
ENDBRANCH  19  21
ENDBRANCH  16  17
ENDBRANCH   1  16
TORSDOF 6
