REMARK  Name = ZINC01284960
REMARK  9 active torsions:
REMARK  status: ('A' for Active; 'I' for Inactive)
REMARK    1  A    between atoms: C_1  and  C_2
REMARK    2  A    between atoms: C_2  and  C_3
REMARK    3  A    between atoms: C_2  and  C_4
REMARK    4  A    between atoms: C_2  and  C_5
REMARK    5  A    between atoms: C_12  and  N_18
REMARK    6  A    between atoms: C_13  and  C_14
REMARK    7  A    between atoms: C_14  and  O_16
REMARK    8  A    between atoms: O_16  and  C_17
REMARK    9  A    between atoms: C_19  and  C_21
REMARK                            x       y       z     vdW  Elec       q    Type
REMARK                         _______ _______ _______ _____ _____    ______ ____
ROOT
ATOM      1  C   UNL     1       1.090   8.528   0.418  0.00  0.00    -0.000 C 
ATOM      2  C   UNL     1       2.331   8.240  -0.433  0.00  0.00    +0.009 C 
ATOM      3  C   UNL     1       2.971   6.923   0.010  0.00  0.00    +0.037 C 
ATOM      4  C   UNL     1       1.903   5.836   0.015  0.00  0.00    -0.021 A 
ATOM      5  C   UNL     1       0.590   6.151   0.030  0.00  0.00    -0.004 A 
ATOM      6  S   UNL     1      -0.251   4.593   0.021  0.00  0.00    -0.077 S 
ATOM      7  C   UNL     1       1.121   3.535   0.010  0.00  0.00    +0.087 A 
ATOM      8  C   UNL     1       2.198   4.413   0.005  0.00  0.00    +0.091 A 
ATOM      9  C   UNL     1      -0.010   7.524   0.044  0.00  0.00    +0.046 C 
ENDROOT
BRANCH   1  11
ATOM     10  C   UNL     1      -0.649  10.230   0.982  0.00  0.00    +0.011 C 
ATOM     11  C   UNL     1       0.600   9.951   0.144  0.00  0.00    -0.035 C 
ATOM     12  C   UNL     1       1.698  10.949   0.517  0.00  0.00    +0.011 C 
ATOM     13  C   UNL     1       0.261  10.097  -1.341  0.00  0.00    +0.011 C 
ENDBRANCH   1  11
BRANCH   7  14
ATOM     14  N   UNL     1       1.140   2.150   0.003  0.00  0.00    -0.273 N 
ATOM     15  C   UNL     1      -0.018   1.461   0.010  0.00  0.00    +0.284 C 
ATOM     16  O   UNL     1      -1.080   2.055   0.018  0.00  0.00    -0.266 OA
ATOM     17  H   UNL     1       1.987   1.677  -0.008  0.00  0.00    +0.156 HD
BRANCH  15  18
ATOM     18  C   UNL     1       0.002  -0.004   0.002  0.00  0.00    +0.191 A 
ATOM     19  C   UNL     1      -1.093  -0.822   0.008  0.00  0.00    +0.056 A 
ATOM     20  C   UNL     1      -0.612  -2.140  -0.004  0.00  0.00    +0.058 A 
ATOM     21  C   UNL     1       0.739  -2.071  -0.016  0.00  0.00    +0.171 A 
ATOM     22  O   UNL     1       1.105  -0.782  -0.019  0.00  0.00    -0.444 OA
ATOM     23 BR   UNL     1       1.917  -3.550  -0.035  0.00  0.00    -0.008 Br
ENDBRANCH  15  18
ENDBRANCH   7  14
BRANCH   8  24
ATOM     24  C   UNL     1       3.578   3.923  -0.011  0.00  0.00    +0.342 C 
ATOM     25  O   UNL     1       4.140   3.725  -1.072  0.00  0.00    -0.245 OA
BRANCH  24  26
ATOM     26  O   UNL     1       4.225   3.691   1.149  0.00  0.00    -0.464 OA
ATOM     27  C   UNL     1       5.590   3.207   1.057  0.00  0.00    +0.280 C 
ENDBRANCH  24  26
ENDBRANCH   8  24
TORSDOF 5
