REMARK  Name = ZINC04281255
REMARK  7 active torsions:
REMARK  status: ('A' for Active; 'I' for Inactive)
REMARK    1  A    between atoms: C_1  and  C_2
REMARK    2  A    between atoms: C_2  and  C_28
REMARK    3  A    between atoms: C_5  and  C_26
REMARK    4  A    between atoms: C_6  and  N_12
REMARK    5  A    between atoms: C_9  and  C_10
REMARK    6  A    between atoms: C_9  and  C_11
REMARK    7  A    between atoms: C_13  and  C_15
REMARK                            x       y       z     vdW  Elec       q    Type
REMARK                         _______ _______ _______ _____ _____    ______ ____
ROOT
ATOM      1  C   UNL     1      -0.013   1.086   0.008  0.00  0.00    -0.010 C 
ATOM      2  C   UNL     1      -0.729   1.580   1.268  0.00  0.00    -0.069 C 
ATOM      3  C   UNL     1      -2.138   0.980   1.315  0.00  0.00    +0.024 C 
ATOM      4  C   UNL     1      -2.980   1.647   0.237  0.00  0.00    -0.021 A 
ATOM      5  C   UNL     1      -4.126   1.053  -0.419  0.00  0.00    +0.084 A 
ATOM      6  C   UNL     1      -4.789   1.821  -1.369  0.00  0.00    +0.090 A 
ATOM      7  S   UNL     1      -3.890   3.302  -1.379  0.00  0.00    -0.078 S 
ATOM      8  C   UNL     1      -2.672   2.904  -0.158  0.00  0.00    -0.015 A 
ATOM      9  C   UNL     1      -1.544   3.748   0.343  0.00  0.00    -0.041 C 
ATOM     10  C   UNL     1      -2.143   5.006   1.003  0.00  0.00    -0.005 C 
ATOM     11  C   UNL     1      -0.675   4.203  -0.835  0.00  0.00    -0.005 C 
ATOM     12  C   UNL     1       0.048   1.047   2.488  0.00  0.00    -0.010 C 
ATOM     13  N   UNL     1      -0.718   3.061   1.375  0.00  0.00    +0.389 N 
ATOM     14  H   UNL     1       0.252   3.384   1.281  0.00  0.00    -0.084 HD
ATOM     15  H   UNL     1      -1.077   3.320   2.302  0.00  0.00    -0.084 HD
ENDROOT
BRANCH   6  16
ATOM     16  N   UNL     1      -5.900   1.482  -2.127  0.00  0.00    -0.275 N 
ATOM     17  C   UNL     1      -6.410   2.364  -3.008  0.00  0.00    +0.256 C 
ATOM     18  O   UNL     1      -5.895   3.459  -3.139  0.00  0.00    -0.270 OA
ATOM     19  H   UNL     1      -6.310   0.609  -2.022  0.00  0.00    +0.156 HD
BRANCH  17  20
ATOM     20  C   UNL     1      -7.589   2.004  -3.812  0.00  0.00    +0.122 A 
ATOM     21  C   UNL     1      -8.181   0.760  -3.677  0.00  0.00    +0.031 A 
ATOM     22  C   UNL     1      -9.319   0.457  -4.467  0.00  0.00    +0.018 A 
ATOM     23  C   UNL     1      -9.946  -0.792  -4.351  0.00  0.00    +0.011 A 
ATOM     24  C   UNL     1     -11.037  -1.079  -5.120  0.00  0.00    +0.001 A 
ATOM     25  C   UNL     1     -11.532  -0.142  -6.017  0.00  0.00    +0.004 A 
ATOM     26  C   UNL     1     -10.931   1.092  -6.147  0.00  0.00    +0.047 A 
ATOM     27  C   UNL     1      -9.818   1.408  -5.375  0.00  0.00    +0.139 A 
ATOM     28  O   UNL     1      -9.232   2.617  -5.505  0.00  0.00    -0.422 OA
ATOM     29  C   UNL     1      -8.155   2.955  -4.775  0.00  0.00    +0.350 A 
ATOM     30  O   UNL     1      -7.649   4.053  -4.914  0.00  0.00    -0.244 OA
ENDBRANCH  17  20
ENDBRANCH   6  16
BRANCH   5  31
ATOM     31  C   UNL     1      -4.571  -0.272  -0.107  0.00  0.00    +0.102 C 
ATOM     32  N   UNL     1      -4.923  -1.323   0.142  0.00  0.00    -0.191 NA
ENDBRANCH   5  31
TORSDOF 3
