REMARK  Name = ZINC06861027
REMARK  8 active torsions:
REMARK  status: ('A' for Active; 'I' for Inactive)
REMARK    1  A    between atoms: C_1  and  C_2
REMARK    2  A    between atoms: C_7  and  C_8
REMARK    3  A    between atoms: N_10  and  N_11
REMARK    4  A    between atoms: N_11  and  C_12
REMARK    5  A    between atoms: C_12  and  N_14
REMARK    6  A    between atoms: C_15  and  C_17
REMARK    7  A    between atoms: C_17  and  O_18
REMARK    8  A    between atoms: O_18  and  C_19
REMARK                            x       y       z     vdW  Elec       q    Type
REMARK                         _______ _______ _______ _____ _____    ______ ____
ROOT
ATOM      1  N   UNL     1       2.277  -0.227  -1.165  0.00  0.00    -0.264 N 
ATOM      2  C   UNL     1       3.441  -0.866  -1.393  0.00  0.00    +0.256 C 
ATOM      3  O   UNL     1       4.450  -0.229  -1.608  0.00  0.00    -0.272 OA
ATOM      4  H   UNL     1       1.469  -0.736  -0.993  0.00  0.00    +0.157 HD
ENDROOT
BRANCH   1   5
ATOM      5  C   UNL     1       2.234   1.120  -1.176  0.00  0.00    +0.153 C 
ATOM      6  S   UNL     1       3.659   2.019  -1.480  0.00  0.00    -0.017 S 
BRANCH   5   7
ATOM      7  N   UNL     1       1.069   1.759  -0.948  0.00  0.00    -0.245 N 
ATOM      8  H   UNL     1       1.039   2.729  -0.957  0.00  0.00    +0.172 HD
BRANCH   7  11
ATOM      9  C   UNL     1      -1.262   1.663  -0.477  0.00  0.00    +0.260 C 
ATOM     10  O   UNL     1      -1.301   2.877  -0.488  0.00  0.00    -0.269 OA
ATOM     11  N   UNL     1      -0.097   1.024  -0.700  0.00  0.00    -0.231 N 
ATOM     12  H   UNL     1      -0.066   0.054  -0.692  0.00  0.00    +0.173 HD
BRANCH   9  19
ATOM     13  C   UNL     1      -3.697   3.043   0.255  0.00  0.00    +0.044 C 
ATOM     14  C   UNL     1      -3.674   1.541   0.133  0.00  0.00    -0.038 A 
ATOM     15  C   UNL     1      -4.820   0.810   0.371  0.00  0.00    +0.004 A 
ATOM     16  C   UNL     1      -4.801  -0.569   0.259  0.00  0.00    +0.000 A 
ATOM     17  C   UNL     1      -3.634  -1.224  -0.092  0.00  0.00    +0.001 A 
ATOM     18  C   UNL     1      -2.483  -0.505  -0.338  0.00  0.00    +0.013 A 
ATOM     19  C   UNL     1      -2.494   0.886  -0.221  0.00  0.00    +0.041 A 
ENDBRANCH   9  19
ENDBRANCH   7  11
ENDBRANCH   5   7
ENDBRANCH   1   5
BRANCH   2  20
ATOM     20  C   UNL     1       3.489  -2.372  -1.380  0.00  0.00    +0.325 C 
BRANCH  20  21
ATOM     21  O   UNL     1       4.823  -2.809  -1.646  0.00  0.00    -0.482 OA
BRANCH  21  22
ATOM     22  C   UNL     1       5.040  -4.149  -1.670  0.00  0.00    +0.129 A 
ATOM     23  C   UNL     1       4.009  -5.017  -1.447  0.00  0.00    +0.046 A 
ATOM     24  C   UNL     1       4.215  -6.394  -1.468  0.00  0.00    +0.004 A 
ATOM     25  C   UNL     1       5.449  -6.916  -1.712  0.00  0.00    +0.009 A 
ATOM     26  C   UNL     1       6.536  -6.056  -1.946  0.00  0.00    -0.014 A 
ATOM     27  C   UNL     1       6.330  -4.655  -1.931  0.00  0.00    +0.024 A 
ATOM     28  C   UNL     1       7.417  -3.796  -2.161  0.00  0.00    +0.012 A 
ATOM     29  C   UNL     1       8.650  -4.320  -2.404  0.00  0.00    +0.001 A 
ATOM     30  C   UNL     1       8.852  -5.699  -2.424  0.00  0.00    +0.001 A 
ATOM     31  C   UNL     1       7.823  -6.561  -2.201  0.00  0.00    +0.008 A 
ENDBRANCH  21  22
ENDBRANCH  20  21
ENDBRANCH   2  20
TORSDOF 7
