REMARK  Name = ZINC10069574
REMARK  8 active torsions:
REMARK  status: ('A' for Active; 'I' for Inactive)
REMARK    1  A    between atoms: C_1  and  C_2
REMARK    2  A    between atoms: C_2  and  O_3
REMARK    3  A    between atoms: O_3  and  C_4
REMARK    4  A    between atoms: C_7  and  N_10
REMARK    5  A    between atoms: C_12  and  N_17
REMARK    6  A    between atoms: N_23  and  C_26
REMARK    7  A    between atoms: C_29  and  C_32
REMARK    8  A    between atoms: C_32  and  C_34
REMARK                            x       y       z     vdW  Elec       q    Type
REMARK                         _______ _______ _______ _____ _____    ______ ____
ROOT
ATOM      1  N   UNL     1      -1.138   1.918   0.137  0.00  0.00    -0.294 N 
ATOM      2  C   UNL     1       0.090   1.364   0.160  0.00  0.00    +0.303 C 
ATOM      3  O   UNL     1       1.077   2.074   0.146  0.00  0.00    -0.253 OA
ATOM      4  N   UNL     1       0.224   0.024   0.193  0.00  0.00    -0.283 N 
ATOM      5  C   UNL     1       1.549  -0.606   0.087  0.00  0.00    +0.128 C 
ATOM      6  C   UNL     1       1.705  -1.598   1.250  0.00  0.00    +0.124 C 
ATOM      7  N   UNL     1       0.572  -2.533   1.245  0.00  0.00    -0.327 N 
ATOM      8  C   UNL     1      -0.698  -1.833   1.477  0.00  0.00    +0.124 C 
ATOM      9  C   UNL     1      -0.952  -0.849   0.329  0.00  0.00    +0.128 C 
ATOM     10  H   UNL     1      -1.925   1.357   0.217  0.00  0.00    +0.151 HD
ENDROOT
BRANCH   1  13
ATOM     11  N   UNL     1      -3.072   4.967   0.047  0.00  0.00    -0.270 N 
ATOM     12  C   UNL     1      -2.658   3.727  -0.621  0.00  0.00    +0.136 C 
ATOM     13  C   UNL     1      -1.285   3.369  -0.009  0.00  0.00    +0.101 C 
ATOM     14  C   UNL     1      -1.366   4.058   1.373  0.00  0.00    +0.120 C 
ATOM     15  C   UNL     1      -2.367   5.175   1.173  0.00  0.00    +0.222 C 
ATOM     16  O   UNL     1      -2.512   6.120   1.918  0.00  0.00    -0.275 OA
BRANCH  11  20
ATOM     17  C   UNL     1      -6.056   7.515  -1.365  0.00  0.00    +0.121 A 
ATOM     18  C   UNL     1      -5.814   6.308  -2.005  0.00  0.00    +0.047 A 
ATOM     19  C   UNL     1      -4.826   5.464  -1.538  0.00  0.00    +0.027 A 
ATOM     20  C   UNL     1      -4.074   5.823  -0.427  0.00  0.00    +0.037 A 
ATOM     21  C   UNL     1      -4.320   7.028   0.216  0.00  0.00    +0.027 A 
ATOM     22  C   UNL     1      -5.305   7.874  -0.255  0.00  0.00    +0.047 A 
BRANCH  17  23
ATOM     23  O   UNL     1      -7.029   8.345  -1.825  0.00  0.00    -0.492 OA
BRANCH  23  25
ATOM     24  C   UNL     1      -8.351  10.368  -1.777  0.00  0.00    +0.048 C 
ATOM     25  C   UNL     1      -7.223   9.571  -1.117  0.00  0.00    +0.225 C 
ENDBRANCH  23  25
ENDBRANCH  17  23
ENDBRANCH  11  20
ENDBRANCH   1  13
BRANCH   7  26
ATOM     26  C   UNL     1       0.759  -3.547   2.176  0.00  0.00    +0.030 A 
ATOM     27  C   UNL     1      -0.202  -3.772   3.160  0.00  0.00    +0.024 A 
ATOM     28  C   UNL     1      -0.025  -4.770   4.074  0.00  0.00    +0.013 A 
ATOM     29  C   UNL     1       1.130  -5.563   4.028  0.00  0.00    +0.017 A 
ATOM     30  C   UNL     1       2.096  -5.330   3.040  0.00  0.00    +0.013 A 
ATOM     31  C   UNL     1       1.908  -4.332   2.126  0.00  0.00    +0.024 A 
BRANCH  29  32
ATOM     32  C   UNL     1       1.327  -6.634   5.012  0.00  0.00    +0.160 C 
ATOM     33  O   UNL     1       2.327  -7.319   4.970  0.00  0.00    -0.292 OA
ATOM     34  C   UNL     1       0.287  -6.882   6.073  0.00  0.00    +0.091 C 
ENDBRANCH  29  32
ENDBRANCH   7  26
TORSDOF 6
