REMARK  Name = ZINC36552295
REMARK  7 active torsions:
REMARK  status: ('A' for Active; 'I' for Inactive)
REMARK    1  A    between atoms: C_3  and  N_8
REMARK    2  A    between atoms: N_8  and  C_9
REMARK    3  A    between atoms: C_9  and  C_11
REMARK    4  A    between atoms: C_9  and  C_16
REMARK    5  A    between atoms: N_18  and  C_19
REMARK    6  A    between atoms: C_25  and  C_27
REMARK    7  A    between atoms: C_27  and  O_28
REMARK                            x       y       z     vdW  Elec       q    Type
REMARK                         _______ _______ _______ _____ _____    ______ ____
ROOT
ATOM      1  C   UNL     1       4.791   1.306   0.077  0.00  0.00    +0.233 C 
ENDROOT
BRANCH   1   2
ATOM      2  C   UNL     1       5.731   1.615  -1.060  0.00  0.00    +0.135 A 
ATOM      3  C   UNL     1       6.454   0.715  -1.750  0.00  0.00    +0.047 A 
ATOM      4  C   UNL     1       7.190   1.435  -2.719  0.00  0.00    +0.041 A 
ATOM      5  C   UNL     1       6.872   2.733  -2.562  0.00  0.00    +0.195 A 
ATOM      6  O   UNL     1       5.984   2.836  -1.560  0.00  0.00    -0.465 OA
ENDBRANCH   1   2
BRANCH   1   7
ATOM      7  C   UNL     1       5.476   1.597   1.387  0.00  0.00    +0.242 C 
ATOM      8  O   UNL     1       5.006   2.418   2.147  0.00  0.00    -0.273 OA
ATOM      9  N   UNL     1       6.609   0.946   1.715  0.00  0.00    -0.311 N 
ATOM     10  H   UNL     1       6.984   0.289   1.108  0.00  0.00    +0.149 HD
BRANCH   9  11
ATOM     11  C   UNL     1       7.274   1.229   2.989  0.00  0.00    +0.073 C 
ATOM     12  C   UNL     1       8.192   2.442   2.827  0.00  0.00    +0.022 C 
ATOM     13  C   UNL     1       8.887   2.738   4.157  0.00  0.00    +0.002 C 
ATOM     14  C   UNL     1       9.716   1.523   4.581  0.00  0.00    +0.000 C 
ATOM     15  C   UNL     1       8.798   0.310   4.743  0.00  0.00    +0.002 C 
ATOM     16  C   UNL     1       8.103   0.015   3.413  0.00  0.00    +0.022 C 
ENDBRANCH   9  11
ENDBRANCH   1   7
BRANCH   1  17
ATOM     17  N   UNL     1       3.590   2.137  -0.043  0.00  0.00    -0.250 N 
ATOM     18  C   UNL     1       3.683   3.476   0.081  0.00  0.00    +0.246 C 
ATOM     19  O   UNL     1       4.770   4.001   0.198  0.00  0.00    -0.273 OA
BRANCH  17  22
ATOM     20  C   UNL     1       0.669   0.790  -1.825  0.00  0.00    +0.003 A 
ATOM     21  C   UNL     1       1.896   1.380  -1.588  0.00  0.00    +0.023 A 
ATOM     22  C   UNL     1       2.348   1.540  -0.285  0.00  0.00    +0.039 A 
ATOM     23  C   UNL     1       1.565   1.107   0.777  0.00  0.00    +0.043 A 
ATOM     24  C   UNL     1       0.339   0.518   0.535  0.00  0.00    +0.043 A 
ATOM     25  C   UNL     1      -0.109   0.360  -0.766  0.00  0.00    +0.020 A 
ATOM     26 CL   UNL     1      -0.641  -0.024   1.861  0.00  0.00    -0.083 Cl
ENDBRANCH  17  22
BRANCH  18  27
ATOM     27  C   UNL     1       2.435   4.321   0.074  0.00  0.00    +0.252 C 
BRANCH  27  28
ATOM     28  O   UNL     1       2.783   5.686   0.311  0.00  0.00    -0.386 OA
ATOM     29  H   UNL     1       2.026   6.289   0.320  0.00  0.00    +0.210 HD
ENDBRANCH  27  28
ENDBRANCH  18  27
ENDBRANCH   1  17
TORSDOF 7
