REMARK  Name = ZINC64479942
REMARK  6 active torsions:
REMARK  status: ('A' for Active; 'I' for Inactive)
REMARK    1  A    between atoms: C_7  and  C_26
REMARK    2  A    between atoms: N_14  and  C_15
REMARK    3  A    between atoms: C_15  and  C_16
REMARK    4  A    between atoms: C_16  and  C_17
REMARK    5  A    between atoms: C_31  and  O_32
REMARK    6  A    between atoms: O_32  and  C_33
REMARK                            x       y       z     vdW  Elec       q    Type
REMARK                         _______ _______ _______ _____ _____    ______ ____
ROOT
ATOM      1  C   UNL     1      -0.016   1.337   0.009  0.00  0.00    +0.033 C 
ATOM      2  C   UNL     1       0.002  -0.004   0.002  0.00  0.00    +0.031 C 
ATOM      3  C   UNL     1      -1.248  -0.784   0.004  0.00  0.00    +0.090 C 
ATOM      4  C   UNL     1      -1.183  -2.117  -0.207  0.00  0.00    +0.249 C 
ATOM      5  O   UNL     1      -2.322  -2.850  -0.243  0.00  0.00    -0.270 OA
ATOM      6  N   UNL     1       0.037  -2.735  -0.385  0.00  0.00    -0.214 N 
ATOM      7  C   UNL     1       0.127  -4.199  -0.431  0.00  0.00    +0.215 C 
ATOM      8  N   UNL     1       1.231  -4.588  -1.312  0.00  0.00    -0.335 N 
ATOM      9  C   UNL     1       2.232  -3.779  -1.532  0.00  0.00    +0.193 C 
ATOM     10  N   UNL     1       2.264  -2.532  -1.031  0.00  0.00    -0.186 NA
ATOM     11  C   UNL     1       1.191  -2.001  -0.485  0.00  0.00    +0.199 C 
ATOM     12  N   UNL     1       1.214  -0.715  -0.013  0.00  0.00    -0.287 N 
ATOM     13  N   UNL     1       3.289  -4.218  -2.304  0.00  0.00    -0.315 N 
ATOM     14  H   UNL     1       2.038  -0.311   0.301  0.00  0.00    +0.155 HD
ATOM     15  H   UNL     1       3.281  -5.115  -2.674  0.00  0.00    +0.149 HD
ATOM     16  H   UNL     1       1.219  -5.459  -1.737  0.00  0.00    +0.164 HD
ENDROOT
BRANCH   7  17
ATOM     17  C   UNL     1       0.378  -4.731   0.957  0.00  0.00    +0.035 A 
ATOM     18  C   UNL     1      -0.017  -3.999   2.060  0.00  0.00    +0.011 A 
ATOM     19  C   UNL     1       0.213  -4.487   3.333  0.00  0.00    +0.001 A 
ATOM     20  C   UNL     1       0.839  -5.708   3.506  0.00  0.00    +0.004 A 
ATOM     21  C   UNL     1       1.235  -6.444   2.406  0.00  0.00    +0.046 A 
ATOM     22  C   UNL     1       1.001  -5.959   1.127  0.00  0.00    +0.127 A 
BRANCH  22  23
ATOM     23  O   UNL     1       1.385  -6.684   0.044  0.00  0.00    -0.495 OA
ATOM     24  C   UNL     1       2.020  -7.939   0.295  0.00  0.00    +0.277 C 
ENDBRANCH  22  23
ENDBRANCH   7  17
BRANCH  13  25
ATOM     25  C   UNL     1       4.424  -3.328  -2.566  0.00  0.00    +0.109 C 
BRANCH  25  26
ATOM     26  C   UNL     1       5.449  -4.053  -3.439  0.00  0.00    +0.052 C 
BRANCH  26  27
ATOM     27  C   UNL     1       6.616  -3.138  -3.708  0.00  0.00    -0.040 C 
ATOM     28  C   UNL     1       7.782  -3.084  -3.024  0.00  0.00    -0.001 A 
ATOM     29  C   UNL     1       8.292  -3.831  -1.868  0.00  0.00    +0.010 A 
ATOM     30  C   UNL     1       9.526  -3.546  -1.395  0.00  0.00    +0.001 A 
ATOM     31  C   UNL     1      10.329  -2.556  -1.980  0.00  0.00    +0.002 A 
ATOM     32  C   UNL     1       9.929  -1.828  -3.044  0.00  0.00    +0.026 A 
ATOM     33  C   UNL     1       8.649  -2.044  -3.623  0.00  0.00    +0.043 A 
ATOM     34  N   UNL     1       8.043  -1.478  -4.638  0.00  0.00    -0.380 N 
ATOM     35  C   UNL     1       6.724  -2.099  -4.802  0.00  0.00    +0.144 C 
ATOM     36  H   UNL     1       8.407  -0.769  -5.191  0.00  0.00    +0.160 HD
ENDBRANCH  26  27
ENDBRANCH  25  26
ENDBRANCH  13  25
TORSDOF 5
