REMARK  Name = ZINC12567217
REMARK  9 active torsions:
REMARK  status: ('A' for Active; 'I' for Inactive)
REMARK    1  A    between atoms: C_1  and  C_2
REMARK    2  A    between atoms: C_2  and  C_3
REMARK    3  A    between atoms: C_2  and  C_4
REMARK    4  A    between atoms: C_7  and  C_10
REMARK    5  A    between atoms: C_10  and  C_28
REMARK    6  A    between atoms: N_13  and  C_17
REMARK    7  A    between atoms: C_17  and  C_18
REMARK    8  A    between atoms: N_20  and  C_21
REMARK    9  A    between atoms: C_21  and  C_22
REMARK                            x       y       z     vdW  Elec       q    Type
REMARK                         _______ _______ _______ _____ _____    ______ ____
ROOT
ATOM      1  C   UNL     1      -2.723   3.389   4.765  0.00  0.00    +0.135 C 
ATOM      2  C   UNL     1      -2.585   2.380   5.888  0.00  0.00    +0.251 C 
ATOM      3  O   UNL     1      -1.558   2.000   6.408  0.00  0.00    -0.272 OA
ATOM      4  N   UNL     1      -3.846   1.994   6.183  0.00  0.00    -0.215 N 
ATOM      5  C   UNL     1      -4.747   2.615   5.413  0.00  0.00    +0.310 C 
ATOM      6  O   UNL     1      -5.945   2.432   5.494  0.00  0.00    -0.252 OA
ATOM      7  N   UNL     1      -4.177   3.464   4.539  0.00  0.00    -0.281 N 
ATOM      8  C   UNL     1      -2.175   4.752   5.195  0.00  0.00    +0.047 C 
ATOM      9  H   UNL     1      -4.635   4.018   3.887  0.00  0.00    +0.152 HD
ENDROOT
BRANCH   1  13
ATOM     10  C   UNL     1      -0.724   2.012   1.250  0.00  0.00    -0.045 A 
ATOM     11  C   UNL     1      -0.239   1.673   2.499  0.00  0.00    +0.004 A 
ATOM     12  C   UNL     1      -0.882   2.123   3.637  0.00  0.00    +0.006 A 
ATOM     13  C   UNL     1      -2.018   2.903   3.525  0.00  0.00    -0.015 A 
ATOM     14  C   UNL     1      -2.507   3.237   2.276  0.00  0.00    +0.006 A 
ATOM     15  C   UNL     1      -1.860   2.792   1.139  0.00  0.00    +0.004 A 
BRANCH  10  17
ATOM     16  C   UNL     1       0.002  -0.004   0.002  0.00  0.00    +0.012 C 
ATOM     17  C   UNL     1      -0.019   1.526   0.010  0.00  0.00    +0.013 C 
ATOM     18  C   UNL     1       1.417   2.055  -0.000  0.00  0.00    +0.012 C 
ENDBRANCH  10  17
ENDBRANCH   1  13
BRANCH   4  19
ATOM     19  C   UNL     1      -4.184   1.016   7.220  0.00  0.00    +0.213 C 
BRANCH  19  20
ATOM     20  C   UNL     1      -4.205  -0.366   6.620  0.00  0.00    +0.231 C 
ATOM     21  O   UNL     1      -3.962  -0.519   5.442  0.00  0.00    -0.274 OA
ATOM     22  N   UNL     1      -4.495  -1.432   7.392  0.00  0.00    -0.312 N 
ATOM     23  H   UNL     1      -4.690  -1.309   8.334  0.00  0.00    +0.149 HD
BRANCH  22  24
ATOM     24  C   UNL     1      -4.515  -2.775   6.808  0.00  0.00    +0.135 C 
BRANCH  24  25
ATOM     25  C   UNL     1      -4.869  -3.796   7.892  0.00  0.00    +0.135 C 
ATOM     26  C   UNL     1      -4.780  -5.225   7.313  0.00  0.00    +0.035 C 
ATOM     27  C   UNL     1      -5.996  -5.926   7.978  0.00  0.00    +0.031 C 
ATOM     28  C   UNL     1      -7.008  -4.755   8.049  0.00  0.00    +0.160 C 
ATOM     29  O   UNL     1      -6.216  -3.591   8.333  0.00  0.00    -0.375 OA
ENDBRANCH  24  25
ENDBRANCH  22  24
ENDBRANCH  19  20
ENDBRANCH   4  19
TORSDOF 6
