REMARK  Name = ZINC49146467
REMARK  8 active torsions:
REMARK  status: ('A' for Active; 'I' for Inactive)
REMARK    1  A    between atoms: C_1  and  C_2
REMARK    2  A    between atoms: C_2  and  C_3
REMARK    3  A    between atoms: C_3  and  C_5
REMARK    4  A    between atoms: C_3  and  N_8
REMARK    5  A    between atoms: C_5  and  C_6
REMARK    6  A    between atoms: C_5  and  C_7
REMARK    7  A    between atoms: N_8  and  C_9
REMARK    8  A    between atoms: C_14  and  N_15
REMARK                            x       y       z     vdW  Elec       q    Type
REMARK                         _______ _______ _______ _____ _____    ______ ____
ROOT
ATOM      1  C   UNL     1       0.533  -0.037  -3.720  0.00  0.00    +0.058 A 
ATOM      2  C   UNL     1       1.902  -0.261  -3.801  0.00  0.00    +0.030 A 
ATOM      3  C   UNL     1       2.539  -0.200  -5.024  0.00  0.00    -0.024 A 
ATOM      4  C   UNL     1       1.813   0.085  -6.173  0.00  0.00    +0.039 A 
ATOM      5  C   UNL     1       0.445   0.309  -6.091  0.00  0.00    +0.058 A 
ATOM      6  C   UNL     1      -0.194   0.243  -4.869  0.00  0.00    +0.149 A 
ATOM      7  N   UNL     1       2.463   0.146  -7.412  0.00  0.00    -0.285 N 
ATOM      8  C   UNL     1       3.674  -0.417  -7.575  0.00  0.00    +0.218 C 
ATOM      9  O   UNL     1       4.230  -0.343  -8.651  0.00  0.00    -0.275 OA
ATOM     10  C   UNL     1       4.347  -1.137  -6.438  0.00  0.00    +0.101 C 
ATOM     11  C   UNL     1       4.023  -0.442  -5.116  0.00  0.00    +0.046 C 
ATOM     12  H   UNL     1       2.037   0.597  -8.158  0.00  0.00    +0.155 HD
ENDROOT
BRANCH   6  13
ATOM     13  N   UNL     1      -1.653   0.477  -4.783  0.00  0.00    +0.058 N 
ATOM     14  O   UNL     1      -2.303   0.614  -5.793  0.00  0.00    -0.126 OA
ATOM     15  O   UNL     1      -2.194   0.530  -3.703  0.00  0.00    -0.126 OA
ENDBRANCH   6  13
BRANCH   1  16
ATOM     16  N   UNL     1      -0.113  -0.099  -2.481  0.00  0.00    -0.339 N 
ATOM     17  H   UNL     1      -1.049   0.146  -2.409  0.00  0.00    +0.146 HD
BRANCH  16  18
ATOM     18  C   UNL     1       0.623  -0.533  -1.291  0.00  0.00    +0.073 C 
BRANCH  18  19
ATOM     19  C   UNL     1       0.034  -1.849  -0.779  0.00  0.00    +0.003 C 
ATOM     20  C   UNL     1       0.037  -2.883  -1.907  0.00  0.00    +0.009 C 
ATOM     21  C   UNL     1       0.878  -2.366   0.388  0.00  0.00    +0.009 C 
ENDBRANCH  18  19
BRANCH  18  23
ATOM     22  C   UNL     1       1.208   1.814  -0.666  0.00  0.00    +0.006 C 
ATOM     23  C   UNL     1       0.509   0.535  -0.202  0.00  0.00    +0.019 C 
ENDBRANCH  18  23
ENDBRANCH  16  18
ENDBRANCH   1  16
TORSDOF 5
