REMARK  Name = ZINC16286665
REMARK  5 active torsions:
REMARK  status: ('A' for Active; 'I' for Inactive)
REMARK    1  A    between atoms: C_3  and  C_6
REMARK    2  A    between atoms: C_6  and  C_8
REMARK    3  A    between atoms: C_10  and  C_22
REMARK    4  A    between atoms: C_16  and  C_17
REMARK    5  A    between atoms: C_16  and  O_21
REMARK                            x       y       z     vdW  Elec       q    Type
REMARK                         _______ _______ _______ _____ _____    ______ ____
ROOT
ATOM      1  C   UNL     1       4.030   2.577  -1.461  0.00  0.00    +0.144 C 
ATOM      2  C   UNL     1       3.671   2.195  -0.021  0.00  0.00    +0.118 C 
ATOM      3  N   UNL     1       3.514   3.413   0.776  0.00  0.00    -0.319 N 
ATOM      4  C   UNL     1       3.109   4.564   0.216  0.00  0.00    +0.133 C 
ATOM      5  S   UNL     1       2.934   5.945   1.212  0.00  0.00    -0.019 S 
ATOM      6  N   UNL     1       2.836   4.675  -1.093  0.00  0.00    -0.291 N 
ATOM      7  C   UNL     1       2.954   3.529  -1.995  0.00  0.00    +0.241 C 
ATOM      8  H   UNL     1       3.707   3.387   1.726  0.00  0.00    +0.148 HD
ATOM      9  H   UNL     1       2.554   5.533  -1.448  0.00  0.00    +0.151 HD
ENDROOT
BRANCH   2  10
ATOM     10  C   UNL     1       2.379   1.418  -0.013  0.00  0.00    -0.023 A 
ATOM     11  C   UNL     1       1.188   2.062   0.268  0.00  0.00    +0.009 A 
ATOM     12  C   UNL     1       0.001   1.354   0.276  0.00  0.00    +0.050 A 
ATOM     13  C   UNL     1       0.002  -0.004   0.003  0.00  0.00    +0.166 A 
ATOM     14  C   UNL     1       1.202  -0.653  -0.279  0.00  0.00    +0.167 A 
ATOM     15  C   UNL     1       2.388   0.063  -0.286  0.00  0.00    +0.055 A 
ATOM     16  O   UNL     1       0.940  -1.972  -0.512  0.00  0.00    -0.453 OA
ATOM     17  C   UNL     1      -0.373  -2.205   0.032  0.00  0.00    +0.466 C 
ATOM     18  O   UNL     1      -1.011  -0.917  -0.052  0.00  0.00    -0.453 OA
ENDBRANCH   2  10
BRANCH   7  19
ATOM     19  C   UNL     1       3.349   4.014  -3.391  0.00  0.00    +0.436 C 
ATOM     20  F   UNL     1       3.469   2.916  -4.250  0.00  0.00    -0.166 F 
ATOM     21  F   UNL     1       2.367   4.883  -3.878  0.00  0.00    -0.166 F 
ATOM     22  F   UNL     1       4.574   4.687  -3.322  0.00  0.00    -0.166 F 
ENDBRANCH   7  19
BRANCH   1  23
ATOM     23  C   UNL     1       5.370   3.265  -1.482  0.00  0.00    +0.179 C 
ATOM     24  O   UNL     1       5.775   3.837  -0.491  0.00  0.00    -0.291 OA
BRANCH  23  27
ATOM     25  C   UNL     1       7.950   3.634  -4.130  0.00  0.00    +0.008 A 
ATOM     26  C   UNL     1       7.404   3.813  -2.886  0.00  0.00    +0.019 A 
ATOM     27  C   UNL     1       6.156   3.243  -2.656  0.00  0.00    +0.055 A 
ATOM     28  S   UNL     1       5.804   2.485  -4.232  0.00  0.00    -0.094 S 
ATOM     29  C   UNL     1       7.256   2.932  -5.066  0.00  0.00    +0.046 A 
ENDBRANCH  23  27
ENDBRANCH   1  23
BRANCH   7  30
ATOM     30  O   UNL     1       1.702   2.844  -2.064  0.00  0.00    -0.364 OA
ATOM     31  H   UNL     1       0.974   3.388  -2.395  0.00  0.00    +0.212 HD
ENDBRANCH   7  30
TORSDOF 5
