REMARK  Name = ZINC35004549
REMARK  12 active torsions:
REMARK  status: ('A' for Active; 'I' for Inactive)
REMARK    1  A    between atoms: C_1  and  C_2
REMARK    2  A    between atoms: C_2  and  C_3
REMARK    3  A    between atoms: C_3  and  C_4
REMARK    4  A    between atoms: C_4  and  N_5
REMARK    5  A    between atoms: C_13  and  C_15
REMARK    6  A    between atoms: C_16  and  C_18
REMARK    7  A    between atoms: C_18  and  C_20
REMARK    8  A    between atoms: C_18  and  N_25
REMARK    9  A    between atoms: C_20  and  C_22
REMARK   10  A    between atoms: C_20  and  C_23
REMARK   11  A    between atoms: C_23  and  C_24
REMARK   12  A    between atoms: N_28  and  C_29
REMARK                            x       y       z     vdW  Elec       q    Type
REMARK                         _______ _______ _______ _____ _____    ______ ____
ROOT
ATOM      1  C   UNL     1       5.660  -4.628   7.071  0.00  0.00    +0.163 C 
ENDROOT
BRANCH   1  12
ATOM      2  N   UNL     1       0.970  -1.876   3.236  0.00  0.00    -0.299 N 
ATOM      3  C   UNL     1       1.349  -3.139   2.957  0.00  0.00    +0.303 C 
ATOM      4  O   UNL     1       0.967  -3.677   1.936  0.00  0.00    -0.253 OA
ATOM      5  N   UNL     1       2.153  -3.805   3.809  0.00  0.00    -0.280 N 
ATOM      6  C   UNL     1       2.537  -3.209   5.096  0.00  0.00    +0.128 C 
ATOM      7  C   UNL     1       4.067  -3.190   5.191  0.00  0.00    +0.127 C 
ATOM      8  N   UNL     1       4.576  -4.526   4.850  0.00  0.00    -0.297 N 
ATOM      9  C   UNL     1       4.192  -5.123   3.563  0.00  0.00    +0.130 C 
ATOM     10  C   UNL     1       2.657  -5.144   3.471  0.00  0.00    +0.092 C 
ATOM     11  C   UNL     1       2.231  -5.508   2.047  0.00  0.00    +0.030 C 
ATOM     12  C   UNL     1       5.379  -5.193   5.702  0.00  0.00    +0.236 C 
ATOM     13  O   UNL     1       5.877  -6.247   5.368  0.00  0.00    -0.274 OA
ATOM     14  H   UNL     1       1.216  -1.472   4.083  0.00  0.00    +0.150 HD
BRANCH   2  15
ATOM     15  C   UNL     1       0.187  -1.114   2.261  0.00  0.00    +0.106 C 
BRANCH  15  16
ATOM     16  C   UNL     1      -0.110   0.279   2.821  0.00  0.00    +0.018 C 
BRANCH  16  18
ATOM     17  C   UNL     1      -1.224   2.467   2.363  0.00  0.00    +0.004 C 
ATOM     18  C   UNL     1      -0.928   1.075   1.802  0.00  0.00    -0.002 C 
ENDBRANCH  16  18
ENDBRANCH  15  16
ENDBRANCH   2  15
ENDBRANCH   1  12
BRANCH   1  19
ATOM     19  N   UNL     1       6.127  -5.699   7.955  0.00  0.00    -0.288 N 
ATOM     20  C   UNL     1       5.965  -5.590   9.289  0.00  0.00    +0.305 C 
ATOM     21  O   UNL     1       5.432  -4.603   9.758  0.00  0.00    -0.252 OA
ATOM     22  N   UNL     1       6.395  -6.575  10.102  0.00  0.00    -0.268 N 
ATOM     23  H   UNL     1       6.552  -6.486   7.581  0.00  0.00    +0.151 HD
ATOM     24  H   UNL     1       6.883  -7.329   9.735  0.00  0.00    +0.156 HD
BRANCH  22  25
ATOM     25  C   UNL     1       6.136  -6.511  11.476  0.00  0.00    +0.049 A 
ATOM     26  C   UNL     1       5.005  -5.853  11.942  0.00  0.00    +0.024 A 
ATOM     27  C   UNL     1       4.753  -5.792  13.298  0.00  0.00    +0.002 A 
ATOM     28  C   UNL     1       5.625  -6.384  14.193  0.00  0.00    +0.001 A 
ATOM     29  C   UNL     1       6.752  -7.040  13.734  0.00  0.00    +0.017 A 
ATOM     30  C   UNL     1       7.008  -7.109  12.377  0.00  0.00    +0.039 A 
ATOM     31 BR   UNL     1       8.546  -8.012  11.749  0.00  0.00    -0.048 Br
ENDBRANCH  22  25
ENDBRANCH   1  19
BRANCH   1  32
ATOM     32  C   UNL     1       6.738  -3.547   6.966  0.00  0.00    +0.015 C 
ATOM     33  C   UNL     1       6.934  -2.887   8.332  0.00  0.00    +0.010 C 
BRANCH  32  34
ATOM     34  C   UNL     1       8.054  -4.183   6.513  0.00  0.00    +0.002 C 
ATOM     35  C   UNL     1       9.098  -3.087   6.288  0.00  0.00    +0.004 C 
ENDBRANCH  32  34
ENDBRANCH   1  32
TORSDOF 8
