REMARK  Name = ZINC63384867
REMARK  12 active torsions:
REMARK  status: ('A' for Active; 'I' for Inactive)
REMARK    1  A    between atoms: C_1  and  C_2
REMARK    2  A    between atoms: C_2  and  C_3
REMARK    3  A    between atoms: C_3  and  C_4
REMARK    4  A    between atoms: C_13  and  O_16
REMARK    5  A    between atoms: C_14  and  C_15
REMARK    6  A    between atoms: O_16  and  C_17
REMARK    7  A    between atoms: C_17  and  C_18
REMARK    8  A    between atoms: N_20  and  C_21
REMARK    9  A    between atoms: C_21  and  C_22
REMARK   10  A    between atoms: C_22  and  C_23
REMARK   11  A    between atoms: C_26  and  O_32
REMARK   12  A    between atoms: O_32  and  C_33
REMARK                            x       y       z     vdW  Elec       q    Type
REMARK                         _______ _______ _______ _____ _____    ______ ____
ROOT
ATOM      1  C   UNL     1       6.679  -5.063   2.767  0.00  0.00    +0.251 C 
ATOM      2  O   UNL     1       6.540  -6.263   2.653  0.00  0.00    -0.272 OA
ATOM      3  N   UNL     1       7.709  -4.568   3.482  0.00  0.00    -0.312 N 
ATOM      4  H   UNL     1       7.820  -3.609   3.572  0.00  0.00    +0.149 HD
ENDROOT
BRANCH   1   5
ATOM      5  C   UNL     1       5.700  -4.126   2.109  0.00  0.00    +0.324 C 
BRANCH   5   6
ATOM      6  O   UNL     1       4.707  -4.884   1.416  0.00  0.00    -0.482 OA
BRANCH   6  16
ATOM      7  C   UNL     1       0.739  -2.004  -1.265  0.00  0.00    -0.030 A 
ATOM      8  C   UNL     1      -0.210  -2.711  -1.933  0.00  0.00    +0.096 A 
ATOM      9  C   UNL     1      -0.169  -4.121  -1.926  0.00  0.00    +0.337 A 
ATOM     10  O   UNL     1      -1.025  -4.742  -2.530  0.00  0.00    -0.245 OA
ATOM     11  O   UNL     1       0.790  -4.795  -1.272  0.00  0.00    -0.422 OA
ATOM     12  C   UNL     1       1.762  -4.153  -0.589  0.00  0.00    +0.146 A 
ATOM     13  C   UNL     1       1.785  -2.746  -0.558  0.00  0.00    +0.021 A 
ATOM     14  C   UNL     1       2.793  -2.077   0.144  0.00  0.00    +0.015 A 
ATOM     15  C   UNL     1       3.756  -2.793   0.795  0.00  0.00    +0.047 A 
ATOM     16  C   UNL     1       3.742  -4.186   0.764  0.00  0.00    +0.128 A 
ATOM     17  C   UNL     1       2.745  -4.865   0.082  0.00  0.00    +0.034 A 
ATOM     18  C   UNL     1       2.738  -6.372   0.055  0.00  0.00    +0.051 C 
BRANCH   7  19
ATOM     19  C   UNL     1       0.718  -0.497  -1.257  0.00  0.00    +0.036 C 
BRANCH  19  21
ATOM     20  C   UNL     1      -0.019   1.526   0.010  0.00  0.00    +0.004 C 
ATOM     21  C   UNL     1       0.002  -0.004   0.002  0.00  0.00    +0.001 C 
ENDBRANCH  19  21
ENDBRANCH   7  19
ENDBRANCH   6  16
ENDBRANCH   5   6
ENDBRANCH   1   5
BRANCH   3  22
ATOM     22  C   UNL     1       8.661  -5.480   4.121  0.00  0.00    +0.108 C 
BRANCH  22  23
ATOM     23  C   UNL     1       9.725  -4.668   4.863  0.00  0.00    +0.052 C 
BRANCH  23  24
ATOM     24  C   UNL     1      10.704  -5.605   5.521  0.00  0.00    -0.040 C 
ATOM     25  C   UNL     1      11.892  -6.019   5.025  0.00  0.00    +0.002 A 
ATOM     26  C   UNL     1      12.601  -5.734   3.773  0.00  0.00    +0.055 A 
ATOM     27  C   UNL     1      13.807  -6.308   3.544  0.00  0.00    +0.121 A 
ATOM     28  C   UNL     1      14.412  -7.177   4.469  0.00  0.00    +0.047 A 
ATOM     29  C   UNL     1      13.837  -7.500   5.647  0.00  0.00    +0.029 A 
ATOM     30  C   UNL     1      12.531  -6.935   5.999  0.00  0.00    +0.043 A 
ATOM     31  N   UNL     1      11.769  -7.080   7.054  0.00  0.00    -0.380 N 
ATOM     32  C   UNL     1      10.560  -6.268   6.873  0.00  0.00    +0.144 C 
ATOM     33  H   UNL     1      11.971  -7.630   7.827  0.00  0.00    +0.160 HD
BRANCH  27  34
ATOM     34  O   UNL     1      14.453  -6.035   2.380  0.00  0.00    -0.495 OA
ATOM     35  C   UNL     1      15.721  -6.662   2.179  0.00  0.00    +0.277 C 
ENDBRANCH  27  34
ENDBRANCH  23  24
ENDBRANCH  22  23
ENDBRANCH   3  22
TORSDOF 9
