REMARK  Name = ZINC67293021
REMARK  5 active torsions:
REMARK  status: ('A' for Active; 'I' for Inactive)
REMARK    1  A    between atoms: C_1  and  C_2
REMARK    2  A    between atoms: C_5  and  N_9
REMARK    3  A    between atoms: C_11  and  C_21
REMARK    4  A    between atoms: N_23  and  C_24
REMARK    5  A    between atoms: C_24  and  C_25
REMARK                            x       y       z     vdW  Elec       q    Type
REMARK                         _______ _______ _______ _____ _____    ______ ____
ROOT
ATOM      1  N   UNL     1       0.060  -4.144  -0.031  0.00  0.00    -0.325 N 
ATOM      2  C   UNL     1       0.878  -4.795   0.767  0.00  0.00    +0.212 A 
ATOM      3  C   UNL     1       0.843  -6.269   0.855  0.00  0.00    +0.097 A 
ATOM      4  C   UNL     1       2.019  -6.908   1.226  0.00  0.00    +0.030 A 
ATOM      5  C   UNL     1       3.186  -6.066   1.496  0.00  0.00    +0.020 A 
ATOM      6  C   UNL     1       4.463  -6.628   1.611  0.00  0.00    +0.031 A 
ATOM      7  C   UNL     1       5.545  -5.814   1.863  0.00  0.00    +0.042 A 
ATOM      8  C   UNL     1       5.375  -4.443   2.001  0.00  0.00    +0.023 A 
ATOM      9  C   UNL     1       4.122  -3.875   1.890  0.00  0.00    +0.048 A 
ATOM     10  C   UNL     1       3.018  -4.676   1.639  0.00  0.00    +0.138 A 
ATOM     11  O   UNL     1       1.784  -4.133   1.532  0.00  0.00    -0.439 OA
ATOM     12 CL   UNL     1       7.131  -6.505   2.008  0.00  0.00    -0.084 Cl
ATOM     13  H   UNL     1      -0.520  -4.634  -0.635  0.00  0.00    +0.169 HD
ENDROOT
BRANCH   1  18
ATOM     14  C   UNL     1      -0.073   1.499   0.049  0.00  0.00    +0.047 C 
ATOM     15  C   UNL     1      -0.037  -0.007   0.028  0.00  0.00    -0.015 A 
ATOM     16  C   UNL     1      -0.016  -0.679  -1.181  0.00  0.00    +0.008 A 
ATOM     17  C   UNL     1       0.016  -2.058  -1.208  0.00  0.00    +0.026 A 
ATOM     18  C   UNL     1       0.028  -2.777  -0.011  0.00  0.00    +0.045 A 
ATOM     19  C   UNL     1       0.007  -2.095   1.208  0.00  0.00    +0.064 A 
ATOM     20  C   UNL     1      -0.020  -0.714   1.221  0.00  0.00    +0.128 A 
ATOM     21  F   UNL     1      -0.035  -0.050   2.397  0.00  0.00    -0.205 F 
ENDBRANCH   1  18
BRANCH   3  22
ATOM     22  C   UNL     1      -0.385  -7.027   0.563  0.00  0.00    +0.249 C 
ATOM     23  O   UNL     1      -1.375  -6.449   0.156  0.00  0.00    -0.270 OA
ATOM     24  N   UNL     1      -0.413  -8.362   0.746  0.00  0.00    -0.309 N 
ATOM     25  H   UNL     1       0.350  -8.813   1.140  0.00  0.00    +0.149 HD
BRANCH  24  26
ATOM     26  C   UNL     1      -1.595  -9.132   0.350  0.00  0.00    +0.136 C 
BRANCH  26  27
ATOM     27  C   UNL     1      -1.368 -10.612   0.664  0.00  0.00    +0.135 C 
ATOM     28  C   UNL     1      -2.594 -11.449   0.220  0.00  0.00    +0.035 C 
ATOM     29  C   UNL     1      -1.940 -12.842   0.012  0.00  0.00    +0.031 C 
ATOM     30  C   UNL     1      -0.535 -12.470  -0.508  0.00  0.00    +0.160 C 
ATOM     31  O   UNL     1      -0.266 -11.121  -0.104  0.00  0.00    -0.375 OA
ENDBRANCH  26  27
ENDBRANCH  24  26
ENDBRANCH   3  22
TORSDOF 4
