REMARK  Name = ZINC35274503
REMARK  5 active torsions:
REMARK  status: ('A' for Active; 'I' for Inactive)
REMARK    1  A    between atoms: C_5  and  C_7
REMARK    2  A    between atoms: C_9  and  C_21
REMARK    3  A    between atoms: N_10  and  C_12
REMARK    4  A    between atoms: C_15  and  N_18
REMARK    5  A    between atoms: C_26  and  C_29
REMARK                            x       y       z     vdW  Elec       q    Type
REMARK                         _______ _______ _______ _____ _____    ______ ____
ROOT
ATOM      1  C   UNL     1       1.131  -2.249  -0.477  0.00  0.00    +0.097 A 
ATOM      2  C   UNL     1       0.218  -3.237  -0.891  0.00  0.00    +0.063 A 
ATOM      3  C   UNL     1       0.731  -4.430  -0.418  0.00  0.00    +0.130 A 
ATOM      4  N   UNL     1       1.892  -4.119   0.238  0.00  0.00    -0.227 N 
ATOM      5  N   UNL     1       2.099  -2.852   0.181  0.00  0.00    -0.166 NA
ENDROOT
BRANCH   3   6
ATOM      6  C   UNL     1       0.146  -5.769  -0.585  0.00  0.00    +0.265 C 
ATOM      7  O   UNL     1       0.865  -6.750  -0.598  0.00  0.00    -0.268 OA
ATOM      8  N   UNL     1      -1.187  -5.909  -0.724  0.00  0.00    -0.296 N 
ATOM      9  C   UNL     1      -2.068  -4.733  -0.722  0.00  0.00    +0.109 C 
ATOM     10  C   UNL     1      -3.159  -4.936   0.334  0.00  0.00    +0.032 C 
ATOM     11  C   UNL     1      -3.880  -6.260   0.069  0.00  0.00    +0.078 C 
ATOM     12  C   UNL     1      -2.882  -7.416   0.176  0.00  0.00    +0.032 C 
ATOM     13  C   UNL     1      -1.787  -7.240  -0.887  0.00  0.00    +0.109 C 
BRANCH  11  14
ATOM     14  C   UNL     1      -4.977  -6.447   1.085  0.00  0.00    +0.214 C 
ATOM     15  O   UNL     1      -5.164  -5.605   1.937  0.00  0.00    -0.276 OA
ATOM     16  N   UNL     1      -5.750  -7.551   1.047  0.00  0.00    -0.329 N 
ATOM     17  H   UNL     1      -5.600  -8.224   0.365  0.00  0.00    +0.145 HD
ATOM     18  H   UNL     1      -6.456  -7.671   1.701  0.00  0.00    +0.145 HD
ENDBRANCH  11  14
ENDBRANCH   3   6
BRANCH   1  23
ATOM     19  C   UNL     1      -0.151   1.067  -1.700  0.00  0.00    +0.001 A 
ATOM     20  C   UNL     1       0.829   1.926  -1.236  0.00  0.00    +0.003 A 
ATOM     21  C   UNL     1       1.908   1.433  -0.525  0.00  0.00    +0.039 A 
ATOM     22  C   UNL     1       2.012   0.077  -0.275  0.00  0.00    +0.133 A 
ATOM     23  C   UNL     1       1.026  -0.793  -0.742  0.00  0.00    +0.037 A 
ATOM     24  C   UNL     1      -0.058  -0.288  -1.457  0.00  0.00    +0.013 A 
ATOM     25  F   UNL     1       3.066  -0.405   0.419  0.00  0.00    -0.205 F 
ENDBRANCH   1  23
BRANCH   4  26
ATOM     26  C   UNL     1       2.732  -5.043   0.870  0.00  0.00    +0.066 A 
ATOM     27  C   UNL     1       2.189  -6.057   1.649  0.00  0.00    +0.030 A 
ATOM     28  C   UNL     1       3.020  -6.967   2.272  0.00  0.00    +0.035 A 
ATOM     29  C   UNL     1       4.391  -6.870   2.120  0.00  0.00    +0.126 A 
ATOM     30  C   UNL     1       4.935  -5.862   1.345  0.00  0.00    +0.035 A 
ATOM     31  C   UNL     1       4.109  -4.952   0.715  0.00  0.00    +0.030 A 
BRANCH  29  32
ATOM     32  N   UNL     1       5.279  -7.847   2.790  0.00  0.00    +0.056 N 
ATOM     33  O   UNL     1       4.806  -8.729   3.468  0.00  0.00    -0.126 OA
ATOM     34  O   UNL     1       6.478  -7.764   2.658  0.00  0.00    -0.126 OA
ENDBRANCH  29  32
ENDBRANCH   4  26
TORSDOF 5
