REMARK  Name = ZINC67365535
REMARK  5 active torsions:
REMARK  status: ('A' for Active; 'I' for Inactive)
REMARK    1  A    between atoms: C_1  and  C_2
REMARK    2  A    between atoms: N_4  and  C_5
REMARK    3  A    between atoms: C_5  and  C_6
REMARK    4  A    between atoms: C_13  and  C_15
REMARK    5  A    between atoms: N_17  and  C_22
REMARK                            x       y       z     vdW  Elec       q    Type
REMARK                         _______ _______ _______ _____ _____    ______ ____
ROOT
ATOM      1  C   UNL     1      -2.734  -2.340   0.373  0.00  0.00    +0.024 C 
ATOM      2  C   UNL     1      -2.797  -3.781   0.885  0.00  0.00    +0.008 C 
ATOM      3  C   UNL     1      -4.255  -4.244   0.936  0.00  0.00    +0.019 C 
ATOM      4  C   UNL     1      -4.847  -4.206  -0.477  0.00  0.00    +0.108 C 
ATOM      5  N   UNL     1      -4.660  -2.859  -1.032  0.00  0.00    -0.296 N 
ATOM      6  C   UNL     1      -3.310  -2.281  -1.045  0.00  0.00    +0.113 C 
ATOM      7  C   UNL     1      -5.708  -2.166  -1.522  0.00  0.00    +0.262 C 
ATOM      8  O   UNL     1      -5.569  -1.003  -1.848  0.00  0.00    -0.269 OA
ENDROOT
BRANCH   7   9
ATOM      9  C   UNL     1      -7.016  -2.816  -1.660  0.00  0.00    +0.122 C 
ATOM     10  N   UNL     1      -7.117  -4.097  -1.485  0.00  0.00    -0.177 NA
ATOM     11  N   UNL     1      -8.347  -4.750  -1.610  0.00  0.00    -0.188 N 
ATOM     12  C   UNL     1      -9.364  -4.168  -2.276  0.00  0.00    +0.235 C 
ATOM     13  O   UNL     1     -10.427  -4.740  -2.385  0.00  0.00    -0.274 OA
ATOM     14  C   UNL     1      -9.175  -2.800  -2.883  0.00  0.00    +0.104 C 
ATOM     15  C   UNL     1      -8.226  -1.985  -1.997  0.00  0.00    +0.071 C 
BRANCH  11  16
ATOM     16  C   UNL     1      -8.531  -6.076  -1.015  0.00  0.00    +0.124 C 
ATOM     17  C   UNL     1      -8.273  -6.006   0.499  0.00  0.00    +0.049 C 
ATOM     18  C   UNL     1      -8.149  -7.435   1.080  0.00  0.00    +0.168 C 
ATOM     19  S   UNL     1      -7.520  -8.401  -0.354  0.00  0.00    -0.029 S 
ATOM     20  O   UNL     1      -8.485  -9.382  -0.709  0.00  0.00    -0.174 OA
ATOM     21  O   UNL     1      -6.182  -8.799  -0.092  0.00  0.00    -0.174 OA
ATOM     22  C   UNL     1      -7.513  -7.076  -1.634  0.00  0.00    +0.190 C 
ENDBRANCH  11  16
ENDBRANCH   7   9
BRANCH   1  23
ATOM     23  C   UNL     1      -1.279  -1.868   0.355  0.00  0.00    +0.109 C 
BRANCH  23  27
ATOM     24  C   UNL     1       0.007   1.637  -0.493  0.00  0.00    +0.109 C 
ATOM     25  C   UNL     1      -0.044   0.181  -0.105  0.00  0.00    +0.210 C 
ATOM     26  O   UNL     1       0.983  -0.419   0.133  0.00  0.00    -0.276 OA
ATOM     27  N   UNL     1      -1.230  -0.453  -0.022  0.00  0.00    -0.315 N 
ATOM     28  H   UNL     1      -2.051   0.027  -0.213  0.00  0.00    +0.149 HD
ENDBRANCH  23  27
ENDBRANCH   1  23
TORSDOF 4
