REMARK  Name = ZINC43427025
REMARK  2 active torsions:
REMARK  status: ('A' for Active; 'I' for Inactive)
REMARK    1  A    between atoms: C_3  and  N_9
REMARK    2  A    between atoms: C_6  and  C_7
REMARK                            x       y       z     vdW  Elec       q    Type
REMARK                         _______ _______ _______ _____ _____    ______ ____
ROOT
ATOM      1  N   UNL     1       3.607   1.909  -0.023  0.00  0.00    -0.306 N 
ATOM      2  C   UNL     1       4.856   1.127  -0.045  0.00  0.00    +0.135 C 
ATOM      3  C   UNL     1       5.782   1.640   1.062  0.00  0.00    +0.179 C 
ATOM      4  O   UNL     1       5.911   3.063   0.966  0.00  0.00    -0.373 OA
ATOM      5  C   UNL     1       4.678   3.759   1.131  0.00  0.00    +0.139 C 
ATOM      6  C   UNL     1       3.730   3.372  -0.016  0.00  0.00    +0.104 C 
ATOM      7  C   UNL     1       2.372   4.032   0.216  0.00  0.00    +0.025 C 
ATOM      8  C   UNL     1       2.554   5.553   0.214  0.00  0.00    +0.002 C 
ATOM      9  C   UNL     1       3.530   5.965   1.316  0.00  0.00    +0.003 C 
ATOM     10  C   UNL     1       4.882   5.271   1.099  0.00  0.00    +0.033 C 
ENDROOT
BRANCH   1  13
ATOM     11  C   UNL     1       0.493   0.347  -1.151  0.00  0.00    +0.030 A 
ATOM     12  C   UNL     1       1.732   0.966  -1.215  0.00  0.00    +0.047 A 
ATOM     13  C   UNL     1       2.363   1.287  -0.014  0.00  0.00    +0.144 A 
ATOM     14  N   UNL     1       1.773   0.995   1.137  0.00  0.00    -0.134 NA
ATOM     15  N   UNL     1       0.626   0.421   1.188  0.00  0.00    -0.151 NA
ATOM     16  C   UNL     1      -0.041   0.084   0.102  0.00  0.00    +0.078 A 
BRANCH  16  17
ATOM     17  C   UNL     1      -1.385  -0.588   0.222  0.00  0.00    +0.165 C 
ATOM     18 CL   UNL     1      -1.160  -2.376   0.275  0.00  0.00    -0.119 Cl
ENDBRANCH  16  17
ENDBRANCH   1  13
TORSDOF 2
