REMARK  Name = ZINC01204058
REMARK  7 active torsions:
REMARK  status: ('A' for Active; 'I' for Inactive)
REMARK    1  A    between atoms: C_1  and  C_2
REMARK    2  A    between atoms: C_3  and  C_19
REMARK    3  A    between atoms: C_9  and  C_12
REMARK    4  A    between atoms: C_19  and  C_21
REMARK    5  A    between atoms: C_19  and  C_27
REMARK    6  A    between atoms: C_27  and  C_29
REMARK    7  A    between atoms: C_27  and  C_31
REMARK                            x       y       z     vdW  Elec       q    Type
REMARK                         _______ _______ _______ _____ _____    ______ ____
ROOT
ATOM      1  C   UNL     1       0.099   1.241   0.420  0.00  0.00    +0.065 C 
ATOM      2  C   UNL     1      -0.516   1.534  -0.924  0.00  0.00    +0.039 A 
ATOM      3  C   UNL     1      -0.770   2.761  -1.424  0.00  0.00    +0.048 A 
ATOM      4  C   UNL     1      -1.346   2.601  -2.705  0.00  0.00    +0.277 A 
ATOM      5  N   UNL     1      -1.429   1.278  -2.954  0.00  0.00    -0.194 N 
ATOM      6  N   UNL     1      -0.905   0.603  -1.844  0.00  0.00    -0.292 N 
ATOM      7  C   UNL     1      -1.938   0.691  -4.105  0.00  0.00    +0.196 A 
ATOM      8  N   UNL     1      -2.053  -0.588  -4.409  0.00  0.00    -0.221 NA
ATOM      9  C   UNL     1      -2.568  -0.976  -5.567  0.00  0.00    +0.080 A 
ATOM     10  C   UNL     1      -2.989  -0.033  -6.463  0.00  0.00    +0.077 A 
ATOM     11  S   UNL     1      -2.618   1.467  -5.564  0.00  0.00    -0.056 S 
ATOM     12  O   UNL     1      -1.704   3.497  -3.450  0.00  0.00    -0.265 OA
ATOM     13  H   UNL     1      -0.833  -0.359  -1.745  0.00  0.00    +0.187 HD
ENDROOT
BRANCH   9  14
ATOM     14  C   UNL     1      -2.687  -2.419  -5.887  0.00  0.00    +0.001 A 
ATOM     15  C   UNL     1      -3.224  -2.823  -7.108  0.00  0.00    +0.010 A 
ATOM     16  C   UNL     1      -3.332  -4.167  -7.401  0.00  0.00    +0.001 A 
ATOM     17  C   UNL     1      -2.909  -5.113  -6.484  0.00  0.00    +0.000 A 
ATOM     18  C   UNL     1      -2.376  -4.718  -5.271  0.00  0.00    +0.001 A 
ATOM     19  C   UNL     1      -2.257  -3.377  -4.970  0.00  0.00    +0.010 A 
ENDBRANCH   9  14
BRANCH   3  20
ATOM     20  C   UNL     1      -0.488   4.072  -0.737  0.00  0.00    +0.082 C 
BRANCH  20  21
ATOM     21  C   UNL     1       0.527   4.849  -1.535  0.00  0.00    -0.038 A 
ATOM     22  C   UNL     1       0.152   5.473  -2.710  0.00  0.00    +0.004 A 
ATOM     23  C   UNL     1       1.083   6.186  -3.442  0.00  0.00    +0.000 A 
ATOM     24  C   UNL     1       2.389   6.275  -2.999  0.00  0.00    +0.000 A 
ATOM     25  C   UNL     1       2.764   5.652  -1.823  0.00  0.00    +0.000 A 
ATOM     26  C   UNL     1       1.832   4.943  -1.089  0.00  0.00    +0.004 A 
ENDBRANCH  20  21
BRANCH  20  27
ATOM     27  C   UNL     1      -1.783   4.881  -0.633  0.00  0.00    +0.189 C 
BRANCH  27  28
ATOM     28  C   UNL     1      -2.798   4.104   0.165  0.00  0.00    +0.228 C 
ATOM     29  O   UNL     1      -3.248   4.570   1.190  0.00  0.00    -0.275 OA
ATOM     30  N   UNL     1      -3.205   2.892  -0.261  0.00  0.00    -0.328 N 
ATOM     31  H   UNL     1      -2.845   2.520  -1.081  0.00  0.00    +0.145 HD
ATOM     32  H   UNL     1      -3.858   2.392   0.253  0.00  0.00    +0.145 HD
ENDBRANCH  27  28
BRANCH  27  33
ATOM     33  C   UNL     1      -1.508   6.162   0.038  0.00  0.00    +0.076 C 
ATOM     34  N   UNL     1      -1.296   7.151   0.555  0.00  0.00    -0.196 NA
ENDBRANCH  27  33
ENDBRANCH  20  27
ENDBRANCH   3  20
TORSDOF 6
