REMARK  Name = ZINC23967917
REMARK  5 active torsions:
REMARK  status: ('A' for Active; 'I' for Inactive)
REMARK    1  A    between atoms: C_3  and  C_8
REMARK    2  A    between atoms: C_9  and  C_10
REMARK    3  A    between atoms: N_15  and  C_18
REMARK    4  A    between atoms: C_18  and  C_19
REMARK    5  A    between atoms: C_25  and  C_30
REMARK                            x       y       z     vdW  Elec       q    Type
REMARK                         _______ _______ _______ _____ _____    ______ ____
ROOT
ATOM      1  C   UNL     1       6.088   2.244  -0.045  0.00  0.00    +0.240 C 
ATOM      2  O   UNL     1       6.075   3.457  -0.135  0.00  0.00    -0.271 OA
ATOM      3  N   UNL     1       7.261   1.587   0.042  0.00  0.00    -0.296 N 
ATOM      4  C   UNL     1       7.306   0.117   0.030  0.00  0.00    +0.123 C 
ATOM      5  C   UNL     1       8.318  -0.331  -1.029  0.00  0.00    +0.104 C 
ATOM      6  N   UNL     1       9.607   0.327  -0.779  0.00  0.00    -0.292 NA
ATOM      7  C   UNL     1       9.495   1.786  -0.913  0.00  0.00    +0.104 C 
ATOM      8  C   UNL     1       8.531   2.321   0.145  0.00  0.00    +0.123 C 
ENDROOT
BRANCH   1  10
ATOM      9  C   UNL     1       3.653   2.159  -0.017  0.00  0.00    +0.013 C 
ATOM     10  C   UNL     1       4.828   1.498  -0.031  0.00  0.00    +0.068 C 
BRANCH   9  13
ATOM     11  C   UNL     1      -0.017   1.381   0.024  0.00  0.00    +0.002 A 
ATOM     12  C   UNL     1       1.166   2.091   0.012  0.00  0.00    +0.008 A 
ATOM     13  C   UNL     1       2.386   1.408  -0.003  0.00  0.00    -0.023 A 
ATOM     14  C   UNL     1       2.398   0.010  -0.005  0.00  0.00    +0.028 A 
ATOM     15  C   UNL     1       1.206  -0.686   0.008  0.00  0.00    +0.042 A 
ATOM     16  C   UNL     1       0.002  -0.002   0.022  0.00  0.00    +0.020 A 
ATOM     17 CL   UNL     1       1.217  -2.422   0.005  0.00  0.00    -0.084 Cl
ENDBRANCH   9  13
ENDBRANCH   1  10
BRANCH   6  18
ATOM     18  C   UNL     1      10.651  -0.204  -1.666  0.00  0.00    +0.158 C 
BRANCH  18  19
ATOM     19  C   UNL     1      11.996   0.308  -1.222  0.00  0.00    +0.125 A 
ATOM     20  N   UNL     1      13.109  -0.056  -1.909  0.00  0.00    -0.309 N 
ATOM     21  H   UNL     1      13.023  -0.642  -2.678  0.00  0.00    +0.170 HD
ATOM     22  C   UNL     1      14.330   0.380  -1.546  0.00  0.00    +0.260 A 
ATOM     23  O   UNL     1      15.319   0.044  -2.174  0.00  0.00    -0.267 OA
ATOM     24  C   UNL     1      14.448   1.244  -0.412  0.00  0.00    +0.080 A 
ATOM     25  C   UNL     1      15.644   1.842   0.172  0.00  0.00    +0.010 A 
ATOM     26  C   UNL     1      15.508   2.639   1.261  0.00  0.00    +0.057 A 
ATOM     27  S   UNL     1      13.751   2.629   1.564  0.00  0.00    -0.076 S 
ATOM     28  C   UNL     1      13.244   1.567   0.236  0.00  0.00    +0.116 A 
ATOM     29  N   UNL     1      12.072   1.100  -0.186  0.00  0.00    -0.225 NA
BRANCH  25  30
ATOM     30  C   UNL     1      16.977   1.585  -0.411  0.00  0.00    +0.021 A 
ATOM     31  C   UNL     1      17.956   2.478  -0.755  0.00  0.00    +0.016 A 
ATOM     32  C   UNL     1      19.133   1.998  -1.290  0.00  0.00    +0.008 A 
ATOM     33  C   UNL     1      19.285   0.660  -1.459  0.00  0.00    +0.046 A 
ATOM     34  S   UNL     1      17.733   0.026  -0.845  0.00  0.00    -0.097 S 
ENDBRANCH  25  30
ENDBRANCH  18  19
ENDBRANCH   6  18
TORSDOF 5
