REMARK  Name = ZINC08397142
REMARK  12 active torsions:
REMARK  status: ('A' for Active; 'I' for Inactive)
REMARK    1  A    between atoms: C_1  and  C_2
REMARK    2  A    between atoms: C_2  and  C_3
REMARK    3  A    between atoms: C_2  and  C_4
REMARK    4  A    between atoms: C_2  and  O_5
REMARK    5  A    between atoms: O_5  and  C_6
REMARK    6  A    between atoms: C_9  and  C_12
REMARK    7  A    between atoms: C_21  and  C_27
REMARK    8  A    between atoms: C_21  and  C_29
REMARK    9  A    between atoms: C_22  and  N_26
REMARK   10  A    between atoms: C_23  and  C_24
REMARK   11  A    between atoms: C_31  and  O_33
REMARK   12  A    between atoms: O_33  and  C_34
REMARK                            x       y       z     vdW  Elec       q    Type
REMARK                         _______ _______ _______ _____ _____    ______ ____
ROOT
ATOM      1  C   UNL     1      -2.740   2.164  -1.292  0.00  0.00    +0.070 C 
ATOM      2  C   UNL     1      -2.804   3.523  -1.998  0.00  0.00    +0.047 C 
ATOM      3  C   UNL     1      -4.045   4.267  -1.527  0.00  0.00    +0.120 C 
ATOM      4  N   UNL     1      -3.808   5.713  -1.498  0.00  0.00    -0.263 N 
ATOM      5  C   UNL     1      -2.668   6.190  -0.695  0.00  0.00    +0.138 C 
ATOM      6  C   UNL     1      -1.451   5.428  -1.144  0.00  0.00    -0.006 C 
ATOM      7  C   UNL     1      -1.534   4.273  -1.707  0.00  0.00    -0.027 C 
ATOM      8  C   UNL     1      -0.234   3.624  -2.150  0.00  0.00    +0.202 C 
ATOM      9  C   UNL     1      -0.296   2.151  -1.863  0.00  0.00    +0.054 C 
ATOM     10  C   UNL     1      -1.407   1.514  -1.501  0.00  0.00    +0.057 C 
ATOM     11  C   UNL     1      -4.597   6.569  -2.176  0.00  0.00    +0.403 C 
ATOM     12  O   UNL     1      -5.529   6.147  -2.831  0.00  0.00    -0.226 OA
ENDROOT
BRANCH   1  16
ATOM     13  C   UNL     1      -5.801  -0.376  -2.853  0.00  0.00    +0.121 A 
ATOM     14  C   UNL     1      -5.803  -0.031  -1.509  0.00  0.00    +0.046 A 
ATOM     15  C   UNL     1      -4.812   0.790  -1.007  0.00  0.00    +0.008 A 
ATOM     16  C   UNL     1      -3.819   1.268  -1.842  0.00  0.00    -0.038 A 
ATOM     17  C   UNL     1      -3.819   0.931  -3.183  0.00  0.00    +0.008 A 
ATOM     18  C   UNL     1      -4.804   0.105  -3.689  0.00  0.00    +0.046 A 
BRANCH  13  19
ATOM     19  O   UNL     1      -6.776  -1.183  -3.349  0.00  0.00    -0.487 OA
BRANCH  19  21
ATOM     20  C   UNL     1      -5.475  -2.145  -5.145  0.00  0.00    +0.055 C 
ATOM     21  C   UNL     1      -6.766  -1.420  -4.759  0.00  0.00    +0.102 C 
ATOM     22  C   UNL     1      -7.969  -2.285  -5.138  0.00  0.00    +0.055 C 
ATOM     23  C   UNL     1      -6.842  -0.085  -5.501  0.00  0.00    +0.055 C 
ENDBRANCH  19  21
ENDBRANCH  13  19
ENDBRANCH   1  16
BRANCH   9  24
ATOM     24  N   UNL     1       0.859   1.422  -1.976  0.00  0.00    -0.358 N 
ATOM     25  H   UNL     1       0.848   0.341  -1.774  0.00  0.00    +0.142 HD
ATOM     26  H   UNL     1       1.796   1.917  -2.269  0.00  0.00    +0.142 HD
ENDBRANCH   9  24
BRANCH  10  27
ATOM     27  C   UNL     1      -1.322   0.100  -1.297  0.00  0.00    +0.097 C 
ATOM     28  N   UNL     1      -1.255  -1.023  -1.134  0.00  0.00    -0.191 NA
ENDBRANCH  10  27
BRANCH   8  29
ATOM     29  C   UNL     1       0.893   4.221  -1.415  0.00  0.00    +0.095 C 
ATOM     30  N   UNL     1       1.762   4.682  -0.847  0.00  0.00    -0.194 NA
ENDBRANCH   8  29
BRANCH   8  31
ATOM     31  C   UNL     1      -0.049   3.837  -3.595  0.00  0.00    +0.095 C 
ATOM     32  N   UNL     1       0.093   4.002  -4.710  0.00  0.00    -0.194 NA
ENDBRANCH   8  31
BRANCH  11  33
ATOM     33  O   UNL     1      -4.352   7.892  -2.129  0.00  0.00    -0.454 OA
ATOM     34  C   UNL     1      -5.243   8.755  -2.885  0.00  0.00    +0.282 C 
ENDBRANCH  11  33
TORSDOF 8
