REMARK  Name = ZINC14980809
REMARK  7 active torsions:
REMARK  status: ('A' for Active; 'I' for Inactive)
REMARK    1  A    between atoms: C_5  and  C_7
REMARK    2  A    between atoms: C_10  and  C_12
REMARK    3  A    between atoms: C_12  and  N_60
REMARK    4  A    between atoms: C_19  and  C_21
REMARK    5  A    between atoms: N_23  and  C_24
REMARK    6  A    between atoms: C_24  and  C_25
REMARK    7  A    between atoms: C_25  and  C_26
REMARK                            x       y       z     vdW  Elec       q    Type
REMARK                         _______ _______ _______ _____ _____    ______ ____
ROOT
ATOM      1  C   UNL     1       7.902   1.776   4.010  0.00  0.00    -0.078 C 
ATOM      2  C   UNL     1       7.366   3.171   4.351  0.00  0.00    -0.011 C 
ATOM      3  C   UNL     1       7.823   4.149   3.265  0.00  0.00    -0.021 C 
ATOM      4  C   UNL     1       9.325   4.121   2.967  0.00  0.00    -0.011 C 
ATOM      5  C   UNL     1       9.745   2.670   2.708  0.00  0.00    -0.078 C 
ATOM      6  C   UNL     1       7.101   5.492   3.164  0.00  0.00    +0.020 C 
ATOM      7  C   UNL     1       6.870   4.416   2.100  0.00  0.00    +0.082 C 
ATOM      8  N   UNL     1       9.374   1.849   3.881  0.00  0.00    +0.384 N 
ATOM      9  H   UNL     1       9.760   2.284   4.727  0.00  0.00    -0.081 HD
ENDROOT
BRANCH   7  10
ATOM     10  C   UNL     1       5.543   3.702   2.109  0.00  0.00    +0.217 C 
ATOM     11  O   UNL     1       4.720   3.962   2.961  0.00  0.00    -0.275 OA
ATOM     12  N   UNL     1       5.271   2.775   1.169  0.00  0.00    -0.315 N 
ATOM     13  H   UNL     1       5.930   2.567   0.488  0.00  0.00    +0.149 HD
BRANCH  12  14
ATOM     14  C   UNL     1       3.982   2.080   1.177  0.00  0.00    +0.110 C 
BRANCH  14  15
ATOM     15  C   UNL     1       3.930   1.087   0.015  0.00  0.00    +0.074 C 
BRANCH  15  16
ATOM     16  C   UNL     1       2.603   0.373   0.023  0.00  0.00    +0.043 A 
ATOM     17  C   UNL     1       1.811   0.389  -1.110  0.00  0.00    +0.023 A 
ATOM     18  C   UNL     1       0.592  -0.270  -1.092  0.00  0.00    +0.003 A 
ATOM     19  C   UNL     1       0.215  -0.929   0.069  0.00  0.00    +0.020 A 
ATOM     20  C   UNL     1       1.057  -0.898   1.165  0.00  0.00    +0.111 A 
ATOM     21  N   UNL     1       2.210  -0.260   1.111  0.00  0.00    -0.260 NA
ENDBRANCH  15  16
ENDBRANCH  14  15
ENDBRANCH  12  14
ENDBRANCH   7  10
BRANCH   8  22
ATOM     22  C   UNL     1       9.935   0.490   3.743  0.00  0.00    -0.003 C 
BRANCH  22  26
ATOM     23  C   UNL     1      13.189   0.713   2.098  0.00  0.00    +0.136 A 
ATOM     24  C   UNL     1      13.593   0.762   3.395  0.00  0.00    +0.050 A 
ATOM     25  C   UNL     1      12.428   0.690   4.185  0.00  0.00    +0.043 A 
ATOM     26  C   UNL     1      11.383   0.593   3.341  0.00  0.00    +0.089 A 
ATOM     27  O   UNL     1      11.847   0.611   2.080  0.00  0.00    -0.462 OA
BRANCH  23  32
ATOM     28  C   UNL     1      15.859   1.803  -0.308  0.00  0.00    +0.001 A 
ATOM     29  C   UNL     1      15.723   0.857  -1.308  0.00  0.00    +0.001 A 
ATOM     30  C   UNL     1      14.766  -0.137  -1.205  0.00  0.00    +0.021 A 
ATOM     31  C   UNL     1      13.939  -0.190  -0.100  0.00  0.00    +0.052 A 
ATOM     32  C   UNL     1      14.071   0.762   0.913  0.00  0.00    +0.036 A 
ATOM     33  C   UNL     1      15.036   1.765   0.798  0.00  0.00    +0.013 A 
ATOM     34 CL   UNL     1      12.738  -1.437   0.028  0.00  0.00    -0.083 Cl
ENDBRANCH  23  32
ENDBRANCH  22  26
ENDBRANCH   8  22
TORSDOF 7
