REMARK  Name = ZINC62038973
REMARK  13 active torsions:
REMARK  status: ('A' for Active; 'I' for Inactive)
REMARK    1  A    between atoms: C_1  and  C_2
REMARK    2  A    between atoms: C_7  and  S_19
REMARK    3  A    between atoms: C_11  and  C_12
REMARK    4  A    between atoms: C_12  and  O_14
REMARK    5  A    between atoms: O_14  and  C_15
REMARK    6  A    between atoms: C_15  and  C_16
REMARK    7  A    between atoms: C_16  and  C_17
REMARK    8  A    between atoms: C_16  and  C_18
REMARK    9  A    between atoms: S_19  and  C_20
REMARK   10  A    between atoms: C_20  and  C_21
REMARK   11  A    between atoms: N_23  and  C_24
REMARK   12  A    between atoms: C_26  and  N_31
REMARK   13  A    between atoms: C_29  and  O_30
REMARK                            x       y       z     vdW  Elec       q    Type
REMARK                         _______ _______ _______ _____ _____    ______ ____
ROOT
ATOM      1  C   UNL     1      -0.099   1.498   0.012  0.00  0.00    +0.046 C 
ATOM      2  C   UNL     1      -0.073  -0.009   0.003  0.00  0.00    -0.015 A 
ATOM      3  C   UNL     1      -0.058  -0.732  -1.195  0.00  0.00    +0.076 A 
ATOM      4  C   UNL     1      -0.062  -0.220  -2.590  0.00  0.00    +0.282 A 
ATOM      5  O   UNL     1      -0.082   0.981  -2.806  0.00  0.00    -0.265 OA
ATOM      6  N   UNL     1      -0.045  -1.088  -3.605  0.00  0.00    -0.185 NA
ATOM      7  C   UNL     1      -0.023  -2.390  -3.416  0.00  0.00    +0.171 A 
ATOM      8  N   UNL     1      -0.018  -2.931  -2.165  0.00  0.00    -0.328 N 
ATOM      9  C   UNL     1      -0.035  -2.127  -1.065  0.00  0.00    +0.093 A 
ATOM     10  S   UNL     1      -0.035  -2.412   0.581  0.00  0.00    -0.064 S 
ATOM     11  C   UNL     1      -0.059  -0.729   1.165  0.00  0.00    +0.102 A 
ATOM     12  H   UNL     1      -0.002  -3.894  -2.057  0.00  0.00    +0.168 HD
ENDROOT
BRANCH  11  13
ATOM     13  C   UNL     1      -0.065  -0.239   2.543  0.00  0.00    +0.346 C 
ATOM     14  O   UNL     1      -0.085   0.957   2.764  0.00  0.00    -0.244 OA
BRANCH  13  15
ATOM     15  O   UNL     1      -0.048  -1.114   3.570  0.00  0.00    -0.461 OA
BRANCH  15  16
ATOM     16  C   UNL     1      -0.055  -0.566   4.890  0.00  0.00    +0.235 C 
BRANCH  16  17
ATOM     17  C   UNL     1      -0.034  -1.702   5.914  0.00  0.00    +0.020 C 
ATOM     18  C   UNL     1       1.287  -2.467   5.800  0.00  0.00    +0.010 C 
ATOM     19  C   UNL     1      -0.167  -1.121   7.323  0.00  0.00    +0.010 C 
ENDBRANCH  16  17
ENDBRANCH  15  16
ENDBRANCH  13  15
ENDBRANCH  11  13
BRANCH   7  20
ATOM     20  S   UNL     1      -0.001  -3.461  -4.815  0.00  0.00    -0.078 S 
BRANCH  20  21
ATOM     21  C   UNL     1      -0.017  -2.331  -6.233  0.00  0.00    +0.173 C 
BRANCH  21  22
ATOM     22  C   UNL     1       0.000  -3.129  -7.511  0.00  0.00    +0.228 C 
ATOM     23  O   UNL     1       0.021  -4.341  -7.470  0.00  0.00    -0.275 OA
ATOM     24  N   UNL     1      -0.007  -2.495  -8.701  0.00  0.00    -0.282 N 
ATOM     25  H   UNL     1      -0.089  -1.530  -8.736  0.00  0.00    +0.155 HD
BRANCH  24  26
ATOM     26  C   UNL     1       0.102  -3.232  -9.888  0.00  0.00    +0.078 A 
ATOM     27  C   UNL     1      -0.471  -4.492  -9.980  0.00  0.00    +0.059 A 
ATOM     28  C   UNL     1      -0.361  -5.217 -11.151  0.00  0.00    +0.128 A 
ATOM     29  C   UNL     1       0.319  -4.690 -12.233  0.00  0.00    +0.036 A 
ATOM     30  C   UNL     1       0.894  -3.436 -12.149  0.00  0.00    +0.049 A 
ATOM     31  C   UNL     1       0.783  -2.700 -10.980  0.00  0.00    +0.138 A 
BRANCH  28  32
ATOM     32  N   UNL     1      -0.974  -6.562 -11.247  0.00  0.00    +0.056 N 
ATOM     33  O   UNL     1      -1.569  -7.024 -10.302  0.00  0.00    -0.126 OA
ATOM     34  O   UNL     1      -0.879  -7.197 -12.271  0.00  0.00    -0.126 OA
ENDBRANCH  28  32
BRANCH  31  35
ATOM     35  O   UNL     1       1.342  -1.463 -10.898  0.00  0.00    -0.505 OA
ATOM     36  H   UNL     1       2.256  -1.465 -10.581  0.00  0.00    +0.292 HD
ENDBRANCH  31  35
ENDBRANCH  24  26
ENDBRANCH  21  22
ENDBRANCH  20  21
ENDBRANCH   7  20
TORSDOF 10
