REMARK  Name = ZINC07487580
REMARK  12 active torsions:
REMARK  status: ('A' for Active; 'I' for Inactive)
REMARK    1  A    between atoms: C_1  and  C_2
REMARK    2  A    between atoms: C_2  and  N_3
REMARK    3  A    between atoms: C_7  and  S_22
REMARK    4  A    between atoms: C_11  and  C_12
REMARK    5  A    between atoms: C_12  and  N_56
REMARK    6  A    between atoms: C_13  and  N_56
REMARK    7  A    between atoms: C_14  and  C_15
REMARK    8  A    between atoms: C_14  and  N_56
REMARK    9  A    between atoms: C_20  and  C_21
REMARK   10  A    between atoms: S_22  and  N_25
REMARK   11  A    between atoms: N_25  and  C_26
REMARK   12  A    between atoms: N_25  and  C_27
REMARK                            x       y       z     vdW  Elec       q    Type
REMARK                         _______ _______ _______ _____ _____    ______ ____
ROOT
ATOM      1  N   UNL     1       1.255   1.782  -0.000  0.00  0.00    -0.329 N 
ATOM      2  C   UNL     1       2.109   0.697  -0.014  0.00  0.00    +0.069 A 
ATOM      3  C   UNL     1       3.490   0.552  -0.028  0.00  0.00    +0.030 A 
ATOM      4  C   UNL     1       4.044  -0.710  -0.040  0.00  0.00    +0.030 A 
ATOM      5  C   UNL     1       3.232  -1.835  -0.038  0.00  0.00    +0.108 A 
ATOM      6  C   UNL     1       1.872  -1.712  -0.025  0.00  0.00    +0.058 A 
ATOM      7  C   UNL     1       1.287  -0.443  -0.013  0.00  0.00    +0.091 A 
ATOM      8  N   UNL     1       0.002  -0.004   0.002  0.00  0.00    -0.234 NA
ATOM      9  C   UNL     1      -0.016   1.297   0.009  0.00  0.00    +0.094 A 
ENDROOT
BRANCH   5  10
ATOM     10  S   UNL     1       3.963  -3.438  -0.054  0.00  0.00    +0.060 S 
ATOM     11  O   UNL     1       2.994  -4.321  -0.601  0.00  0.00    -0.153 OA
ATOM     12  O   UNL     1       5.260  -3.288  -0.616  0.00  0.00    -0.153 OA
BRANCH  10  13
ATOM     13  N   UNL     1       4.181  -3.892   1.524  0.00  0.00    -0.183 NA
ATOM     14  C   UNL     1       3.123  -4.620   2.229  0.00  0.00    +0.131 C 
ATOM     15  C   UNL     1       5.431  -3.567   2.214  0.00  0.00    +0.131 C 
ENDBRANCH  10  13
ENDBRANCH   5  10
BRANCH   1  17
ATOM     16  C   UNL     1       1.796   3.677   1.447  0.00  0.00    +0.027 C 
ATOM     17  C   UNL     1       1.646   3.194   0.004  0.00  0.00    +0.120 C 
ENDBRANCH   1  17
BRANCH   9  18
ATOM     18  C   UNL     1      -1.262   2.143   0.020  0.00  0.00    -0.003 C 
BRANCH  18  20
ATOM     19  C   UNL     1      -2.072   1.175   2.086  0.00  0.00    -0.095 C 
ATOM     20  N   UNL     1      -1.637   2.422   1.422  0.00  0.00    +0.385 N 
ATOM     21  H   UNL     1      -0.820   2.796   1.918  0.00  0.00    -0.081 HD
BRANCH  20  22
ATOM     22  C   UNL     1      -2.725   3.422   1.465  0.00  0.00    -0.043 C 
BRANCH  22  23
ATOM     23  C   UNL     1      -2.936   3.850   2.895  0.00  0.00    -0.061 A 
ATOM     24  C   UNL     1      -3.988   3.328   3.624  0.00  0.00    +0.002 A 
ATOM     25  C   UNL     1      -4.178   3.716   4.937  0.00  0.00    +0.000 A 
ATOM     26  C   UNL     1      -3.323   4.635   5.517  0.00  0.00    +0.000 A 
ATOM     27  C   UNL     1      -2.275   5.161   4.786  0.00  0.00    +0.003 A 
ATOM     28  C   UNL     1      -2.081   4.768   3.474  0.00  0.00    -0.049 A 
ATOM     29  C   UNL     1      -0.938   5.341   2.677  0.00  0.00    +0.044 C 
ENDBRANCH  22  23
ENDBRANCH  20  22
ENDBRANCH  18  20
ENDBRANCH   9  18
TORSDOF 7
