REMARK  Name = ZINC64789097
REMARK  5 active torsions:
REMARK  status: ('A' for Active; 'I' for Inactive)
REMARK    1  A    between atoms: C_1  and  C_2
REMARK    2  A    between atoms: C_4  and  C_31
REMARK    3  A    between atoms: C_6  and  N_8
REMARK    4  A    between atoms: C_20  and  C_23
REMARK    5  A    between atoms: C_28  and  C_30
REMARK                            x       y       z     vdW  Elec       q    Type
REMARK                         _______ _______ _______ _____ _____    ______ ____
ROOT
ATOM      1  N   UNL     1       0.051  -2.798   2.395  0.00  0.00    -0.190 N 
ATOM      2  C   UNL     1       0.145  -2.119   3.557  0.00  0.00    +0.265 C 
ATOM      3  O   UNL     1       0.216  -0.904   3.566  0.00  0.00    -0.269 OA
ATOM      4  C   UNL     1       0.159  -2.887   4.814  0.00  0.00    +0.118 C 
ATOM      5  C   UNL     1       0.068  -4.354   4.704  0.00  0.00    +0.258 C 
ATOM      6  N   UNL     1      -0.021  -4.898   3.473  0.00  0.00    -0.235 N 
ATOM      7  C   UNL     1      -0.033  -4.136   2.370  0.00  0.00    +0.320 C 
ATOM      8  O   UNL     1      -0.120  -4.687   1.291  0.00  0.00    -0.251 OA
ATOM      9  O   UNL     1       0.074  -5.056   5.698  0.00  0.00    -0.270 OA
ATOM     10  C   UNL     1       0.253  -2.260   6.042  0.00  0.00    +0.041 C 
ATOM     11  N   UNL     1       0.334  -0.936   6.238  0.00  0.00    -0.264 N 
ATOM     12  N   UNL     1       0.419  -0.587   7.584  0.00  0.00    -0.215 N 
ATOM     13  C   UNL     1       0.394  -1.806   8.405  0.00  0.00    +0.139 C 
ATOM     14  C   UNL     1       0.275  -2.954   7.385  0.00  0.00    +0.082 C 
ATOM     15  C   UNL     1       0.511   0.671   8.059  0.00  0.00    +0.229 C 
ATOM     16  O   UNL     1       0.580   0.864   9.255  0.00  0.00    -0.274 OA
ATOM     17  C   UNL     1       0.526   1.837   7.105  0.00  0.00    +0.111 C 
ATOM     18  H   UNL     1      -0.082  -5.862   3.383  0.00  0.00    +0.159 HD
ATOM     19  H   UNL     1       0.334  -0.287   5.516  0.00  0.00    +0.170 HD
ENDROOT
BRANCH   1  25
ATOM     20  C   UNL     1       2.500  -0.800  -1.373  0.00  0.00    +0.044 C 
ATOM     21  C   UNL     1       1.208  -1.107  -0.660  0.00  0.00    -0.048 A 
ATOM     22  C   UNL     1       0.006  -0.688  -1.200  0.00  0.00    +0.006 A 
ATOM     23  C   UNL     1      -1.182  -0.968  -0.549  0.00  0.00    -0.048 A 
ATOM     24  C   UNL     1      -1.170  -1.667   0.643  0.00  0.00    +0.027 A 
ATOM     25  C   UNL     1       0.036  -2.089   1.186  0.00  0.00    +0.046 A 
ATOM     26  C   UNL     1       1.226  -1.811   0.528  0.00  0.00    +0.027 A 
ATOM     27  C   UNL     1      -2.490  -0.509  -1.139  0.00  0.00    +0.044 C 
ENDBRANCH   1  25
BRANCH  13  28
ATOM     28  C   UNL     1      -0.801  -1.796   9.324  0.00  0.00    +0.012 A 
ATOM     29  C   UNL     1      -0.891  -2.214  10.610  0.00  0.00    +0.013 A 
ATOM     30  C   UNL     1      -2.103  -2.108  11.266  0.00  0.00    +0.008 A 
ATOM     31  C   UNL     1      -3.166  -1.590  10.603  0.00  0.00    +0.045 A 
ATOM     32  S   UNL     1      -2.461  -1.225   9.004  0.00  0.00    -0.100 S 
ENDBRANCH  13  28
TORSDOF 2
