REMARK  Name = ZINC13819416
REMARK  10 active torsions:
REMARK  status: ('A' for Active; 'I' for Inactive)
REMARK    1  A    between atoms: C_4  and  C_7
REMARK    2  A    between atoms: N_10  and  C_31
REMARK    3  A    between atoms: C_12  and  C_14
REMARK    4  A    between atoms: C_14  and  N_15
REMARK    5  A    between atoms: C_18  and  C_21
REMARK    6  A    between atoms: C_18  and  O_30
REMARK    7  A    between atoms: C_21  and  C_22
REMARK    8  A    between atoms: C_22  and  C_23
REMARK    9  A    between atoms: C_23  and  C_24
REMARK   10  A    between atoms: C_31  and  C_32
REMARK                            x       y       z     vdW  Elec       q    Type
REMARK                         _______ _______ _______ _____ _____    ______ ____
ROOT
ATOM      1  C   UNL     1       4.644  -1.004  -2.365  0.00  0.00    -0.074 C 
ENDROOT
BRANCH   1   2
ATOM      2  N   UNL     1       4.615  -1.854  -3.562  0.00  0.00    +0.380 N 
ATOM      3  C   UNL     1       3.247  -1.904  -4.092  0.00  0.00    -0.076 C 
ATOM      4  C   UNL     1       3.195  -2.853  -5.292  0.00  0.00    +0.016 C 
ATOM      5  C   UNL     1       4.147  -2.345  -6.379  0.00  0.00    +0.063 C 
ATOM      6  C   UNL     1       5.557  -2.226  -5.793  0.00  0.00    +0.016 C 
ATOM      7  C   UNL     1       5.522  -1.301  -4.575  0.00  0.00    -0.076 C 
ATOM      8  H   UNL     1       4.913  -2.787  -3.319  0.00  0.00    -0.082 HD
BRANCH   5   9
ATOM      9  O   UNL     1       3.710  -1.063  -6.836  0.00  0.00    -0.389 OA
ATOM     10  H   UNL     1       4.268  -0.681  -7.527  0.00  0.00    +0.210 HD
ENDBRANCH   5   9
BRANCH   5  11
ATOM     11  C   UNL     1       4.160  -3.330  -7.549  0.00  0.00    +0.035 C 
BRANCH  11  12
ATOM     12  C   UNL     1       5.202  -2.888  -8.577  0.00  0.00    +0.007 C 
BRANCH  12  13
ATOM     13  C   UNL     1       5.215  -3.873  -9.747  0.00  0.00    +0.035 C 
BRANCH  13  14
ATOM     14  C   UNL     1       6.242  -3.437 -10.760  0.00  0.00    -0.044 A 
ATOM     15  C   UNL     1       5.901  -2.576 -11.792  0.00  0.00    +0.023 A 
ATOM     16  C   UNL     1       6.869  -2.198 -12.702  0.00  0.00    +0.111 A 
ATOM     17  N   UNL     1       8.105  -2.646 -12.598  0.00  0.00    -0.263 NA
ATOM     18  C   UNL     1       8.466  -3.466 -11.630  0.00  0.00    +0.111 A 
ATOM     19  C   UNL     1       7.553  -3.883 -10.680  0.00  0.00    +0.023 A 
ENDBRANCH  13  14
ENDBRANCH  12  13
ENDBRANCH  11  12
ENDBRANCH   5  11
ENDBRANCH   1   2
BRANCH   1  24
ATOM     20  C   UNL     1       3.711  -0.707  -0.038  0.00  0.00    +0.036 C 
ATOM     21  C   UNL     1       3.808  -1.685   1.160  0.00  0.00    +0.092 C 
ATOM     22  N   UNL     1       4.785  -2.701   0.691  0.00  0.00    -0.301 NA
ATOM     23  C   UNL     1       4.476  -2.927  -0.738  0.00  0.00    +0.086 C 
ATOM     24  C   UNL     1       3.797  -1.645  -1.263  0.00  0.00    -0.005 C 
BRANCH  20  28
ATOM     25  C   UNL     1      -0.017   1.378   0.010  0.00  0.00    +0.000 A 
ATOM     26  C   UNL     1       1.171   2.086   0.002  0.00  0.00    +0.000 A 
ATOM     27  C   UNL     1       2.377   1.411  -0.013  0.00  0.00    +0.004 A 
ATOM     28  C   UNL     1       2.396   0.029  -0.020  0.00  0.00    -0.043 A 
ATOM     29  C   UNL     1       1.208  -0.679  -0.012  0.00  0.00    +0.004 A 
ATOM     30  C   UNL     1       0.002  -0.004   0.002  0.00  0.00    +0.000 A 
ENDBRANCH  20  28
BRANCH  22  31
ATOM     31  C   UNL     1       4.659  -3.947   1.460  0.00  0.00    +0.088 C 
BRANCH  31  32
ATOM     32  C   UNL     1       5.158  -3.717   2.888  0.00  0.00    +0.003 C 
ATOM     33  C   UNL     1       6.656  -3.407   2.861  0.00  0.00    +0.005 C 
ATOM     34  C   UNL     1       7.155  -3.177   4.289  0.00  0.00    +0.000 C 
ATOM     35  C   UNL     1       6.909  -4.436   5.124  0.00  0.00    +0.000 C 
ATOM     36  C   UNL     1       5.411  -4.746   5.151  0.00  0.00    +0.000 C 
ATOM     37  C   UNL     1       4.912  -4.975   3.722  0.00  0.00    +0.005 C 
ENDBRANCH  31  32
ENDBRANCH  22  31
ENDBRANCH   1  24
TORSDOF 10
