REMARK  Name = ZINC40148944
REMARK  8 active torsions:
REMARK  status: ('A' for Active; 'I' for Inactive)
REMARK    1  A    between atoms: C_1  and  C_2
REMARK    2  A    between atoms: C_2  and  C_3
REMARK    3  A    between atoms: C_2  and  C_4
REMARK    4  A    between atoms: C_2  and  O_5
REMARK    5  A    between atoms: O_5  and  C_6
REMARK    6  A    between atoms: C_12  and  C_15
REMARK    7  A    between atoms: N_17  and  C_18
REMARK    8  A    between atoms: C_25  and  C_27
REMARK                            x       y       z     vdW  Elec       q    Type
REMARK                         _______ _______ _______ _____ _____    ______ ____
ROOT
ATOM      1  C   UNL     1       8.406   0.157  -2.512  0.00  0.00    +0.090 C 
ATOM      2  C   UNL     1       9.357  -0.966  -2.094  0.00  0.00    +0.025 C 
ATOM      3  C   UNL     1      10.793  -0.584  -2.463  0.00  0.00    +0.021 C 
ATOM      4  C   UNL     1      11.188   0.690  -1.710  0.00  0.00    +0.108 C 
ATOM      5  N   UNL     1      10.194   1.734  -1.993  0.00  0.00    -0.299 N 
ATOM      6  C   UNL     1       8.773   1.440  -1.760  0.00  0.00    +0.130 C 
ATOM      7  C   UNL     1      10.578   2.940  -2.457  0.00  0.00    +0.222 C 
ATOM      8  O   UNL     1       9.744   3.760  -2.776  0.00  0.00    -0.275 OA
ENDROOT
BRANCH   7   9
ATOM      9  C   UNL     1      12.044   3.268  -2.580  0.00  0.00    +0.048 C 
ATOM     10  C   UNL     1      12.740   3.001  -1.244  0.00  0.00    +0.019 C 
ATOM     11  C   UNL     1      14.228   3.334  -1.369  0.00  0.00    -0.009 C 
ATOM     12  C   UNL     1      14.391   4.809  -1.744  0.00  0.00    +0.007 C 
ATOM     13  C   UNL     1      13.694   5.076  -3.080  0.00  0.00    -0.009 C 
ATOM     14  C   UNL     1      12.206   4.742  -2.955  0.00  0.00    +0.019 C 
ATOM     15  C   UNL     1      14.323   4.201  -4.166  0.00  0.00    +0.007 C 
ATOM     16  C   UNL     1      14.161   2.727  -3.792  0.00  0.00    -0.009 C 
ATOM     17  C   UNL     1      14.857   2.460  -2.456  0.00  0.00    +0.007 C 
ATOM     18  C   UNL     1      12.673   2.393  -3.667  0.00  0.00    +0.019 C 
ENDBRANCH   7   9
BRANCH   1  21
ATOM     19  C   UNL     1       6.314  -0.971  -3.051  0.00  0.00    +0.218 C 
ATOM     20  O   UNL     1       6.812  -1.331  -4.097  0.00  0.00    -0.275 OA
ATOM     21  N   UNL     1       7.029  -0.222  -2.187  0.00  0.00    -0.311 N 
ATOM     22  H   UNL     1       6.631   0.065  -1.351  0.00  0.00    +0.149 HD
BRANCH  19  29
ATOM     23  C   UNL     1       1.952  -0.060  -1.271  0.00  0.00    +0.403 C 
ATOM     24  O   UNL     1       2.482   0.675  -0.462  0.00  0.00    -0.226 OA
ATOM     25  N   UNL     1       2.647  -0.498  -2.339  0.00  0.00    -0.267 N 
ATOM     26  C   UNL     1       2.018  -1.382  -3.330  0.00  0.00    +0.111 C 
ATOM     27  C   UNL     1       2.891  -2.630  -3.502  0.00  0.00    +0.020 C 
ATOM     28  C   UNL     1       4.318  -2.204  -3.855  0.00  0.00    +0.016 C 
ATOM     29  C   UNL     1       4.898  -1.362  -2.716  0.00  0.00    +0.092 C 
ATOM     30  C   UNL     1       4.046  -0.096  -2.539  0.00  0.00    +0.123 C 
BRANCH  23  31
ATOM     31  O   UNL     1       0.671  -0.436  -1.101  0.00  0.00    -0.445 OA
BRANCH  31  33
ATOM     32  C   UNL     1      -0.029   1.595   0.005  0.00  0.00    +0.055 C 
ATOM     33  C   UNL     1      -0.005   0.066   0.054  0.00  0.00    +0.107 C 
ATOM     34  C   UNL     1       0.729  -0.393   1.315  0.00  0.00    +0.055 C 
ATOM     35  C   UNL     1      -1.440  -0.466   0.076  0.00  0.00    +0.055 C 
ENDBRANCH  31  33
ENDBRANCH  23  31
ENDBRANCH  19  29
ENDBRANCH   1  21
TORSDOF 5
