REMARK  Name = ZINC22455901
REMARK  3 active torsions:
REMARK  status: ('A' for Active; 'I' for Inactive)
REMARK    1  A    between atoms: C_4  and  N_7
REMARK    2  A    between atoms: N_11  and  C_13
REMARK    3  A    between atoms: C_21  and  C_26
REMARK                            x       y       z     vdW  Elec       q    Type
REMARK                         _______ _______ _______ _____ _____    ______ ____
ROOT
ATOM      1  N   UNL     1      -3.395   2.637  -3.034  0.00  0.00    -0.297 N 
ATOM      2  C   UNL     1      -2.315   2.085  -2.346  0.00  0.00    +0.156 A 
ATOM      3  C   UNL     1      -2.211   1.885  -0.914  0.00  0.00    +0.080 A 
ATOM      4  C   UNL     1      -0.964   1.311  -0.672  0.00  0.00    +0.058 A 
ATOM      5  N   UNL     1      -0.358   1.168  -1.849  0.00  0.00    -0.234 N 
ATOM      6  N   UNL     1      -1.191   1.645  -2.870  0.00  0.00    -0.150 NA
ATOM      7  C   UNL     1      -0.483   0.954   0.710  0.00  0.00    +0.068 C 
ATOM      8  C   UNL     1      -1.284   1.751   1.745  0.00  0.00    +0.068 C 
ATOM      9  C   UNL     1      -2.789   1.571   1.520  0.00  0.00    +0.091 C 
ATOM     10  C   UNL     1      -3.152   2.178   0.172  0.00  0.00    +0.169 C 
ATOM     11  O   UNL     1      -4.146   2.854   0.009  0.00  0.00    -0.292 OA
ATOM     12  H   UNL     1      -4.248   3.051  -2.477  0.00  0.00    +0.154 HD
ENDROOT
BRANCH   5  13
ATOM     13  C   UNL     1       0.919   0.623  -2.039  0.00  0.00    +0.066 A 
ATOM     14  C   UNL     1       1.799   1.208  -2.939  0.00  0.00    +0.029 A 
ATOM     15  C   UNL     1       3.059   0.672  -3.120  0.00  0.00    +0.022 A 
ATOM     16  C   UNL     1       3.441  -0.454  -2.412  0.00  0.00    +0.041 A 
ATOM     17  C   UNL     1       2.563  -1.043  -1.518  0.00  0.00    +0.022 A 
ATOM     18  C   UNL     1       1.304  -0.508  -1.330  0.00  0.00    +0.029 A 
ATOM     19 CL   UNL     1       5.023  -1.129  -2.646  0.00  0.00    -0.084 Cl
ENDBRANCH   5  13
BRANCH   1  23
ATOM     20  C   UNL     1      -3.391   2.715  -7.198  0.00  0.00    +0.000 A 
ATOM     21  C   UNL     1      -2.689   1.732  -6.526  0.00  0.00    +0.002 A 
ATOM     22  C   UNL     1      -2.688   1.703  -5.145  0.00  0.00    +0.023 A 
ATOM     23  C   UNL     1      -3.393   2.663  -4.431  0.00  0.00    +0.032 A 
ATOM     24  C   UNL     1      -4.102   3.647  -5.109  0.00  0.00    +0.023 A 
ATOM     25  C   UNL     1      -4.095   3.673  -6.490  0.00  0.00    +0.002 A 
ENDBRANCH   1  23
BRANCH   8  26
ATOM     26  C   UNL     1      -0.926   1.270   3.127  0.00  0.00    +0.109 A 
ATOM     27  C   UNL     1      -0.393   2.020   4.108  0.00  0.00    +0.045 A 
ATOM     28  C   UNL     1      -0.221   1.172   5.226  0.00  0.00    +0.041 A 
ATOM     29  C   UNL     1      -0.659  -0.046   4.861  0.00  0.00    +0.195 A 
ATOM     30  O   UNL     1      -1.090   0.020   3.591  0.00  0.00    -0.468 OA
ENDBRANCH   8  26
TORSDOF 3
