REMARK  Name = ZINC16688380
REMARK  13 active torsions:
REMARK  status: ('A' for Active; 'I' for Inactive)
REMARK    1  A    between atoms: C_1  and  C_2
REMARK    2  A    between atoms: C_2  and  O_3
REMARK    3  A    between atoms: O_3  and  C_4
REMARK    4  A    between atoms: C_6  and  C_14
REMARK    5  A    between atoms: C_9  and  O_10
REMARK    6  A    between atoms: O_10  and  C_11
REMARK    7  A    between atoms: C_11  and  C_12
REMARK    8  A    between atoms: C_14  and  N_50
REMARK    9  A    between atoms: C_15  and  C_16
REMARK   10  A    between atoms: C_15  and  N_50
REMARK   11  A    between atoms: C_16  and  N_17
REMARK   12  A    between atoms: N_17  and  C_18
REMARK   13  A    between atoms: C_21  and  N_25
REMARK                            x       y       z     vdW  Elec       q    Type
REMARK                         _______ _______ _______ _____ _____    ______ ____
ROOT
ATOM      1  N   UNL     1      -0.732   1.579  -1.182  0.00  0.00    +0.383 N 
ATOM      2  H   UNL     1      -0.746   2.605  -1.168  0.00  0.00    -0.085 HD
ATOM      3  H   UNL     1      -1.695   1.223  -1.167  0.00  0.00    -0.085 HD
ENDROOT
BRANCH   1   4
ATOM      4  C   UNL     1      -0.013   1.086   0.008  0.00  0.00    -0.047 C 
BRANCH   4   7
ATOM      5  C   UNL     1      -1.010   3.231   2.954  0.00  0.00    +0.164 A 
ATOM      6  C   UNL     1      -0.359   2.779   1.817  0.00  0.00    +0.051 A 
ATOM      7  C   UNL     1      -0.718   1.572   1.248  0.00  0.00    -0.059 A 
ATOM      8  C   UNL     1      -1.719   0.806   1.817  0.00  0.00    +0.025 A 
ATOM      9  C   UNL     1      -2.370   1.249   2.954  0.00  0.00    +0.086 A 
ATOM     10  C   UNL     1      -2.018   2.462   3.527  0.00  0.00    +0.180 A 
ATOM     11 CL   UNL     1      -3.627   0.285   3.666  0.00  0.00    -0.080 Cl
BRANCH   5  12
ATOM     12  O   UNL     1      -0.660   4.421   3.512  0.00  0.00    -0.489 OA
BRANCH  12  14
ATOM     13  C   UNL     1       0.634   6.457   3.636  0.00  0.00    +0.048 C 
ATOM     14  C   UNL     1       0.383   5.157   2.871  0.00  0.00    +0.226 C 
ENDBRANCH  12  14
ENDBRANCH   5  12
BRANCH  10  15
ATOM     15  O   UNL     1      -2.656   2.898   4.646  0.00  0.00    -0.487 OA
BRANCH  15  16
ATOM     16  C   UNL     1      -2.098   2.514   5.903  0.00  0.00    +0.226 C 
ATOM     17  C   UNL     1      -2.946   3.095   7.037  0.00  0.00    +0.048 C 
ENDBRANCH  15  16
ENDBRANCH  10  15
ENDBRANCH   4   7
ENDBRANCH   1   4
BRANCH   1  18
ATOM     18  C   UNL     1      -0.062   1.117  -2.413  0.00  0.00    -0.063 C 
BRANCH  18  19
ATOM     19  C   UNL     1      -0.829   1.643  -3.628  0.00  0.00    +0.082 C 
BRANCH  19  20
ATOM     20  N   UNL     1      -0.171   1.188  -4.855  0.00  0.00    -0.345 N 
ATOM     21  H   UNL     1       0.628   0.640  -4.802  0.00  0.00    +0.146 HD
BRANCH  20  22
ATOM     22  C   UNL     1      -0.692   1.545  -6.101  0.00  0.00    +0.046 A 
ATOM     23  C   UNL     1      -1.835   2.330  -6.178  0.00  0.00    +0.026 A 
ATOM     24  C   UNL     1      -2.348   2.681  -7.412  0.00  0.00    +0.034 A 
ATOM     25  C   UNL     1      -1.726   2.252  -8.570  0.00  0.00    +0.128 A 
ATOM     26  C   UNL     1      -0.587   1.470  -8.497  0.00  0.00    +0.054 A 
ATOM     27  C   UNL     1      -0.065   1.120  -7.266  0.00  0.00    +0.064 A 
ATOM     28 CL   UNL     1       1.368   0.145  -7.176  0.00  0.00    -0.082 Cl
BRANCH  25  29
ATOM     29  N   UNL     1      -2.278   2.631  -9.889  0.00  0.00    +0.056 N 
ATOM     30  O   UNL     1      -3.281   3.320  -9.955  0.00  0.00    -0.126 OA
ATOM     31  O   UNL     1      -1.731   2.254 -10.910  0.00  0.00    -0.126 OA
ENDBRANCH  25  29
ENDBRANCH  20  22
ENDBRANCH  19  20
ENDBRANCH  18  19
ENDBRANCH   1  18
TORSDOF 11
