REMARK  Name = ZINC06859585
REMARK  10 active torsions:
REMARK  status: ('A' for Active; 'I' for Inactive)
REMARK    1  A    between atoms: C_1  and  N_45
REMARK    2  A    between atoms: C_2  and  C_3
REMARK    3  A    between atoms: C_2  and  N_45
REMARK    4  A    between atoms: C_3  and  C_4
REMARK    5  A    between atoms: C_4  and  N_5
REMARK    6  A    between atoms: N_5  and  S_6
REMARK    7  A    between atoms: S_6  and  C_9
REMARK    8  A    between atoms: C_11  and  C_14
REMARK    9  A    between atoms: C_17  and  C_18
REMARK   10  A    between atoms: C_17  and  N_45
REMARK                            x       y       z     vdW  Elec       q    Type
REMARK                         _______ _______ _______ _____ _____    ______ ____
ROOT
ATOM      1  N   UNL     1      -0.897   1.885  -1.312  0.00  0.00    -0.190 NA
ATOM      2  H   UNL     1      -1.263   1.218  -1.913  0.00  0.00    +0.148 HD
ENDROOT
BRANCH   1   3
ATOM      3  S   UNL     1      -0.017   1.417   0.010  0.00  0.00    +0.059 S 
ATOM      4  O   UNL     1       0.002  -0.004   0.002  0.00  0.00    -0.153 OA
ATOM      5  O   UNL     1       1.172   2.195   0.003  0.00  0.00    -0.153 OA
BRANCH   3   6
ATOM      6  C   UNL     1      -0.927   1.900   1.439  0.00  0.00    +0.113 A 
ATOM      7  C   UNL     1      -0.725   3.134   2.006  0.00  0.00    +0.049 A 
ATOM      8  C   UNL     1      -1.480   3.445   3.126  0.00  0.00    +0.076 A 
ATOM      9  S   UNL     1      -2.446   1.960   3.341  0.00  0.00    -0.090 S 
ATOM     10  C   UNL     1      -1.832   1.054   1.997  0.00  0.00    +0.074 A 
BRANCH   8  11
ATOM     11  C   UNL     1      -1.482   4.672   3.928  0.00  0.00    +0.248 C 
ATOM     12  O   UNL     1      -0.747   5.595   3.629  0.00  0.00    -0.270 OA
ATOM     13  N   UNL     1      -2.297   4.779   4.996  0.00  0.00    -0.325 N 
ATOM     14  H   UNL     1      -2.883   4.043   5.234  0.00  0.00    +0.145 HD
ATOM     15  H   UNL     1      -2.298   5.591   5.526  0.00  0.00    +0.145 HD
ENDBRANCH   8  11
ENDBRANCH   3   6
ENDBRANCH   1   3
BRANCH   1  16
ATOM     16  C   UNL     1      -1.125   3.309  -1.574  0.00  0.00    +0.104 C 
BRANCH  16  17
ATOM     17  C   UNL     1      -1.622   3.491  -3.009  0.00  0.00    -0.002 C 
BRANCH  17  18
ATOM     18  C   UNL     1      -1.859   4.977  -3.283  0.00  0.00    -0.077 C 
BRANCH  18  20
ATOM     19  C   UNL     1      -3.663   4.547  -4.839  0.00  0.00    -0.096 C 
ATOM     20  N   UNL     1      -2.318   5.138  -4.678  0.00  0.00    +0.381 N 
ATOM     21  H   UNL     1      -1.663   4.652  -5.303  0.00  0.00    -0.082 HD
BRANCH  20  22
ATOM     22  C   UNL     1      -2.349   6.572  -5.038  0.00  0.00    -0.043 C 
BRANCH  22  23
ATOM     23  C   UNL     1      -2.604   6.696  -6.518  0.00  0.00    -0.064 A 
ATOM     24  C   UNL     1      -1.542   6.715  -7.403  0.00  0.00    +0.002 A 
ATOM     25  C   UNL     1      -1.777   6.824  -8.761  0.00  0.00    +0.000 A 
ATOM     26  C   UNL     1      -3.072   6.925  -9.233  0.00  0.00    +0.000 A 
ATOM     27  C   UNL     1      -4.133   6.912  -8.348  0.00  0.00    +0.000 A 
ATOM     28  C   UNL     1      -3.900   6.797  -6.990  0.00  0.00    +0.002 A 
ENDBRANCH  22  23
ENDBRANCH  20  22
ENDBRANCH  18  20
ENDBRANCH  17  18
ENDBRANCH  16  17
ENDBRANCH   1  16
TORSDOF 9
