REMARK  Name = ZINC63614387
REMARK  7 active torsions:
REMARK  status: ('A' for Active; 'I' for Inactive)
REMARK    1  A    between atoms: C_1  and  O_2
REMARK    2  A    between atoms: O_2  and  C_3
REMARK    3  A    between atoms: C_6  and  C_25
REMARK    4  A    between atoms: C_8  and  C_9
REMARK    5  A    between atoms: C_9  and  N_10
REMARK    6  A    between atoms: N_13  and  C_16
REMARK    7  A    between atoms: C_19  and  N_22
REMARK                            x       y       z     vdW  Elec       q    Type
REMARK                         _______ _______ _______ _____ _____    ______ ____
ROOT
ATOM      1  C   UNL     1      -1.227  -0.576   0.101  0.00  0.00    +0.124 A 
ATOM      2  C   UNL     1      -2.354   0.231   0.158  0.00  0.00    +0.046 A 
ATOM      3  C   UNL     1      -3.606  -0.340   0.275  0.00  0.00    +0.009 A 
ATOM      4  C   UNL     1      -3.737  -1.715   0.335  0.00  0.00    -0.028 A 
ATOM      5  C   UNL     1      -2.616  -2.522   0.278  0.00  0.00    +0.013 A 
ATOM      6  C   UNL     1      -1.362  -1.956   0.155  0.00  0.00    +0.009 A 
ENDROOT
BRANCH   4   7
ATOM      7  C   UNL     1      -5.105  -2.336   0.462  0.00  0.00    +0.111 C 
ATOM      8  C   UNL     1      -6.015  -1.810  -0.650  0.00  0.00    +0.128 C 
ATOM      9  C   UNL     1      -6.210  -0.324  -0.375  0.00  0.00    -0.035 C 
ATOM     10  C   UNL     1      -5.867   0.311  -1.487  0.00  0.00    -0.001 A 
ATOM     11  C   UNL     1      -5.921   1.734  -1.862  0.00  0.00    +0.010 A 
ATOM     12  C   UNL     1      -5.465   2.044  -3.104  0.00  0.00    +0.001 A 
ATOM     13  C   UNL     1      -4.967   1.094  -4.001  0.00  0.00    +0.002 A 
ATOM     14  C   UNL     1      -4.886  -0.236  -3.743  0.00  0.00    +0.026 A 
ATOM     15  C   UNL     1      -5.341  -0.686  -2.469  0.00  0.00    +0.043 A 
ATOM     16  N   UNL     1      -5.401  -1.907  -1.973  0.00  0.00    -0.376 N 
ATOM     17  C   UNL     1      -6.621   0.183   0.986  0.00  0.00    +0.048 C 
ATOM     18  C   UNL     1      -5.704  -0.523   2.002  0.00  0.00    +0.086 C 
ATOM     19  N   UNL     1      -5.697  -1.969   1.758  0.00  0.00    -0.307 NA
ATOM     20  H   UNL     1      -6.624  -2.356   1.855  0.00  0.00    +0.123 HD
ATOM     21  H   UNL     1      -5.092  -2.723  -2.398  0.00  0.00    +0.160 HD
ENDBRANCH   4   7
BRANCH   1  23
ATOM     22  C   UNL     1       0.069   1.410  -0.065  0.00  0.00    +0.277 C 
ATOM     23  O   UNL     1       0.006  -0.017  -0.015  0.00  0.00    -0.495 OA
ENDBRANCH   1  23
BRANCH   6  24
ATOM     24  C   UNL     1      -0.140  -2.836   0.087  0.00  0.00    +0.123 C 
BRANCH  24  25
ATOM     25  N   UNL     1       0.359  -2.873  -1.294  0.00  0.00    -0.295 NA
ATOM     26  C   UNL     1      -0.605  -3.532  -2.185  0.00  0.00    +0.103 C 
ATOM     27  C   UNL     1      -0.133  -3.391  -3.636  0.00  0.00    +0.120 C 
ATOM     28  N   UNL     1       1.246  -3.895  -3.730  0.00  0.00    -0.327 N 
ATOM     29  C   UNL     1       2.241  -3.381  -2.777  0.00  0.00    +0.120 C 
ATOM     30  C   UNL     1       1.676  -3.523  -1.360  0.00  0.00    +0.103 C 
BRANCH  28  31
ATOM     31  C   UNL     1       1.600  -4.837  -4.699  0.00  0.00    +0.030 A 
ATOM     32  C   UNL     1       0.680  -5.219  -5.667  0.00  0.00    +0.025 A 
ATOM     33  C   UNL     1       1.034  -6.150  -6.624  0.00  0.00    +0.034 A 
ATOM     34  C   UNL     1       2.302  -6.702  -6.619  0.00  0.00    +0.126 A 
ATOM     35  C   UNL     1       3.220  -6.323  -5.656  0.00  0.00    +0.034 A 
ATOM     36  C   UNL     1       2.875  -5.389  -4.700  0.00  0.00    +0.025 A 
BRANCH  34  37
ATOM     37  N   UNL     1       2.678  -7.700  -7.645  0.00  0.00    +0.056 N 
ATOM     38  O   UNL     1       1.876  -8.032  -8.487  0.00  0.00    -0.126 OA
ATOM     39  O   UNL     1       3.786  -8.182  -7.642  0.00  0.00    -0.126 OA
ENDBRANCH  34  37
ENDBRANCH  28  31
ENDBRANCH  24  25
ENDBRANCH   6  24
TORSDOF 6
