REMARK  Name = ZINC21255678
REMARK  5 active torsions:
REMARK  status: ('A' for Active; 'I' for Inactive)
REMARK    1  A    between atoms: C_1  and  N_2
REMARK    2  A    between atoms: N_2  and  C_3
REMARK    3  A    between atoms: N_2  and  C_4
REMARK    4  A    between atoms: C_7  and  C_10
REMARK    5  A    between atoms: C_15  and  C_25
REMARK                            x       y       z     vdW  Elec       q    Type
REMARK                         _______ _______ _______ _____ _____    ______ ____
ROOT
ATOM      1  C   UNL     1       0.004  -0.008   0.004  0.00  0.00    +0.032 C 
ATOM      2  C   UNL     1       0.815  -0.455   1.219  0.00  0.00    +0.059 C 
ATOM      3  C   UNL     1       2.230   0.091   1.127  0.00  0.00    +0.017 C 
ATOM      4  C   UNL     1       2.465   1.278   0.540  0.00  0.00    +0.038 C 
ATOM      5  C   UNL     1       3.815   1.937   0.384  0.00  0.00    +0.155 C 
ATOM      6  N   UNL     1       4.876   1.323   1.155  0.00  0.00    -0.330 N 
ATOM      7  C   UNL     1       5.296   0.021   0.888  0.00  0.00    +0.049 A 
ATOM      8  C   UNL     1       6.553  -0.240   0.365  0.00  0.00    +0.025 A 
ATOM      9  C   UNL     1       6.886  -1.535   0.010  0.00  0.00    +0.002 A 
ATOM     10  C   UNL     1       5.975  -2.563   0.177  0.00  0.00    +0.002 A 
ATOM     11  C   UNL     1       4.726  -2.309   0.719  0.00  0.00    +0.025 A 
ATOM     12  C   UNL     1       4.399  -1.016   1.091  0.00  0.00    +0.052 A 
ATOM     13  N   UNL     1       3.182  -0.698   1.684  0.00  0.00    -0.316 N 
ATOM     14  C   UNL     1       1.397   2.022  -0.015  0.00  0.00    +0.163 C 
ATOM     15  O   UNL     1       1.635   3.103  -0.518  0.00  0.00    -0.292 OA
ATOM     16  C   UNL     1      -0.017   1.525  -0.005  0.00  0.00    +0.088 C 
ATOM     17  H   UNL     1       5.363   1.885   1.965  0.00  0.00    +0.147 HD
ATOM     18  H   UNL     1       3.019  -1.139   2.679  0.00  0.00    +0.152 HD
ENDROOT
BRANCH   1  22
ATOM     19  C   UNL     1      -3.988  -1.510   0.290  0.00  0.00    +0.029 A 
ATOM     20  C   UNL     1      -3.199  -1.835  -0.806  0.00  0.00    +0.023 A 
ATOM     21  C   UNL     1      -1.909  -1.348  -0.895  0.00  0.00    +0.006 A 
ATOM     22  C   UNL     1      -1.404  -0.537   0.105  0.00  0.00    -0.043 A 
ATOM     23  C   UNL     1      -2.184  -0.216   1.200  0.00  0.00    +0.006 A 
ATOM     24  C   UNL     1      -3.477  -0.695   1.293  0.00  0.00    +0.023 A 
BRANCH  19  26
ATOM     25  C   UNL     1      -5.873  -2.753  -0.731  0.00  0.00    +0.129 C 
ATOM     26  N   UNL     1      -5.292  -2.000   0.383  0.00  0.00    -0.336 N 
ATOM     27  C   UNL     1      -6.080  -1.761   1.595  0.00  0.00    +0.129 C 
ENDBRANCH  19  26
ENDBRANCH   1  22
BRANCH   5  28
ATOM     28  C   UNL     1       4.198   1.895  -1.073  0.00  0.00    +0.066 A 
ATOM     29  C   UNL     1       4.418   3.077  -1.755  0.00  0.00    +0.025 A 
ATOM     30  C   UNL     1       4.775   3.028  -3.094  0.00  0.00    +0.003 A 
ATOM     31  C   UNL     1       4.887   1.787  -3.701  0.00  0.00    +0.020 A 
ATOM     32  C   UNL     1       4.647   0.648  -2.956  0.00  0.00    +0.111 A 
ATOM     33  N   UNL     1       4.314   0.732  -1.683  0.00  0.00    -0.258 NA
ENDBRANCH   5  28
TORSDOF 3
