REMARK  Name = ZINC12150322
REMARK  4 active torsions:
REMARK  status: ('A' for Active; 'I' for Inactive)
REMARK    1  A    between atoms: C_3  and  C_6
REMARK    2  A    between atoms: C_14  and  C_16
REMARK    3  A    between atoms: C_25  and  C_27
REMARK    4  A    between atoms: C_27  and  C_28
REMARK                            x       y       z     vdW  Elec       q    Type
REMARK                         _______ _______ _______ _____ _____    ______ ____
ROOT
ATOM      1  C   UNL     1       1.366   3.277  10.534  0.00  0.00    +0.088 C 
ATOM      2  C   UNL     1       0.013   3.252   9.819  0.00  0.00    +0.070 C 
ATOM      3  C   UNL     1       0.266   3.024   8.333  0.00  0.00    +0.062 A 
ATOM      4  C   UNL     1       1.417   2.327   7.945  0.00  0.00    +0.079 A 
ATOM      5  S   UNL     1       1.279   2.317   6.183  0.00  0.00    -0.049 S 
ATOM      6  C   UNL     1      -0.218   3.197   6.080  0.00  0.00    +0.165 A 
ATOM      7  N   UNL     1      -0.506   3.428   7.353  0.00  0.00    -0.229 NA
ATOM      8  N   UNL     1      -0.931   3.559   4.952  0.00  0.00    -0.265 N 
ATOM      9  C   UNL     1      -0.471   3.230   3.729  0.00  0.00    +0.219 C 
ATOM     10  O   UNL     1       0.568   2.616   3.617  0.00  0.00    -0.275 OA
ATOM     11  C   UNL     1       2.374   1.802   8.807  0.00  0.00    +0.172 C 
ATOM     12  O   UNL     1       3.358   1.226   8.386  0.00  0.00    -0.291 OA
ATOM     13  C   UNL     1       2.138   1.978  10.296  0.00  0.00    +0.093 C 
ATOM     14  H   UNL     1      -1.763   4.050   5.042  0.00  0.00    +0.157 HD
ENDROOT
BRANCH   1  23
ATOM     15  C   UNL     1       0.089   8.238  14.013  0.00  0.00    +0.282 C 
ATOM     16  O   UNL     1       0.104   9.220  13.296  0.00  0.00    -0.267 OA
ATOM     17  N   UNL     1       0.053   7.006  13.468  0.00  0.00    -0.292 N 
ATOM     18  C   UNL     1      -0.081   5.815  14.319  0.00  0.00    +0.127 C 
ATOM     19  C   UNL     1       1.081   4.862  14.015  0.00  0.00    +0.127 C 
ATOM     20  N   UNL     1       1.176   4.685  12.559  0.00  0.00    -0.298 N 
ATOM     21  C   UNL     1       1.316   5.875  11.709  0.00  0.00    +0.127 C 
ATOM     22  C   UNL     1       0.148   6.829  12.012  0.00  0.00    +0.127 C 
ATOM     23  C   UNL     1       1.140   3.453  12.014  0.00  0.00    +0.220 C 
ATOM     24  O   UNL     1       0.925   2.486  12.714  0.00  0.00    -0.275 OA
BRANCH  15  27
ATOM     25  C   UNL     1       0.221   9.253  17.517  0.00  0.00    +0.042 A 
ATOM     26  C   UNL     1       0.262   9.569  16.151  0.00  0.00    +0.054 A 
ATOM     27  C   UNL     1       0.110   8.394  15.472  0.00  0.00    +0.189 A 
ATOM     28  O   UNL     1      -0.022   7.403  16.377  0.00  0.00    -0.458 OA
ATOM     29  C   UNL     1       0.049   7.916  17.612  0.00  0.00    +0.196 A 
ENDBRANCH  15  27
ENDBRANCH   1  23
BRANCH   9  30
ATOM     30  C   UNL     1      -1.249   3.625   2.500  0.00  0.00    +0.099 C 
BRANCH  30  31
ATOM     31  C   UNL     1      -0.514   3.134   1.252  0.00  0.00    -0.002 C 
ATOM     32  C   UNL     1      -0.492   1.604   1.242  0.00  0.00    +0.004 C 
ATOM     33  C   UNL     1       0.243   1.113  -0.007  0.00  0.00    +0.000 C 
ATOM     34  C   UNL     1      -0.479   1.620  -1.256  0.00  0.00    +0.000 C 
ATOM     35  C   UNL     1      -0.501   3.150  -1.247  0.00  0.00    +0.000 C 
ATOM     36  C   UNL     1      -1.236   3.641   0.002  0.00  0.00    +0.004 C 
ENDBRANCH  30  31
ENDBRANCH   9  30
TORSDOF 4
