REMARK  Name = ZINC20616169
REMARK  9 active torsions:
REMARK  status: ('A' for Active; 'I' for Inactive)
REMARK    1  A    between atoms: C_1  and  C_2
REMARK    2  A    between atoms: C_2  and  O_3
REMARK    3  A    between atoms: O_3  and  C_4
REMARK    4  A    between atoms: C_7  and  C_27
REMARK    5  A    between atoms: C_9  and  C_10
REMARK    6  A    between atoms: C_10  and  N_11
REMARK    7  A    between atoms: N_28  and  N_29
REMARK    8  A    between atoms: C_30  and  C_32
REMARK    9  A    between atoms: C_36  and  O_38
REMARK                            x       y       z     vdW  Elec       q    Type
REMARK                         _______ _______ _______ _____ _____    ______ ____
ROOT
ATOM      1  C   UNL     1       2.154  12.319   0.043  0.00  0.00    +0.122 A 
ATOM      2  C   UNL     1       0.957  11.614   0.050  0.00  0.00    +0.046 A 
ATOM      3  C   UNL     1       0.966  10.236   0.043  0.00  0.00    +0.013 A 
ATOM      4  C   UNL     1       2.183   9.548   0.028  0.00  0.00    -0.005 A 
ATOM      5  C   UNL     1       3.384  10.262   0.025  0.00  0.00    +0.014 A 
ATOM      6  C   UNL     1       3.365  11.640   0.028  0.00  0.00    -0.022 A 
ENDROOT
BRANCH   4   7
ATOM      7  C   UNL     1       2.198   8.074   0.021  0.00  0.00    +0.138 C 
ATOM      8  N   UNL     1       1.081   7.413   0.028  0.00  0.00    -0.187 NA
BRANCH   8   9
ATOM      9  N   UNL     1       1.096   6.013   0.021  0.00  0.00    -0.203 N 
ATOM     10  C   UNL     1      -0.064   5.326   0.029  0.00  0.00    +0.263 C 
ATOM     11  O   UNL     1      -1.124   5.923   0.042  0.00  0.00    -0.268 OA
ATOM     12  H   UNL     1       2.054   5.473   0.010  0.00  0.00    +0.178 HD
BRANCH  10  13
ATOM     13  C   UNL     1      -0.049   3.848   0.022  0.00  0.00    +0.042 A 
ATOM     14  C   UNL     1       1.166   3.160   0.007  0.00  0.00    +0.013 A 
ATOM     15  C   UNL     1       1.177   1.781   0.000  0.00  0.00    +0.004 A 
ATOM     16  C   UNL     1      -0.013   1.076   0.008  0.00  0.00    +0.045 A 
ATOM     17  C   UNL     1      -1.226   1.751   0.017  0.00  0.00    +0.118 A 
ATOM     18  C   UNL     1      -1.248   3.135   0.030  0.00  0.00    +0.058 A 
BRANCH  17  19
ATOM     19  O   UNL     1      -2.392   1.053   0.019  0.00  0.00    -0.507 OA
ATOM     20  H   UNL     1      -3.353   1.587   0.026  0.00  0.00    +0.292 HD
ENDBRANCH  17  19
ENDBRANCH  10  13
ENDBRANCH   8   9
ENDBRANCH   4   7
BRANCH   1  21
ATOM     21  O   UNL     1       2.139  13.678   0.051  0.00  0.00    -0.492 OA
BRANCH  21  23
ATOM     22  C   UNL     1       1.044  15.832   0.073  0.00  0.00    +0.048 C 
ATOM     23  C   UNL     1       0.859  14.313   0.066  0.00  0.00    +0.225 C 
ENDBRANCH  21  23
ENDBRANCH   1  21
BRANCH   6  24
ATOM     24  C   UNL     1       4.660  12.411   0.020  0.00  0.00    -0.039 C 
BRANCH  24  25
ATOM     25  N   UNL     1       4.970  12.860   1.384  0.00  0.00    +0.383 N 
ATOM     26  C   UNL     1       3.888  13.691   1.922  0.00  0.00    -0.073 C 
ATOM     27  C   UNL     1       4.232  14.206   3.311  0.00  0.00    -0.007 C 
ATOM     28  C   UNL     1       4.575  13.048   4.252  0.00  0.00    +0.011 C 
ATOM     29  C   UNL     1       5.732  12.266   3.618  0.00  0.00    +0.020 C 
ATOM     30  C   UNL     1       5.249  11.716   2.265  0.00  0.00    -0.069 C 
ATOM     31  C   UNL     1       6.878  13.212   3.340  0.00  0.00    +0.023 A 
ATOM     32  C   UNL     1       8.131  12.686   3.317  0.00  0.00    +0.022 A 
ATOM     33  C   UNL     1       9.234  13.488   3.005  0.00  0.00    +0.007 A 
ATOM     34  C   UNL     1       9.028  14.802   2.704  0.00  0.00    +0.070 A 
ATOM     35  C   UNL     1       7.724  15.314   2.741  0.00  0.00    +0.251 A 
ATOM     36  O   UNL     1       7.524  16.477   2.428  0.00  0.00    -0.268 OA
ATOM     37  N   UNL     1       6.682  14.533   3.119  0.00  0.00    -0.312 N 
ATOM     38  C   UNL     1       5.386  15.192   3.282  0.00  0.00    +0.126 C 
ATOM     39  H   UNL     1       5.877  13.482   1.338  0.00  0.00    -0.081 HD
ENDBRANCH  24  25
ENDBRANCH   6  24
TORSDOF 8
