REMARK  Name = ZINC67025822
REMARK  7 active torsions:
REMARK  status: ('A' for Active; 'I' for Inactive)
REMARK    1  A    between atoms: C_1  and  C_2
REMARK    2  A    between atoms: C_2  and  C_4
REMARK    3  A    between atoms: C_2  and  N_12
REMARK    4  A    between atoms: C_13  and  C_15
REMARK    5  A    between atoms: C_18  and  C_20
REMARK    6  A    between atoms: C_20  and  N_21
REMARK    7  A    between atoms: C_22  and  C_24
REMARK                            x       y       z     vdW  Elec       q    Type
REMARK                         _______ _______ _______ _____ _____    ______ ____
ROOT
ATOM      1  N   UNL     1      -1.372  -0.511   0.012  0.00  0.00    -0.304 N 
ATOM      2  C   UNL     1      -2.029  -0.655   1.181  0.00  0.00    +0.251 C 
ATOM      3  O   UNL     1      -1.480  -0.364   2.227  0.00  0.00    -0.270 OA
ATOM      4  H   UNL     1      -1.810  -0.743  -0.822  0.00  0.00    +0.150 HD
ENDROOT
BRANCH   2   5
ATOM      5  C   UNL     1      -3.404  -1.163   1.191  0.00  0.00    +0.074 A 
ATOM      6  C   UNL     1      -4.248  -1.377   2.270  0.00  0.00    +0.021 A 
ATOM      7  C   UNL     1      -5.495  -1.866   1.964  0.00  0.00    +0.013 A 
ATOM      8  C   UNL     1      -5.811  -2.100   0.666  0.00  0.00    +0.008 A 
ATOM      9  S   UNL     1      -4.430  -1.657  -0.180  0.00  0.00    -0.087 S 
BRANCH   8  10
ATOM     10  C   UNL     1      -7.108  -2.629   0.110  0.00  0.00    +0.146 C 
BRANCH  10  11
ATOM     11  N   UNL     1      -8.005  -1.510  -0.187  0.00  0.00    -0.311 N 
ATOM     12  C   UNL     1      -9.231  -1.745  -0.697  0.00  0.00    +0.210 C 
ATOM     13  O   UNL     1      -9.590  -2.883  -0.910  0.00  0.00    -0.276 OA
ATOM     14  C   UNL     1     -10.154  -0.593  -1.001  0.00  0.00    +0.109 C 
ATOM     15  H   UNL     1      -7.718  -0.599  -0.016  0.00  0.00    +0.149 HD
ENDBRANCH  10  11
ENDBRANCH   8  10
ENDBRANCH   2   5
BRANCH   1  17
ATOM     16  C   UNL     1      -0.019   1.526   0.010  0.00  0.00    +0.033 C 
ATOM     17  C   UNL     1       0.002  -0.004   0.002  0.00  0.00    +0.100 C 
BRANCH  17  18
ATOM     18  C   UNL     1       0.707  -0.490  -1.238  0.00  0.00    -0.026 A 
ATOM     19  C   UNL     1       0.037  -0.521  -2.447  0.00  0.00    +0.007 A 
ATOM     20  C   UNL     1       0.683  -0.967  -3.584  0.00  0.00    +0.022 A 
ATOM     21  C   UNL     1       2.001  -1.382  -3.514  0.00  0.00    +0.059 A 
ATOM     22  C   UNL     1       2.672  -1.350  -2.304  0.00  0.00    +0.060 A 
ATOM     23  C   UNL     1       2.026  -0.899  -1.167  0.00  0.00    +0.027 A 
ATOM     24 CL   UNL     1       4.326  -1.871  -2.214  0.00  0.00    -0.082 Cl
ATOM     25 CL   UNL     1       2.812  -1.943  -4.943  0.00  0.00    -0.082 Cl
ENDBRANCH  17  18
ENDBRANCH   1  17
TORSDOF 5
