REMARK  Name = ZINC35430684
REMARK  7 active torsions:
REMARK  status: ('A' for Active; 'I' for Inactive)
REMARK    1  A    between atoms: C_1  and  C_2
REMARK    2  A    between atoms: C_2  and  C_3
REMARK    3  A    between atoms: C_3  and  N_4
REMARK    4  A    between atoms: N_4  and  C_5
REMARK    5  A    between atoms: C_5  and  C_6
REMARK    6  A    between atoms: C_7  and  O_14
REMARK    7  A    between atoms: O_14  and  C_15
REMARK                            x       y       z     vdW  Elec       q    Type
REMARK                         _______ _______ _______ _____ _____    ______ ____
ROOT
ATOM      1  C   UNL     1       1.592  -3.966  -2.712  0.00  0.00    +0.070 A 
ATOM      2  C   UNL     1       2.557  -4.730  -2.163  0.00  0.00    +0.241 A 
ATOM      3  N   UNL     1       2.406  -5.988  -2.612  0.00  0.00    -0.186 NA
ATOM      4  C   UNL     1       1.384  -6.030  -3.418  0.00  0.00    +0.181 A 
ATOM      5  N   UNL     1       0.813  -4.791  -3.527  0.00  0.00    -0.296 N 
ATOM      6  C   UNL     1      -0.289  -4.680  -4.346  0.00  0.00    +0.100 A 
ATOM      7  C   UNL     1      -0.768  -5.742  -4.992  0.00  0.00    +0.067 A 
ATOM      8  S   UNL     1       0.361  -7.027  -4.477  0.00  0.00    -0.058 S 
ENDROOT
BRANCH   1   9
ATOM      9  C   UNL     1       1.386  -2.491  -2.482  0.00  0.00    -0.022 C 
BRANCH   9  10
ATOM     10  N   UNL     1       0.493  -2.294  -1.333  0.00  0.00    +0.383 N 
ATOM     11  H   UNL     1       0.906  -2.708  -0.511  0.00  0.00    -0.085 HD
ATOM     12  H   UNL     1      -0.397  -2.733  -1.519  0.00  0.00    -0.085 HD
BRANCH  10  13
ATOM     13  C   UNL     1       0.292  -0.856  -1.109  0.00  0.00    -0.082 C 
BRANCH  13  15
ATOM     14  C   UNL     1      -0.847   0.846   0.321  0.00  0.00    +0.002 C 
ATOM     15  C   UNL     1      -0.638  -0.651   0.088  0.00  0.00    -0.022 C 
ENDBRANCH  13  15
ENDBRANCH  10  13
ENDBRANCH   9  10
ENDBRANCH   1   9
BRANCH   2  16
ATOM     16  O   UNL     1       3.519  -4.302  -1.302  0.00  0.00    -0.436 OA
BRANCH  16  17
ATOM     17  C   UNL     1       4.327  -5.234  -0.732  0.00  0.00    +0.132 A 
ATOM     18  C   UNL     1       5.418  -4.837   0.029  0.00  0.00    +0.046 A 
ATOM     19  C   UNL     1       6.237  -5.786   0.607  0.00  0.00    +0.005 A 
ATOM     20  C   UNL     1       5.972  -7.132   0.429  0.00  0.00    +0.020 A 
ATOM     21  C   UNL     1       4.885  -7.531  -0.328  0.00  0.00    +0.044 A 
ATOM     22  C   UNL     1       4.058  -6.584  -0.904  0.00  0.00    +0.066 A 
ATOM     23 CL   UNL     1       4.556  -9.221  -0.550  0.00  0.00    -0.083 Cl
ENDBRANCH  16  17
ENDBRANCH   2  16
TORSDOF 6
