REMARK  Name = ZINC39204128
REMARK  5 active torsions:
REMARK  status: ('A' for Active; 'I' for Inactive)
REMARK    1  A    between atoms: C_1  and  C_2
REMARK    2  A    between atoms: N_13  and  C_19
REMARK    3  A    between atoms: C_19  and  C_20
REMARK    4  A    between atoms: C_25  and  C_34
REMARK    5  A    between atoms: N_26  and  C_28
REMARK                            x       y       z     vdW  Elec       q    Type
REMARK                         _______ _______ _______ _____ _____    ______ ____
ROOT
ATOM      1  C   UNL     1      -1.994   1.044  -1.042  0.00  0.00    +0.044 C 
ATOM      2  C   UNL     1      -1.751  -0.440  -0.938  0.00  0.00    -0.050 A 
ATOM      3  C   UNL     1      -1.608  -1.179  -2.100  0.00  0.00    +0.005 A 
ATOM      4  C   UNL     1      -1.382  -2.544  -2.082  0.00  0.00    +0.026 A 
ATOM      5  C   UNL     1      -1.303  -3.160  -0.835  0.00  0.00    +0.049 A 
ATOM      6  C   UNL     1      -1.453  -2.395   0.360  0.00  0.00    +0.003 A 
ATOM      7  C   UNL     1      -1.674  -1.015   0.305  0.00  0.00    +0.013 A 
ATOM      8  C   UNL     1      -1.322  -3.326   1.448  0.00  0.00    -0.020 A 
ATOM      9  C   UNL     1      -1.132  -4.539   0.893  0.00  0.00    +0.009 A 
ATOM     10  N   UNL     1      -1.090  -4.455  -0.471  0.00  0.00    -0.347 N 
ATOM     11  C   UNL     1      -0.833  -5.647  -1.295  0.00  0.00    +0.103 C 
ATOM     12  C   UNL     1      -1.048  -6.883  -0.413  0.00  0.00    -0.055 C 
ATOM     13  N   UNL     1      -0.303  -6.775   0.849  0.00  0.00    +0.392 N 
ATOM     14  C   UNL     1      -0.958  -5.787   1.729  0.00  0.00    -0.020 C 
ATOM     15  C   UNL     1      -0.061  -5.448   2.909  0.00  0.00    -0.009 C 
ATOM     16  C   UNL     1      -0.264  -4.093   3.540  0.00  0.00    +0.003 C 
ATOM     17  C   UNL     1      -1.349  -3.206   2.946  0.00  0.00    +0.037 C 
ATOM     18  H   UNL     1       0.642  -6.479   0.657  0.00  0.00    -0.080 HD
ENDROOT
BRANCH  13  19
ATOM     19  C   UNL     1      -0.279  -8.084   1.516  0.00  0.00    +0.020 C 
BRANCH  19  20
ATOM     20  C   UNL     1       0.500  -9.062   0.675  0.00  0.00    +0.202 C 
ATOM     21  O   UNL     1       0.988  -8.704  -0.376  0.00  0.00    -0.278 OA
ATOM     22  N   UNL     1       0.656 -10.334   1.092  0.00  0.00    -0.271 N 
ATOM     23  C   UNL     1       1.381 -11.243   0.310  0.00  0.00    +0.147 A 
ATOM     24  C   UNL     1       2.000 -10.962  -0.919  0.00  0.00    +0.068 A 
ATOM     25  C   UNL     1       2.594 -12.096  -1.354  0.00  0.00    +0.044 A 
ATOM     26  N   UNL     1       2.361 -13.066  -0.432  0.00  0.00    -0.235 N 
ATOM     27  N   UNL     1       1.603 -12.503   0.603  0.00  0.00    -0.151 NA
ATOM     28  C   UNL     1       3.375 -12.256  -2.633  0.00  0.00    +0.066 C 
ATOM     29  H   UNL     1       0.266 -10.620   1.933  0.00  0.00    +0.156 HD
BRANCH  26  30
ATOM     30  C   UNL     1       2.805 -14.393  -0.501  0.00  0.00    +0.066 A 
ATOM     31  C   UNL     1       4.097 -14.673  -0.925  0.00  0.00    +0.028 A 
ATOM     32  C   UNL     1       4.532 -15.982  -0.992  0.00  0.00    +0.002 A 
ATOM     33  C   UNL     1       3.681 -17.014  -0.638  0.00  0.00    +0.000 A 
ATOM     34  C   UNL     1       2.393 -16.738  -0.217  0.00  0.00    +0.002 A 
ATOM     35  C   UNL     1       1.955 -15.430  -0.141  0.00  0.00    +0.028 A 
ENDBRANCH  26  30
ENDBRANCH  19  20
ENDBRANCH  13  19
TORSDOF 3
