REMARK  Name = ZINC04257124
REMARK  9 active torsions:
REMARK  status: ('A' for Active; 'I' for Inactive)
REMARK    1  A    between atoms: C_1  and  N_2
REMARK    2  A    between atoms: C_3  and  O_5
REMARK    3  A    between atoms: O_5  and  C_6
REMARK    4  A    between atoms: C_9  and  N_12
REMARK    5  A    between atoms: C_13  and  C_17
REMARK    6  A    between atoms: C_17  and  C_19
REMARK    7  A    between atoms: C_17  and  N_46
REMARK    8  A    between atoms: C_26  and  N_46
REMARK    9  A    between atoms: C_27  and  N_46
REMARK                            x       y       z     vdW  Elec       q    Type
REMARK                         _______ _______ _______ _____ _____    ______ ____
ROOT
ATOM      1  N   UNL     1      -2.528   1.724   0.860  0.00  0.00    -0.198 N 
ATOM      2  C   UNL     1      -3.781   2.038   1.254  0.00  0.00    +0.148 A 
ATOM      3  N   UNL     1      -4.484   0.935   1.228  0.00  0.00    -0.114 NA
ATOM      4  N   UNL     1      -3.760  -0.054   0.844  0.00  0.00    -0.023 NA
ATOM      5  N   UNL     1      -2.559   0.344   0.595  0.00  0.00    -0.039 NA
ENDROOT
BRANCH   1   9
ATOM      6  C   UNL     1       0.731   4.301   0.488  0.00  0.00    +0.133 A 
ATOM      7  C   UNL     1       0.904   3.039   1.038  0.00  0.00    +0.048 A 
ATOM      8  C   UNL     1      -0.175   2.188   1.165  0.00  0.00    +0.031 A 
ATOM      9  C   UNL     1      -1.432   2.592   0.737  0.00  0.00    +0.069 A 
ATOM     10  C   UNL     1      -1.605   3.856   0.190  0.00  0.00    +0.031 A 
ATOM     11  C   UNL     1      -0.526   4.707   0.064  0.00  0.00    +0.048 A 
BRANCH   6  12
ATOM     12  O   UNL     1       1.794   5.140   0.364  0.00  0.00    -0.412 OA
BRANCH  12  15
ATOM     13  C   UNL     1       4.841   5.219  -1.691  0.00  0.00    +0.131 C 
ATOM     14  N   UNL     1       3.840   5.560  -0.677  0.00  0.00    -0.284 N 
ATOM     15  C   UNL     1       2.714   4.827  -0.569  0.00  0.00    +0.405 C 
ATOM     16  O   UNL     1       2.529   3.884  -1.312  0.00  0.00    -0.226 OA
ATOM     17  H   UNL     1       3.988   6.312  -0.083  0.00  0.00    +0.152 HD
ENDBRANCH  12  15
ENDBRANCH   6  12
ENDBRANCH   1   9
BRANCH   2  18
ATOM     18  C   UNL     1      -4.278   3.404   1.650  0.00  0.00    +0.034 C 
BRANCH  18  19
ATOM     19  C   UNL     1      -5.211   3.927   0.589  0.00  0.00    -0.035 A 
ATOM     20  C   UNL     1      -5.724   3.068  -0.365  0.00  0.00    +0.004 A 
ATOM     21  C   UNL     1      -6.583   3.546  -1.336  0.00  0.00    +0.000 A 
ATOM     22  C   UNL     1      -6.922   4.887  -1.361  0.00  0.00    +0.001 A 
ATOM     23  C   UNL     1      -6.405   5.748  -0.411  0.00  0.00    +0.020 A 
ATOM     24  C   UNL     1      -5.549   5.268   0.564  0.00  0.00    +0.043 A 
ATOM     25 CL   UNL     1      -4.899   6.349   1.757  0.00  0.00    -0.083 Cl
ENDBRANCH  18  19
BRANCH  18  28
ATOM     26  C   UNL     1      -6.148   2.410   2.824  0.00  0.00    -0.095 C 
ATOM     27  C   UNL     1      -4.092   2.890   4.009  0.00  0.00    -0.095 C 
ATOM     28  N   UNL     1      -5.004   3.339   2.936  0.00  0.00    +0.385 N 
ATOM     29  H   UNL     1      -5.356   4.275   3.168  0.00  0.00    -0.081 HD
ENDBRANCH  18  28
ENDBRANCH   2  18
TORSDOF 6
