REMARK  Name = ZINC04693430
REMARK  3 active torsions:
REMARK  status: ('A' for Active; 'I' for Inactive)
REMARK    1  A    between atoms: C_1  and  N_53
REMARK    2  A    between atoms: C_4  and  C_5
REMARK    3  A    between atoms: C_18  and  C_19
REMARK                            x       y       z     vdW  Elec       q    Type
REMARK                         _______ _______ _______ _____ _____    ______ ____
ROOT
ATOM      1  C   UNL     1       0.126  -6.171  -1.670  0.00  0.00    -0.095 C 
ATOM      2  C   UNL     1       1.321  -4.738  -0.121  0.00  0.00    -0.039 C 
ATOM      3  C   UNL     1       2.686  -4.144   0.166  0.00  0.00    -0.016 C 
ATOM      4  C   UNL     1       2.872  -2.812   0.306  0.00  0.00    +0.014 C 
ATOM      5  C   UNL     1       3.803  -5.109   0.288  0.00  0.00    +0.182 C 
ATOM      6  O   UNL     1       4.710  -4.971   1.093  0.00  0.00    -0.287 OA
ATOM      7  C   UNL     1       3.729  -6.255  -0.648  0.00  0.00    -0.016 C 
ATOM      8  C   UNL     1       4.833  -6.783  -1.223  0.00  0.00    +0.014 C 
ATOM      9  C   UNL     1       2.341  -6.801  -0.922  0.00  0.00    -0.039 C 
ATOM     10  N   UNL     1       1.456  -5.667  -1.274  0.00  0.00    +0.383 N 
ATOM     11  H   UNL     1       1.868  -5.157  -2.064  0.00  0.00    -0.081 HD
ENDROOT
BRANCH   4  12
ATOM     12  C   UNL     1       1.718  -1.907   0.311  0.00  0.00    -0.017 A 
ATOM     13  C   UNL     1       0.509  -2.299   0.882  0.00  0.00    +0.008 A 
ATOM     14  C   UNL     1      -0.580  -1.440   0.884  0.00  0.00    +0.001 A 
ATOM     15  C   UNL     1      -0.515  -0.195   0.336  0.00  0.00    +0.008 A 
ATOM     16  C   UNL     1       0.672   0.268  -0.256  0.00  0.00    -0.017 A 
ATOM     17  C   UNL     1       1.811  -0.573  -0.283  0.00  0.00    -0.011 A 
ATOM     18  C   UNL     1       2.995  -0.116  -0.871  0.00  0.00    +0.009 A 
ATOM     19  C   UNL     1       3.039   1.135  -1.413  0.00  0.00    +0.001 A 
ATOM     20  C   UNL     1       1.921   1.964  -1.391  0.00  0.00    +0.001 A 
ATOM     21  C   UNL     1       0.753   1.551  -0.825  0.00  0.00    +0.008 A 
ENDBRANCH   4  12
BRANCH   8  22
ATOM     22  C   UNL     1       4.729  -8.009  -2.020  0.00  0.00    -0.017 A 
ATOM     23  C   UNL     1       3.896  -9.051  -1.618  0.00  0.00    +0.008 A 
ATOM     24  C   UNL     1       3.797 -10.207  -2.378  0.00  0.00    +0.001 A 
ATOM     25  C   UNL     1       4.508 -10.376  -3.527  0.00  0.00    +0.008 A 
ATOM     26  C   UNL     1       5.373  -9.370  -3.990  0.00  0.00    -0.017 A 
ATOM     27  C   UNL     1       5.504  -8.168  -3.252  0.00  0.00    -0.011 A 
ATOM     28  C   UNL     1       6.364  -7.165  -3.709  0.00  0.00    +0.009 A 
ATOM     29  C   UNL     1       7.068  -7.353  -4.862  0.00  0.00    +0.001 A 
ATOM     30  C   UNL     1       6.942  -8.533  -5.591  0.00  0.00    +0.001 A 
ATOM     31  C   UNL     1       6.113  -9.530  -5.175  0.00  0.00    +0.008 A 
ENDBRANCH   8  22
TORSDOF 2
