REMARK  Name = ZINC46657873
REMARK  11 active torsions:
REMARK  status: ('A' for Active; 'I' for Inactive)
REMARK    1  A    between atoms: C_1  and  C_2
REMARK    2  A    between atoms: C_2  and  N_3
REMARK    3  A    between atoms: C_7  and  S_29
REMARK    4  A    between atoms: C_11  and  C_12
REMARK    5  A    between atoms: C_12  and  O_13
REMARK    6  A    between atoms: O_13  and  C_14
REMARK    7  A    between atoms: C_14  and  C_16
REMARK    8  A    between atoms: C_18  and  C_22
REMARK    9  A    between atoms: S_29  and  N_32
REMARK   10  A    between atoms: N_32  and  C_33
REMARK   11  A    between atoms: N_32  and  C_34
REMARK                            x       y       z     vdW  Elec       q    Type
REMARK                         _______ _______ _______ _____ _____    ______ ____
ROOT
ATOM      1  N   UNL     1       0.688  -0.476  -1.203  0.00  0.00    -0.325 N 
ATOM      2  C   UNL     1       0.103  -0.745  -2.425  0.00  0.00    +0.069 A 
ATOM      3  C   UNL     1      -1.195  -0.677  -2.912  0.00  0.00    +0.030 A 
ATOM      4  C   UNL     1      -1.453  -1.026  -4.220  0.00  0.00    +0.030 A 
ATOM      5  C   UNL     1      -0.424  -1.444  -5.053  0.00  0.00    +0.108 A 
ATOM      6  C   UNL     1       0.859  -1.517  -4.591  0.00  0.00    +0.058 A 
ATOM      7  C   UNL     1       1.145  -1.168  -3.268  0.00  0.00    +0.091 A 
ATOM      8  N   UNL     1       2.286  -1.136  -2.534  0.00  0.00    -0.229 NA
ATOM      9  C   UNL     1       2.019  -0.726  -1.328  0.00  0.00    +0.149 A 
ENDROOT
BRANCH   5  10
ATOM     10  S   UNL     1      -0.777  -1.885  -6.721  0.00  0.00    +0.060 S 
ATOM     11  O   UNL     1       0.260  -2.762  -7.138  0.00  0.00    -0.153 OA
ATOM     12  O   UNL     1      -2.149  -2.253  -6.763  0.00  0.00    -0.153 OA
BRANCH  10  13
ATOM     13  N   UNL     1      -0.629  -0.510  -7.633  0.00  0.00    -0.183 NA
ATOM     14  C   UNL     1       0.663  -0.161  -8.227  0.00  0.00    +0.131 C 
ATOM     15  C   UNL     1      -1.791   0.357  -7.845  0.00  0.00    +0.131 C 
ENDBRANCH  10  13
ENDBRANCH   5  10
BRANCH   1  17
ATOM     16  C   UNL     1      -0.019   1.526   0.010  0.00  0.00    +0.027 C 
ATOM     17  C   UNL     1       0.002  -0.004   0.002  0.00  0.00    +0.120 C 
ENDBRANCH   1  17
BRANCH   9  18
ATOM     18  C   UNL     1       3.036  -0.556  -0.229  0.00  0.00    +0.306 C 
BRANCH  18  19
ATOM     19  O   UNL     1       3.155  -1.777   0.504  0.00  0.00    -0.452 OA
BRANCH  19  20
ATOM     20  C   UNL     1       4.029  -1.793   1.528  0.00  0.00    +0.360 C 
ATOM     21  O   UNL     1       4.674  -0.798   1.793  0.00  0.00    -0.243 OA
BRANCH  20  22
ATOM     22  C   UNL     1       4.205  -3.021   2.330  0.00  0.00    +0.170 A 
ATOM     23  C   UNL     1       5.075  -3.184   3.430  0.00  0.00    +0.064 A 
ATOM     24  C   UNL     1       4.896  -4.474   3.846  0.00  0.00    +0.067 A 
ATOM     25  N   UNL     1       3.963  -5.029   3.022  0.00  0.00    -0.276 N 
ATOM     26  H   UNL     1       3.638  -5.941   3.083  0.00  0.00    +0.189 HD
ATOM     27  N   UNL     1       3.573  -4.165   2.155  0.00  0.00    -0.167 NA
BRANCH  24  28
ATOM     28  C   UNL     1       5.583  -5.139   4.976  0.00  0.00    -0.000 A 
ATOM     29  C   UNL     1       6.516  -4.437   5.739  0.00  0.00    +0.013 A 
ATOM     30  C   UNL     1       7.154  -5.062   6.790  0.00  0.00    +0.039 A 
ATOM     31  C   UNL     1       6.869  -6.385   7.089  0.00  0.00    +0.123 A 
ATOM     32  C   UNL     1       5.943  -7.087   6.334  0.00  0.00    +0.039 A 
ATOM     33  C   UNL     1       5.296  -6.469   5.284  0.00  0.00    +0.013 A 
ATOM     34  F   UNL     1       7.496  -6.992   8.120  0.00  0.00    -0.205 F 
ENDBRANCH  24  28
ENDBRANCH  20  22
ENDBRANCH  19  20
ENDBRANCH  18  19
ENDBRANCH   9  18
TORSDOF 8
