REMARK  Name = ZINC16842161
REMARK  9 active torsions:
REMARK  status: ('A' for Active; 'I' for Inactive)
REMARK    1  A    between atoms: C_1  and  C_2
REMARK    2  A    between atoms: C_2  and  C_3
REMARK    3  A    between atoms: C_8  and  N_9
REMARK    4  A    between atoms: C_10  and  C_12
REMARK    5  A    between atoms: C_12  and  S_13
REMARK    6  A    between atoms: S_13  and  C_14
REMARK    7  A    between atoms: C_17  and  S_21
REMARK    8  A    between atoms: C_18  and  N_20
REMARK    9  A    between atoms: S_21  and  C_24
REMARK                            x       y       z     vdW  Elec       q    Type
REMARK                         _______ _______ _______ _____ _____    ______ ____
ROOT
ATOM      1  C   UNL     1      -3.551   5.069   4.299  0.00  0.00    +0.190 A 
ATOM      2  N   UNL     1      -3.104   6.053   3.532  0.00  0.00    -0.228 NA
ATOM      3  C   UNL     1      -2.812   5.843   2.257  0.00  0.00    +0.144 A 
ATOM      4  C   UNL     1      -2.986   4.581   1.722  0.00  0.00    +0.152 A 
ATOM      5  C   UNL     1      -3.457   3.564   2.555  0.00  0.00    +0.146 A 
ATOM      6  N   UNL     1      -3.727   3.844   3.826  0.00  0.00    -0.205 NA
ENDROOT
BRANCH   5   7
ATOM      7  N   UNL     1      -3.642   2.282   2.063  0.00  0.00    -0.342 N 
ATOM      8  H   UNL     1      -3.442   2.085   1.135  0.00  0.00    +0.144 HD
ATOM      9  H   UNL     1      -3.970   1.581   2.648  0.00  0.00    +0.144 HD
ENDBRANCH   5   7
BRANCH   4  10
ATOM     10  S   UNL     1      -2.614   4.260   0.030  0.00  0.00    +0.036 S 
ATOM     11  O   UNL     1      -2.138   5.481  -0.519  0.00  0.00    -0.164 OA
ATOM     12  O   UNL     1      -3.732   3.567  -0.507  0.00  0.00    -0.164 OA
BRANCH  10  13
ATOM     13  C   UNL     1      -1.260   3.133  -0.001  0.00  0.00    +0.131 A 
ATOM     14  C   UNL     1      -1.278   1.778  -0.017  0.00  0.00    +0.035 A 
ATOM     15  C   UNL     1      -0.078   1.092  -0.037  0.00  0.00    +0.009 A 
ATOM     16  C   UNL     1       1.081   1.794  -0.052  0.00  0.00    +0.047 A 
ATOM     17  S   UNL     1       0.491   3.479  -0.029  0.00  0.00    -0.078 S 
ENDBRANCH  10  13
ENDBRANCH   4  10
BRANCH   1  18
ATOM     18  S   UNL     1      -3.920   5.398   5.990  0.00  0.00    -0.077 S 
BRANCH  18  19
ATOM     19  C   UNL     1      -3.507   7.158   6.066  0.00  0.00    +0.173 C 
BRANCH  19  21
ATOM     20  N   UNL     1      -3.511   8.966   7.754  0.00  0.00    -0.285 N 
ATOM     21  C   UNL     1      -3.751   7.673   7.461  0.00  0.00    +0.227 C 
ATOM     22  O   UNL     1      -4.164   6.923   8.320  0.00  0.00    -0.275 OA
ATOM     23  H   UNL     1      -3.106   9.547   7.091  0.00  0.00    +0.155 HD
BRANCH  20  29
ATOM     24  C   UNL     1      -3.183  10.584   9.517  0.00  0.00    -0.026 A 
ATOM     25  C   UNL     1      -3.516  11.080  10.762  0.00  0.00    +0.005 A 
ATOM     26  C   UNL     1      -4.509  10.472  11.508  0.00  0.00    +0.000 A 
ATOM     27  C   UNL     1      -5.171   9.364  11.010  0.00  0.00    +0.002 A 
ATOM     28  C   UNL     1      -4.846   8.866   9.764  0.00  0.00    +0.023 A 
ATOM     29  C   UNL     1      -3.846   9.472   9.015  0.00  0.00    +0.037 A 
BRANCH  24  31
ATOM     30  C   UNL     1      -2.734  12.247   7.734  0.00  0.00    +0.009 C 
ATOM     31  C   UNL     1      -2.102  11.248   8.705  0.00  0.00    +0.033 C 
ENDBRANCH  24  31
ENDBRANCH  20  29
ENDBRANCH  19  21
ENDBRANCH  18  19
ENDBRANCH   1  18
TORSDOF 8
