REMARK  Name = ZINC38702507
REMARK  5 active torsions:
REMARK  status: ('A' for Active; 'I' for Inactive)
REMARK    1  A    between atoms: C_1  and  C_2
REMARK    2  A    between atoms: C_2  and  O_3
REMARK    3  A    between atoms: O_3  and  C_4
REMARK    4  A    between atoms: C_6  and  C_11
REMARK    5  A    between atoms: C_9  and  O_10
REMARK                            x       y       z     vdW  Elec       q    Type
REMARK                         _______ _______ _______ _____ _____    ______ ____
ROOT
ATOM      1  C   UNL     1      -0.217  -4.963  -0.535  0.00  0.00    +0.142 C 
ATOM      2  C   UNL     1       0.855  -5.469  -1.443  0.00  0.00    +0.072 A 
ATOM      3  C   UNL     1       1.766  -4.763  -2.351  0.00  0.00    +0.199 A 
ATOM      4  O   UNL     1       1.886  -3.551  -2.365  0.00  0.00    -0.287 OA
ATOM      5  C   UNL     1       2.527  -5.667  -3.250  0.00  0.00    +0.066 A 
ATOM      6  C   UNL     1       3.282  -5.145  -4.301  0.00  0.00    +0.035 A 
ATOM      7  C   UNL     1       3.978  -5.999  -5.128  0.00  0.00    +0.042 A 
ATOM      8  C   UNL     1       3.927  -7.371  -4.915  0.00  0.00    +0.023 A 
ATOM      9  C   UNL     1       3.187  -7.896  -3.880  0.00  0.00    +0.048 A 
ATOM     10  C   UNL     1       2.475  -7.053  -3.027  0.00  0.00    +0.140 A 
ATOM     11  O   UNL     1       1.764  -7.595  -2.011  0.00  0.00    -0.450 OA
ATOM     12  C   UNL     1       0.894  -6.829  -1.324  0.00  0.00    +0.199 A 
ATOM     13  C   UNL     1      -0.138  -7.238  -0.356  0.00  0.00    +0.281 C 
ATOM     14  O   UNL     1      -0.368  -8.385  -0.025  0.00  0.00    -0.267 OA
ATOM     15  N   UNL     1      -0.793  -6.154   0.111  0.00  0.00    -0.298 N 
ATOM     16 CL   UNL     1       4.920  -5.360  -6.439  0.00  0.00    -0.084 Cl
ATOM     17  H   UNL     1      -1.516  -6.157   0.758  0.00  0.00    +0.150 HD
ENDROOT
BRANCH   1  20
ATOM     18  C   UNL     1       0.802  -1.825   1.306  0.00  0.00    +0.162 A 
ATOM     19  C   UNL     1       0.261  -2.673   0.353  0.00  0.00    +0.055 A 
ATOM     20  C   UNL     1       0.372  -4.043   0.502  0.00  0.00    -0.019 A 
ATOM     21  C   UNL     1       1.024  -4.570   1.602  0.00  0.00    +0.009 A 
ATOM     22  C   UNL     1       1.566  -3.730   2.557  0.00  0.00    +0.049 A 
ATOM     23  C   UNL     1       1.462  -2.356   2.410  0.00  0.00    +0.158 A 
BRANCH  23  24
ATOM     24  O   UNL     1       2.000  -1.528   3.345  0.00  0.00    -0.503 OA
ATOM     25  H   UNL     1       1.395  -1.301   4.064  0.00  0.00    +0.292 HD
ENDBRANCH  23  24
BRANCH  18  26
ATOM     26  O   UNL     1       0.693  -0.477   1.160  0.00  0.00    -0.489 OA
BRANCH  26  28
ATOM     27  C   UNL     1      -0.019   1.526   0.010  0.00  0.00    +0.048 C 
ATOM     28  C   UNL     1       0.002  -0.004   0.002  0.00  0.00    +0.226 C 
ENDBRANCH  26  28
ENDBRANCH  18  26
ENDBRANCH   1  20
TORSDOF 4
