REMARK  Name = ZINC38729682
REMARK  8 active torsions:
REMARK  status: ('A' for Active; 'I' for Inactive)
REMARK    1  A    between atoms: C_4  and  C_7
REMARK    2  A    between atoms: C_7  and  C_41
REMARK    3  A    between atoms: C_13  and  C_15
REMARK    4  A    between atoms: C_21  and  C_23
REMARK    5  A    between atoms: N_25  and  C_26
REMARK    6  A    between atoms: C_26  and  C_28
REMARK    7  A    between atoms: C_26  and  C_38
REMARK    8  A    between atoms: C_28  and  C_29
REMARK                            x       y       z     vdW  Elec       q    Type
REMARK                         _______ _______ _______ _____ _____    ______ ____
ROOT
ATOM      1  C   UNL     1       5.913  -4.938  -1.796  0.00  0.00    +0.091 C 
ATOM      2  C   UNL     1       4.468  -5.423  -1.930  0.00  0.00    +0.040 C 
ATOM      3  C   UNL     1       4.433  -6.920  -2.032  0.00  0.00    -0.030 C 
ATOM      4  C   UNL     1       5.460  -7.651  -2.326  0.00  0.00    -0.030 C 
ATOM      5  C   UNL     1       6.832  -7.105  -2.595  0.00  0.00    +0.040 C 
ATOM      6  C   UNL     1       6.757  -5.606  -2.889  0.00  0.00    +0.091 C 
ENDROOT
BRANCH   1  13
ATOM      7  C   UNL     1       5.550  -1.142   1.417  0.00  0.00    +0.085 C 
ATOM      8  C   UNL     1       5.538  -2.672   1.457  0.00  0.00    +0.045 C 
ATOM      9  C   UNL     1       4.841  -3.206   0.202  0.00  0.00    +0.109 C 
ATOM     10  N   UNL     1       5.500  -2.638  -0.983  0.00  0.00    -0.301 N 
ATOM     11  C   UNL     1       5.645  -1.179  -1.079  0.00  0.00    +0.109 C 
ATOM     12  C   UNL     1       6.333  -0.668   0.191  0.00  0.00    +0.045 C 
ATOM     13  C   UNL     1       5.962  -3.441  -1.962  0.00  0.00    +0.220 C 
ATOM     14  O   UNL     1       6.416  -2.958  -2.978  0.00  0.00    -0.275 OA
BRANCH   7  18
ATOM     15  C   UNL     1       7.408   0.358   4.959  0.00  0.00    +0.000 A 
ATOM     16  C   UNL     1       6.273  -0.426   5.053  0.00  0.00    +0.000 A 
ATOM     17  C   UNL     1       5.672  -0.911   3.906  0.00  0.00    +0.005 A 
ATOM     18  C   UNL     1       6.205  -0.612   2.666  0.00  0.00    -0.027 A 
ATOM     19  C   UNL     1       7.339   0.172   2.573  0.00  0.00    +0.005 A 
ATOM     20  C   UNL     1       7.941   0.657   3.719  0.00  0.00    +0.000 A 
ENDBRANCH   7  18
BRANCH   7  21
ATOM     21  C   UNL     1       4.168  -0.643   1.339  0.00  0.00    +0.074 C 
ATOM     22  N   UNL     1       3.100  -0.258   1.278  0.00  0.00    -0.196 NA
ENDBRANCH   7  21
ENDBRANCH   1  13
BRANCH   6  23
ATOM     23  C   UNL     1       6.110  -5.389  -4.232  0.00  0.00    +0.218 C 
ATOM     24  O   UNL     1       5.178  -4.620  -4.340  0.00  0.00    -0.275 OA
ATOM     25  N   UNL     1       6.566  -6.050  -5.315  0.00  0.00    -0.303 N 
ATOM     26  H   UNL     1       7.311  -6.665  -5.229  0.00  0.00    +0.149 HD
BRANCH  25  27
ATOM     27  C   UNL     1       5.937  -5.839  -6.621  0.00  0.00    +0.163 C 
BRANCH  27  28
ATOM     28  C   UNL     1       4.739  -6.744  -6.753  0.00  0.00    +0.231 C 
ATOM     29  O   UNL     1       4.440  -7.490  -5.846  0.00  0.00    -0.274 OA
ATOM     30  N   UNL     1       4.000  -6.722  -7.880  0.00  0.00    -0.328 N 
ATOM     31  H   UNL     1       4.239  -6.125  -8.605  0.00  0.00    +0.145 HD
ATOM     32  H   UNL     1       3.228  -7.304  -7.965  0.00  0.00    +0.145 HD
ENDBRANCH  27  28
BRANCH  27  33
ATOM     33  C   UNL     1       6.942  -6.159  -7.729  0.00  0.00    +0.069 C 
BRANCH  33  34
ATOM     34  C   UNL     1       8.083  -5.175  -7.672  0.00  0.00    -0.020 A 
ATOM     35  C   UNL     1       9.276  -5.272  -6.828  0.00  0.00    +0.003 A 
ATOM     36  C   UNL     1       9.728  -6.201  -5.889  0.00  0.00    +0.010 A 
ATOM     37  C   UNL     1      10.921  -5.999  -5.254  0.00  0.00    +0.001 A 
ATOM     38  C   UNL     1      11.688  -4.877  -5.536  0.00  0.00    +0.002 A 
ATOM     39  C   UNL     1      11.261  -3.948  -6.460  0.00  0.00    +0.026 A 
ATOM     40  C   UNL     1      10.050  -4.134  -7.118  0.00  0.00    +0.047 A 
ATOM     41  N   UNL     1       9.366  -3.408  -8.067  0.00  0.00    -0.360 N 
ATOM     42  C   UNL     1       8.200  -4.047  -8.389  0.00  0.00    +0.087 A 
ATOM     43  H   UNL     1       9.668  -2.571  -8.453  0.00  0.00    +0.165 HD
ENDBRANCH  33  34
ENDBRANCH  27  33
ENDBRANCH  25  27
ENDBRANCH   6  23
TORSDOF 8
