REMARK  Name = ZINC36029710
REMARK  12 active torsions:
REMARK  status: ('A' for Active; 'I' for Inactive)
REMARK    1  A    between atoms: C_1  and  C_2
REMARK    2  A    between atoms: C_2  and  C_3
REMARK    3  A    between atoms: C_2  and  C_4
REMARK    4  A    between atoms: C_4  and  C_5
REMARK    5  A    between atoms: N_9  and  C_26
REMARK    6  A    between atoms: C_17  and  C_19
REMARK    7  A    between atoms: C_26  and  C_27
REMARK    8  A    between atoms: C_27  and  C_28
REMARK    9  A    between atoms: C_31  and  O_36
REMARK   10  A    between atoms: C_32  and  O_34
REMARK   11  A    between atoms: O_34  and  C_35
REMARK   12  A    between atoms: O_36  and  C_37
REMARK                            x       y       z     vdW  Elec       q    Type
REMARK                         _______ _______ _______ _____ _____    ______ ____
ROOT
ATOM      1  C   UNL     1      -0.186  -1.990   1.531  0.00  0.00    +0.019 C 
ATOM      2  C   UNL     1      -1.577  -2.336   1.045  0.00  0.00    +0.200 C 
ATOM      3  O   UNL     1      -2.276  -1.638   0.341  0.00  0.00    -0.277 OA
ATOM      4  N   UNL     1      -1.909  -3.552   1.528  0.00  0.00    -0.313 N 
ATOM      5  C   UNL     1      -0.801  -4.079   2.329  0.00  0.00    +0.006 C 
ATOM      6  N   UNL     1       0.070  -2.927   2.652  0.00  0.00    +0.401 N 
ATOM      7  C   UNL     1      -1.332  -4.703   3.619  0.00  0.00    +0.025 C 
ATOM      8  C   UNL     1      -2.261  -5.872   3.273  0.00  0.00    +0.108 C 
ATOM      9  N   UNL     1      -1.541  -6.802   2.393  0.00  0.00    -0.298 N 
ATOM     10  C   UNL     1      -0.929  -6.282   1.162  0.00  0.00    +0.108 C 
ATOM     11  C   UNL     1      -0.011  -5.110   1.526  0.00  0.00    +0.025 C 
ATOM     12  C   UNL     1      -1.445  -8.109   2.708  0.00  0.00    +0.247 C 
ATOM     13  O   UNL     1      -2.022  -8.543   3.686  0.00  0.00    -0.270 OA
ATOM     14  H   UNL     1       1.039  -3.205   2.670  0.00  0.00    -0.082 HD
ATOM     15  H   UNL     1      -0.200  -2.512   3.531  0.00  0.00    -0.082 HD
ENDROOT
BRANCH  12  16
ATOM     16  C   UNL     1      -0.638  -9.016   1.864  0.00  0.00    +0.040 A 
ATOM     17  C   UNL     1       0.180  -9.980   2.454  0.00  0.00    +0.013 A 
ATOM     18  C   UNL     1       0.931 -10.824   1.662  0.00  0.00    +0.004 A 
ATOM     19  C   UNL     1       0.876 -10.716   0.284  0.00  0.00    +0.038 A 
ATOM     20  C   UNL     1       0.067  -9.761  -0.310  0.00  0.00    +0.124 A 
ATOM     21  C   UNL     1      -0.695  -8.914   0.473  0.00  0.00    +0.051 A 
ATOM     22  F   UNL     1       0.018  -9.661  -1.656  0.00  0.00    -0.205 F 
ENDBRANCH  12  16
BRANCH   1  23
ATOM     23  C   UNL     1      -0.138  -0.543   2.024  0.00  0.00    -0.004 C 
BRANCH  23  25
ATOM     24  C   UNL     1       2.254  -0.267   1.356  0.00  0.00    +0.007 C 
ATOM     25  C   UNL     1       1.270  -0.222   2.528  0.00  0.00    -0.018 C 
ATOM     26  C   UNL     1       1.283   1.175   3.151  0.00  0.00    +0.007 C 
ENDBRANCH  23  25
ENDBRANCH   1  23
BRANCH   4  27
ATOM     27  C   UNL     1      -3.180  -4.239   1.287  0.00  0.00    +0.110 C 
BRANCH  27  28
ATOM     28  C   UNL     1      -4.197  -3.818   2.351  0.00  0.00    +0.054 C 
BRANCH  28  29
ATOM     29  C   UNL     1      -5.473  -4.596   2.162  0.00  0.00    -0.042 A 
ATOM     30  C   UNL     1      -6.467  -4.101   1.339  0.00  0.00    +0.007 A 
ATOM     31  C   UNL     1      -7.640  -4.811   1.162  0.00  0.00    +0.049 A 
ATOM     32  C   UNL     1      -7.821  -6.022   1.810  0.00  0.00    +0.161 A 
ATOM     33  C   UNL     1      -6.820  -6.521   2.638  0.00  0.00    +0.162 A 
ATOM     34  C   UNL     1      -5.645  -5.807   2.807  0.00  0.00    +0.053 A 
BRANCH  33  35
ATOM     35  O   UNL     1      -6.993  -7.710   3.276  0.00  0.00    -0.491 OA
ATOM     36  C   UNL     1      -5.923  -8.160   4.110  0.00  0.00    +0.277 C 
ENDBRANCH  33  35
BRANCH  32  37
ATOM     37  O   UNL     1      -8.974  -6.722   1.638  0.00  0.00    -0.491 OA
ATOM     38  C   UNL     1      -9.958  -6.149   0.774  0.00  0.00    +0.277 C 
ENDBRANCH  32  37
ENDBRANCH  28  29
ENDBRANCH  27  28
ENDBRANCH   4  27
TORSDOF 8
