REMARK  Name = ZINC36236329
REMARK  5 active torsions:
REMARK  status: ('A' for Active; 'I' for Inactive)
REMARK    1  A    between atoms: C_6  and  C_7
REMARK    2  A    between atoms: N_9  and  N_10
REMARK    3  A    between atoms: C_11  and  C_12
REMARK    4  A    between atoms: C_14  and  O_21
REMARK    5  A    between atoms: C_17  and  N_18
REMARK                            x       y       z     vdW  Elec       q    Type
REMARK                         _______ _______ _______ _____ _____    ______ ____
ROOT
ATOM      1  N   UNL     1      -2.506  -2.893  -0.585  0.00  0.00    -0.187 NA
ATOM      2  C   UNL     1      -2.439  -4.119  -0.163  0.00  0.00    +0.140 C 
ENDROOT
BRANCH   2   3
ATOM      3  C   UNL     1      -1.155  -4.842  -0.201  0.00  0.00    +0.028 A 
ATOM      4  C   UNL     1       0.048  -4.140  -0.104  0.00  0.00    +0.057 A 
ATOM      5  C   UNL     1       1.250  -4.827  -0.140  0.00  0.00    +0.118 A 
ATOM      6  C   UNL     1       1.257  -6.209  -0.273  0.00  0.00    +0.047 A 
ATOM      7  C   UNL     1       0.067  -6.906  -0.369  0.00  0.00    +0.037 A 
ATOM      8  C   UNL     1      -1.137  -6.233  -0.328  0.00  0.00    +0.135 A 
BRANCH   8   9
ATOM      9  N   UNL     1      -2.409  -6.984  -0.425  0.00  0.00    +0.057 N 
ATOM     10  O   UNL     1      -2.398  -8.193  -0.426  0.00  0.00    -0.126 OA
ATOM     11  O   UNL     1      -3.458  -6.389  -0.502  0.00  0.00    -0.126 OA
ENDBRANCH   8   9
BRANCH   5  12
ATOM     12  O   UNL     1       2.423  -4.147  -0.047  0.00  0.00    -0.507 OA
ATOM     13  H   UNL     1       2.741  -4.035   0.859  0.00  0.00    +0.292 HD
ENDBRANCH   5  12
ENDBRANCH   2   3
BRANCH   1  16
ATOM     14  C   UNL     1      -1.440  -1.017  -1.589  0.00  0.00    +0.263 C 
ATOM     15  O   UNL     1      -2.366  -0.314  -1.232  0.00  0.00    -0.268 OA
ATOM     16  N   UNL     1      -1.416  -2.322  -1.253  0.00  0.00    -0.203 N 
ATOM     17  H   UNL     1      -0.644  -2.865  -1.475  0.00  0.00    +0.178 HD
BRANCH  14  23
ATOM     18  C   UNL     1      -0.414   0.884  -2.830  0.00  0.00    +0.014 A 
ATOM     19  C   UNL     1       0.615   1.416  -3.577  0.00  0.00    +0.021 A 
ATOM     20  C   UNL     1       1.719   0.641  -3.893  0.00  0.00    +0.041 A 
ATOM     21  C   UNL     1       1.797  -0.672  -3.460  0.00  0.00    +0.021 A 
ATOM     22  C   UNL     1       0.774  -1.216  -2.712  0.00  0.00    +0.014 A 
ATOM     23  C   UNL     1      -0.341  -0.440  -2.391  0.00  0.00    +0.038 A 
ATOM     24 CL   UNL     1       3.010   1.319  -4.835  0.00  0.00    -0.084 Cl
ENDBRANCH  14  23
ENDBRANCH   1  16
TORSDOF 5
