REMARK  Name = ZINC63654882
REMARK  8 active torsions:
REMARK  status: ('A' for Active; 'I' for Inactive)
REMARK    1  A    between atoms: C_1  and  O_2
REMARK    2  A    between atoms: O_2  and  C_3
REMARK    3  A    between atoms: C_6  and  C_9
REMARK    4  A    between atoms: C_11  and  S_19
REMARK    5  A    between atoms: S_19  and  C_20
REMARK    6  A    between atoms: C_20  and  C_21
REMARK    7  A    between atoms: C_21  and  N_22
REMARK    8  A    between atoms: C_23  and  C_25
REMARK                            x       y       z     vdW  Elec       q    Type
REMARK                         _______ _______ _______ _____ _____    ______ ____
ROOT
ATOM      1  C   UNL     1       2.528  -2.496  -4.408  0.00  0.00    +0.147 C 
ATOM      2  C   UNL     1       1.480  -2.979  -5.386  0.00  0.00    +0.021 C 
ATOM      3  C   UNL     1       1.648  -4.358  -5.465  0.00  0.00    +0.010 A 
ATOM      4  C   UNL     1       0.977  -5.358  -6.203  0.00  0.00    +0.011 A 
ATOM      5  C   UNL     1       1.361  -6.655  -6.083  0.00  0.00    +0.001 A 
ATOM      6  C   UNL     1       2.410  -7.032  -5.244  0.00  0.00    +0.002 A 
ATOM      7  C   UNL     1       3.098  -6.124  -4.507  0.00  0.00    +0.026 A 
ATOM      8  C   UNL     1       2.754  -4.750  -4.579  0.00  0.00    +0.044 A 
ATOM      9  N   UNL     1       3.260  -3.690  -3.974  0.00  0.00    -0.373 N 
ATOM     10  H   UNL     1       3.998  -3.699  -3.344  0.00  0.00    +0.161 HD
ENDROOT
BRANCH   1  14
ATOM     11  C   UNL     1       0.658  -0.618  -1.055  0.00  0.00    +0.120 A 
ATOM     12  C   UNL     1       1.209   0.155  -2.067  0.00  0.00    +0.046 A 
ATOM     13  C   UNL     1       1.813  -0.454  -3.149  0.00  0.00    +0.009 A 
ATOM     14  C   UNL     1       1.869  -1.834  -3.225  0.00  0.00    -0.020 A 
ATOM     15  C   UNL     1       1.320  -2.607  -2.219  0.00  0.00    +0.009 A 
ATOM     16  C   UNL     1       0.720  -2.002  -1.131  0.00  0.00    +0.046 A 
BRANCH  11  18
ATOM     17  C   UNL     1       0.036   1.408   0.022  0.00  0.00    +0.277 C 
ATOM     18  O   UNL     1       0.063  -0.021   0.011  0.00  0.00    -0.495 OA
ENDBRANCH  11  18
ENDBRANCH   1  14
BRANCH   2  19
ATOM     19  S   UNL     1       0.362  -2.057  -6.195  0.00  0.00    -0.125 S 
BRANCH  19  20
ATOM     20  C   UNL     1      -0.458  -3.234  -7.305  0.00  0.00    +0.093 C 
BRANCH  20  21
ATOM     21  C   UNL     1      -1.425  -2.482  -8.222  0.00  0.00    +0.115 C 
BRANCH  21  22
ATOM     22  N   UNL     1      -2.087  -3.433  -9.118  0.00  0.00    -0.308 N 
ATOM     23  C   UNL     1      -2.987  -2.994 -10.020  0.00  0.00    +0.279 C 
ATOM     24  O   UNL     1      -3.250  -1.808 -10.089  0.00  0.00    -0.267 OA
ATOM     25  H   UNL     1      -1.877  -4.378  -9.063  0.00  0.00    +0.149 HD
BRANCH  23  26
ATOM     26  C   UNL     1      -3.650  -3.945 -10.917  0.00  0.00    +0.191 A 
ATOM     27  C   UNL     1      -4.572  -3.635 -11.875  0.00  0.00    +0.056 A 
ATOM     28  C   UNL     1      -4.937  -4.842 -12.490  0.00  0.00    +0.058 A 
ATOM     29  C   UNL     1      -4.229  -5.825 -11.888  0.00  0.00    +0.171 A 
ATOM     30  O   UNL     1      -3.450  -5.279 -10.944  0.00  0.00    -0.444 OA
ATOM     31 BR   UNL     1      -4.317  -7.666 -12.313  0.00  0.00    -0.008 Br
ENDBRANCH  23  26
ENDBRANCH  21  22
ENDBRANCH  20  21
ENDBRANCH  19  20
ENDBRANCH   2  19
TORSDOF 7
