REMARK  Name = ZINC54201279
REMARK  10 active torsions:
REMARK  status: ('A' for Active; 'I' for Inactive)
REMARK    1  A    between atoms: C_1  and  C_2
REMARK    2  A    between atoms: C_2  and  O_3
REMARK    3  A    between atoms: O_3  and  C_4
REMARK    4  A    between atoms: C_6  and  C_11
REMARK    5  A    between atoms: C_9  and  O_10
REMARK    6  A    between atoms: C_19  and  C_32
REMARK    7  A    between atoms: C_22  and  C_24
REMARK    8  A    between atoms: C_27  and  O_30
REMARK    9  A    between atoms: O_30  and  C_31
REMARK   10  A    between atoms: C_37  and  O_38
REMARK                            x       y       z     vdW  Elec       q    Type
REMARK                         _______ _______ _______ _____ _____    ______ ____
ROOT
ATOM      1  C   UNL     1      -0.207  -4.963   0.440  0.00  0.00    +0.026 C 
ATOM      2  C   UNL     1      -0.189  -6.306   0.223  0.00  0.00    +0.057 C 
ATOM      3  C   UNL     1      -0.778  -7.398   1.019  0.00  0.00    +0.149 C 
ATOM      4  N   UNL     1      -0.607  -8.609   0.574  0.00  0.00    -0.153 NA
ATOM      5  C   UNL     1       0.070  -8.867  -0.552  0.00  0.00    +0.302 C 
ATOM      6  O   UNL     1       0.298  -9.947  -1.071  0.00  0.00    -0.260 OA
ATOM      7  S   UNL     1       0.550  -7.240  -1.112  0.00  0.00    -0.026 S 
ATOM      8  N   UNL     1      -1.474  -7.149   2.176  0.00  0.00    -0.200 N 
ATOM      9  C   UNL     1      -2.092  -8.168   3.039  0.00  0.00    +0.139 C 
ATOM     10  C   UNL     1      -2.728  -7.343   4.175  0.00  0.00    +0.087 C 
ATOM     11  C   UNL     1      -2.391  -5.913   3.819  0.00  0.00    +0.069 C 
ATOM     12  N   UNL     1      -1.706  -5.891   2.727  0.00  0.00    -0.182 NA
ENDROOT
BRANCH   1  15
ATOM     13  C   UNL     1       0.926  -1.826  -1.274  0.00  0.00    +0.162 A 
ATOM     14  C   UNL     1       0.447  -2.683  -0.303  0.00  0.00    +0.057 A 
ATOM     15  C   UNL     1       0.301  -4.047  -0.587  0.00  0.00    -0.020 A 
ATOM     16  C   UNL     1       0.641  -4.533  -1.856  0.00  0.00    +0.012 A 
ATOM     17  C   UNL     1       1.118  -3.671  -2.818  0.00  0.00    +0.050 A 
ATOM     18  C   UNL     1       1.258  -2.318  -2.536  0.00  0.00    +0.158 A 
BRANCH  18  19
ATOM     19  O   UNL     1       1.724  -1.472  -3.491  0.00  0.00    -0.503 OA
ATOM     20  H   UNL     1       2.686  -1.373  -3.493  0.00  0.00    +0.292 HD
ENDBRANCH  18  19
BRANCH  13  21
ATOM     21  O   UNL     1       1.069  -0.502  -1.001  0.00  0.00    -0.489 OA
BRANCH  21  23
ATOM     22  C   UNL     1       0.936   1.441   0.430  0.00  0.00    +0.048 C 
ATOM     23  C   UNL     1       0.710  -0.067   0.312  0.00  0.00    +0.226 C 
ENDBRANCH  21  23
ENDBRANCH  13  21
ENDBRANCH   1  15
BRANCH  11  24
ATOM     24  C   UNL     1      -2.780  -4.727   4.604  0.00  0.00    -0.002 A 
ATOM     25  C   UNL     1      -3.515  -4.876   5.783  0.00  0.00    +0.013 A 
ATOM     26  C   UNL     1      -3.876  -3.765   6.513  0.00  0.00    +0.046 A 
ATOM     27  C   UNL     1      -3.511  -2.497   6.078  0.00  0.00    +0.120 A 
ATOM     28  C   UNL     1      -2.780  -2.344   4.907  0.00  0.00    +0.046 A 
ATOM     29  C   UNL     1      -2.409  -3.450   4.173  0.00  0.00    +0.013 A 
BRANCH  27  30
ATOM     30  O   UNL     1      -3.869  -1.404   6.801  0.00  0.00    -0.495 OA
ATOM     31  C   UNL     1      -3.460  -0.131   6.297  0.00  0.00    +0.277 C 
ENDBRANCH  27  30
ENDBRANCH  11  24
BRANCH   9  32
ATOM     32  C   UNL     1      -1.046  -9.107   3.583  0.00  0.00    +0.017 A 
ATOM     33  C   UNL     1       0.270  -8.696   3.678  0.00  0.00    +0.009 A 
ATOM     34  C   UNL     1       1.230  -9.557   4.176  0.00  0.00    +0.001 A 
ATOM     35  C   UNL     1       0.876 -10.832   4.581  0.00  0.00    +0.004 A 
ATOM     36  C   UNL     1      -0.438 -11.247   4.488  0.00  0.00    +0.046 A 
ATOM     37  C   UNL     1      -1.405 -10.383   3.993  0.00  0.00    +0.122 A 
BRANCH  37  38
ATOM     38  O   UNL     1      -2.699 -10.787   3.907  0.00  0.00    -0.506 OA
ATOM     39  H   UNL     1      -2.924 -11.209   3.066  0.00  0.00    +0.292 HD
ENDBRANCH  37  38
ENDBRANCH   9  32
TORSDOF 8
