REMARK  Name = ZINC08915434
REMARK  6 active torsions:
REMARK  status: ('A' for Active; 'I' for Inactive)
REMARK    1  A    between atoms: C_3  and  C_8
REMARK    2  A    between atoms: C_11  and  C_13
REMARK    3  A    between atoms: C_15  and  C_27
REMARK    4  A    between atoms: C_17  and  C_22
REMARK    5  A    between atoms: C_17  and  O_26
REMARK    6  A    between atoms: C_27  and  C_29
REMARK                            x       y       z     vdW  Elec       q    Type
REMARK                         _______ _______ _______ _____ _____    ______ ____
ROOT
ATOM      1  C   UNL     1       5.634   5.234  -0.019  0.00  0.00    +0.156 C 
ATOM      2  C   UNL     1       5.569   5.816  -1.435  0.00  0.00    +0.147 C 
ATOM      3  C   UNL     1       6.026   7.278  -1.383  0.00  0.00    +0.243 C 
ATOM      4  N   UNL     1       5.209   8.002  -0.408  0.00  0.00    -0.264 N 
ATOM      5  C   UNL     1       4.673   7.381   0.653  0.00  0.00    +0.302 C 
ATOM      6  O   UNL     1       4.011   8.031   1.438  0.00  0.00    -0.253 OA
ATOM      7  N   UNL     1       4.839   6.069   0.883  0.00  0.00    -0.289 N 
ATOM      8  H   UNL     1       5.051   8.952  -0.532  0.00  0.00    +0.153 HD
ATOM      9  H   UNL     1       4.424   5.666   1.661  0.00  0.00    +0.151 HD
ENDROOT
BRANCH   1  13
ATOM     10  C   UNL     1       3.656   2.162  -0.022  0.00  0.00    +0.135 A 
ATOM     11  C   UNL     1       4.904   1.622  -0.042  0.00  0.00    +0.050 A 
ATOM     12  C   UNL     1       5.812   2.700  -0.044  0.00  0.00    +0.047 A 
ATOM     13  C   UNL     1       5.082   3.832  -0.025  0.00  0.00    +0.127 A 
ATOM     14  O   UNL     1       3.780   3.503  -0.017  0.00  0.00    -0.458 OA
BRANCH  10  17
ATOM     15  C   UNL     1      -0.017   1.379   0.010  0.00  0.00    +0.002 A 
ATOM     16  C   UNL     1       1.167   2.088   0.002  0.00  0.00    +0.011 A 
ATOM     17  C   UNL     1       2.385   1.408  -0.013  0.00  0.00    +0.019 A 
ATOM     18  C   UNL     1       2.398   0.012  -0.021  0.00  0.00    +0.031 A 
ATOM     19  C   UNL     1       1.207  -0.686  -0.013  0.00  0.00    +0.042 A 
ATOM     20  C   UNL     1       0.002  -0.004   0.002  0.00  0.00    +0.020 A 
ATOM     21 CL   UNL     1       1.220  -2.422  -0.023  0.00  0.00    -0.084 Cl
ENDBRANCH  10  17
ENDBRANCH   1  13
BRANCH   3  22
ATOM     22  C   UNL     1       7.496   7.339  -0.963  0.00  0.00    +0.436 C 
ATOM     23  F   UNL     1       8.275   6.640  -1.891  0.00  0.00    -0.166 F 
ATOM     24  F   UNL     1       7.912   8.674  -0.916  0.00  0.00    -0.166 F 
ATOM     25  F   UNL     1       7.645   6.759   0.301  0.00  0.00    -0.166 F 
ENDBRANCH   3  22
BRANCH   3  26
ATOM     26  O   UNL     1       5.871   7.873  -2.672  0.00  0.00    -0.364 OA
ATOM     27  H   UNL     1       6.142   8.800  -2.713  0.00  0.00    +0.212 HD
ENDBRANCH   3  26
BRANCH   2  28
ATOM     28  C   UNL     1       4.153   5.743  -1.947  0.00  0.00    +0.173 C 
ATOM     29  O   UNL     1       3.417   6.700  -1.833  0.00  0.00    -0.292 OA
BRANCH  28  30
ATOM     30  C   UNL     1       3.665   4.512  -2.585  0.00  0.00    +0.018 A 
ATOM     31  C   UNL     1       4.511   3.404  -2.713  0.00  0.00    +0.014 A 
ATOM     32  C   UNL     1       4.048   2.253  -3.312  0.00  0.00    +0.039 A 
ATOM     33  C   UNL     1       2.746   2.191  -3.788  0.00  0.00    +0.123 A 
ATOM     34  C   UNL     1       1.903   3.285  -3.664  0.00  0.00    +0.039 A 
ATOM     35  C   UNL     1       2.352   4.440  -3.062  0.00  0.00    +0.014 A 
ATOM     36  F   UNL     1       2.298   1.060  -4.375  0.00  0.00    -0.205 F 
ENDBRANCH  28  30
ENDBRANCH   2  28
TORSDOF 6
