REMARK  Name = ZINC01623323
REMARK  7 active torsions:
REMARK  status: ('A' for Active; 'I' for Inactive)
REMARK    1  A    between atoms: C_1  and  C_2
REMARK    2  A    between atoms: C_5  and  N_8
REMARK    3  A    between atoms: N_8  and  N_9
REMARK    4  A    between atoms: N_13  and  C_26
REMARK    5  A    between atoms: N_16  and  C_19
REMARK    6  A    between atoms: C_22  and  C_25
REMARK    7  A    between atoms: C_29  and  C_32
REMARK                            x       y       z     vdW  Elec       q    Type
REMARK                         _______ _______ _______ _____ _____    ______ ____
ROOT
ATOM      1  N   UNL     1       2.153  -2.796  -1.160  0.00  0.00    -0.172 NA
ATOM      2  C   UNL     1       1.121  -2.148  -0.653  0.00  0.00    +0.206 C 
ATOM      3  C   UNL     1      -0.253  -2.675  -0.770  0.00  0.00    +0.282 C 
ATOM      4  O   UNL     1      -0.472  -3.727  -1.341  0.00  0.00    -0.267 OA
ATOM      5  N   UNL     1      -1.258  -1.958  -0.228  0.00  0.00    -0.216 N 
ATOM      6  C   UNL     1      -1.030  -0.800   0.408  0.00  0.00    +0.158 C 
ATOM      7  S   UNL     1      -2.368   0.036   1.071  0.00  0.00    -0.017 S 
ATOM      8  N   UNL     1       0.188  -0.259   0.547  0.00  0.00    -0.216 N 
ATOM      9  C   UNL     1       1.289  -0.864   0.056  0.00  0.00    +0.282 C 
ATOM     10  O   UNL     1       2.390  -0.365   0.193  0.00  0.00    -0.267 OA
ENDROOT
BRANCH   8  11
ATOM     11  C   UNL     1       0.322   0.960   1.224  0.00  0.00    +0.043 A 
ATOM     12  C   UNL     1       0.540   0.974   2.595  0.00  0.00    +0.024 A 
ATOM     13  C   UNL     1       0.676   2.178   3.259  0.00  0.00    +0.005 A 
ATOM     14  C   UNL     1       0.584   3.368   2.561  0.00  0.00    -0.050 A 
ATOM     15  C   UNL     1       0.361   3.357   1.196  0.00  0.00    +0.005 A 
ATOM     16  C   UNL     1       0.230   2.157   0.526  0.00  0.00    +0.024 A 
ATOM     17  C   UNL     1       0.727   4.680   3.289  0.00  0.00    +0.044 C 
ENDBRANCH   8  11
BRANCH   5  18
ATOM     18  C   UNL     1      -2.571  -2.438  -0.326  0.00  0.00    +0.043 A 
ATOM     19  C   UNL     1      -3.077  -3.284   0.651  0.00  0.00    +0.024 A 
ATOM     20  C   UNL     1      -4.373  -3.752   0.553  0.00  0.00    +0.005 A 
ATOM     21  C   UNL     1      -5.163  -3.385  -0.521  0.00  0.00    -0.050 A 
ATOM     22  C   UNL     1      -4.660  -2.546  -1.498  0.00  0.00    +0.005 A 
ATOM     23  C   UNL     1      -3.366  -2.071  -1.404  0.00  0.00    +0.024 A 
ATOM     24  C   UNL     1      -6.575  -3.901  -0.627  0.00  0.00    +0.044 C 
ENDBRANCH   5  18
BRANCH   1  25
ATOM     25  N   UNL     1       1.977  -3.927  -1.754  0.00  0.00    -0.237 N 
ATOM     26  H   UNL     1       1.100  -4.341  -1.757  0.00  0.00    +0.174 HD
BRANCH  25  31
ATOM     27  C   UNL     1       6.326  -6.479  -4.345  0.00  0.00    +0.044 C 
ATOM     28  C   UNL     1       5.170  -5.800  -3.656  0.00  0.00    -0.050 A 
ATOM     29  C   UNL     1       3.920  -6.393  -3.662  0.00  0.00    +0.005 A 
ATOM     30  C   UNL     1       2.858  -5.774  -3.032  0.00  0.00    +0.025 A 
ATOM     31  C   UNL     1       3.047  -4.555  -2.391  0.00  0.00    +0.048 A 
ATOM     32  C   UNL     1       4.303  -3.960  -2.393  0.00  0.00    +0.025 A 
ATOM     33  C   UNL     1       5.362  -4.588  -3.020  0.00  0.00    +0.005 A 
ENDBRANCH  25  31
ENDBRANCH   1  25
TORSDOF 4
