REMARK  Name = ZINC60354908
REMARK  11 active torsions:
REMARK  status: ('A' for Active; 'I' for Inactive)
REMARK    1  A    between atoms: C_1  and  C_2
REMARK    2  A    between atoms: C_5  and  C_7
REMARK    3  A    between atoms: C_7  and  C_9
REMARK    4  A    between atoms: C_7  and  N_31
REMARK    5  A    between atoms: C_9  and  N_10
REMARK    6  A    between atoms: C_11  and  C_13
REMARK    7  A    between atoms: C_13  and  C_14
REMARK    8  A    between atoms: C_14  and  C_15
REMARK    9  A    between atoms: C_17  and  C_20
REMARK   10  A    between atoms: C_20  and  N_27
REMARK   11  A    between atoms: C_28  and  C_30
REMARK                            x       y       z     vdW  Elec       q    Type
REMARK                         _______ _______ _______ _____ _____    ______ ____
ROOT
ATOM      1  C   UNL     1       4.798  -6.196   2.373  0.00  0.00    +0.105 C 
ENDROOT
BRANCH   1   3
ATOM      2  N   UNL     1       3.248  -4.589   1.308  0.00  0.00    -0.316 N 
ATOM      3  C   UNL     1       3.862  -5.017   2.429  0.00  0.00    +0.213 C 
ATOM      4  O   UNL     1       3.660  -4.452   3.483  0.00  0.00    -0.276 OA
ATOM      5  H   UNL     1       3.410  -5.041   0.464  0.00  0.00    +0.149 HD
BRANCH   2   6
ATOM      6  C   UNL     1       2.338  -3.443   1.362  0.00  0.00    +0.096 C 
BRANCH   6   7
ATOM      7  C   UNL     1       1.678  -3.250  -0.005  0.00  0.00    +0.016 C 
BRANCH   7  12
ATOM      8  C   UNL     1      -2.285  -6.370  -0.010  0.00  0.00    +0.086 C 
ATOM      9  C   UNL     1      -0.926  -5.791  -0.311  0.00  0.00    +0.102 A 
ATOM     10  C   UNL     1       0.007  -6.345  -1.105  0.00  0.00    +0.044 A 
ATOM     11  C   UNL     1       1.118  -5.471  -1.103  0.00  0.00    +0.043 A 
ATOM     12  C   UNL     1       0.797  -4.434  -0.309  0.00  0.00    +0.093 A 
ATOM     13  O   UNL     1      -0.445  -4.630   0.164  0.00  0.00    -0.466 OA
ENDBRANCH   7  12
BRANCH   7  14
ATOM     14  N   UNL     1       0.866  -2.026   0.011  0.00  0.00    +0.387 N 
ATOM     15  C   UNL     1       1.732  -0.840   0.232  0.00  0.00    -0.078 C 
ATOM     16  C   UNL     1       0.882   0.329  -0.327  0.00  0.00    -0.020 C 
ATOM     17  C   UNL     1       0.197  -0.301  -1.561  0.00  0.00    -0.020 C 
ATOM     18  C   UNL     1       0.228  -1.820  -1.307  0.00  0.00    -0.078 C 
ATOM     19  H   UNL     1       0.164  -2.084   0.733  0.00  0.00    -0.081 HD
ENDBRANCH   7  14
ENDBRANCH   6   7
ENDBRANCH   2   6
ENDBRANCH   1   3
BRANCH   1  20
ATOM     20  C   UNL     1       5.355  -6.472   3.771  0.00  0.00    +0.108 C 
BRANCH  20  21
ATOM     21  C   UNL     1       6.292  -7.651   3.715  0.00  0.00    +0.228 A 
ATOM     22  N   UNL     1       7.577  -7.597   3.498  0.00  0.00    -0.194 NA
ATOM     23  C   UNL     1       8.098  -8.829   3.515  0.00  0.00    +0.195 A 
ATOM     24  N   UNL     1       7.145  -9.686   3.745  0.00  0.00    -0.059 NA
ATOM     25  O   UNL     1       5.949  -8.934   3.885  0.00  0.00    -0.338 OA
BRANCH  23  26
ATOM     26  C   UNL     1       9.550  -9.169   3.303  0.00  0.00    +0.097 C 
ATOM     27  C   UNL     1       9.999  -8.614   1.935  0.00  0.00    +0.034 C 
ATOM     28  C   UNL     1      11.498  -8.489   1.938  0.00  0.00    +0.003 C 
ATOM     29  C   UNL     1      12.194  -9.728   1.342  0.00  0.00    +0.000 C 
ATOM     30  C   UNL     1      11.549 -11.052   1.796  0.00  0.00    +0.000 C 
ATOM     31  C   UNL     1      11.189 -11.045   3.257  0.00  0.00    +0.003 C 
ATOM     32  C   UNL     1       9.715 -10.612   3.397  0.00  0.00    +0.034 C 
BRANCH  26  33
ATOM     33  N   UNL     1      10.345  -8.531   4.355  0.00  0.00    -0.303 N 
ATOM     34  C   UNL     1      10.332  -7.190   4.491  0.00  0.00    +0.211 C 
ATOM     35  O   UNL     1       9.662  -6.511   3.741  0.00  0.00    -0.276 OA
ATOM     36  C   UNL     1      11.150  -6.534   5.573  0.00  0.00    +0.109 C 
ATOM     37  H   UNL     1      10.881  -9.074   4.955  0.00  0.00    +0.150 HD
ENDBRANCH  26  33
ENDBRANCH  23  26
ENDBRANCH  20  21
ENDBRANCH   1  20
TORSDOF 9
