REMARK  Name = ZINC66893022
REMARK  7 active torsions:
REMARK  status: ('A' for Active; 'I' for Inactive)
REMARK    1  A    between atoms: C_1  and  C_2
REMARK    2  A    between atoms: C_2  and  C_3
REMARK    3  A    between atoms: C_2  and  N_4
REMARK    4  A    between atoms: N_4  and  C_5
REMARK    5  A    between atoms: C_11  and  C_13
REMARK    6  A    between atoms: C_13  and  N_14
REMARK    7  A    between atoms: C_19  and  C_21
REMARK                            x       y       z     vdW  Elec       q    Type
REMARK                         _______ _______ _______ _____ _____    ______ ____
ROOT
ATOM      1  N   UNL     1      -2.829   0.939   2.827  0.00  0.00    +0.393 N 
ATOM      2  C   UNL     1      -3.920   1.662   2.162  0.00  0.00    -0.077 C 
ATOM      3  C   UNL     1      -5.217   1.476   2.952  0.00  0.00    -0.019 C 
ATOM      4  C   UNL     1      -5.028   2.024   4.370  0.00  0.00    -0.003 C 
ATOM      5  C   UNL     1      -3.841   1.314   5.027  0.00  0.00    -0.006 C 
ATOM      6  C   UNL     1      -2.595   1.507   4.160  0.00  0.00    +0.020 C 
ATOM      7  H   UNL     1      -3.079  -0.035   2.916  0.00  0.00    -0.080 HD
ENDROOT
BRANCH   6   8
ATOM      8  C   UNL     1      -1.423   0.810   4.803  0.00  0.00    +0.202 C 
ATOM      9  O   UNL     1      -1.147  -0.328   4.488  0.00  0.00    -0.277 OA
ATOM     10  N   UNL     1      -0.683   1.452   5.728  0.00  0.00    -0.298 N 
ATOM     11  C   UNL     1      -1.064   2.789   6.210  0.00  0.00    +0.136 C 
ATOM     12  C   UNL     1      -1.067   2.768   7.742  0.00  0.00    +0.179 C 
ATOM     13  O   UNL     1       0.185   2.259   8.208  0.00  0.00    -0.377 OA
ATOM     14  C   UNL     1       0.451   0.910   7.816  0.00  0.00    +0.179 C 
ATOM     15  C   UNL     1       0.528   0.833   6.291  0.00  0.00    +0.136 C 
ENDBRANCH   6   8
BRANCH   1  16
ATOM     16  C   UNL     1      -1.605   1.056   2.024  0.00  0.00    +0.020 C 
BRANCH  16  18
ATOM     17  N   UNL     1      -0.855   0.448  -0.254  0.00  0.00    -0.297 N 
ATOM     18  C   UNL     1      -1.804   0.366   0.699  0.00  0.00    +0.199 C 
ATOM     19  O   UNL     1      -2.820  -0.264   0.491  0.00  0.00    -0.278 OA
BRANCH  17  20
ATOM     20  C   UNL     1      -0.997  -0.313  -1.497  0.00  0.00    +0.076 C 
ATOM     21  C   UNL     1      -2.279   0.116  -2.215  0.00  0.00    +0.022 C 
ATOM     22  C   UNL     1      -2.427  -0.679  -3.513  0.00  0.00    +0.002 C 
ATOM     23  C   UNL     1      -2.499  -2.173  -3.191  0.00  0.00    +0.000 C 
ATOM     24  C   UNL     1      -1.217  -2.602  -2.474  0.00  0.00    +0.002 C 
ATOM     25  C   UNL     1      -1.069  -1.807  -1.175  0.00  0.00    +0.022 C 
ENDBRANCH  17  20
BRANCH  17  27
ATOM     26  C   UNL     1       1.589   0.455  -0.172  0.00  0.00    +0.028 C 
ATOM     27  C   UNL     1       0.319   1.299  -0.046  0.00  0.00    +0.070 C 
ATOM     28  C   UNL     1       0.338   2.409  -1.099  0.00  0.00    +0.028 C 
ENDBRANCH  17  27
ENDBRANCH  16  18
ENDBRANCH   1  16
TORSDOF 5
