REMARK  Name = ZINC16266047
REMARK  7 active torsions:
REMARK  status: ('A' for Active; 'I' for Inactive)
REMARK    1  A    between atoms: C_1  and  C_2
REMARK    2  A    between atoms: C_6  and  N_19
REMARK    3  A    between atoms: C_7  and  C_11
REMARK    4  A    between atoms: C_11  and  C_13
REMARK    5  A    between atoms: C_23  and  C_41
REMARK    6  A    between atoms: C_33  and  C_40
REMARK    7  A    between atoms: C_36  and  O_39
REMARK                            x       y       z     vdW  Elec       q    Type
REMARK                         _______ _______ _______ _____ _____    ______ ____
ROOT
ATOM      1  C   UNL     1      -0.155   1.658  -0.059  0.00  0.00    +0.066 C 
ATOM      2  C   UNL     1      -0.292   0.158   0.019  0.00  0.00    +0.043 A 
ATOM      3  C   UNL     1      -0.123  -0.658  -1.083  0.00  0.00    -0.016 A 
ATOM      4  C   UNL     1      -0.287  -2.058  -0.998  0.00  0.00    -0.030 A 
ATOM      5  C   UNL     1      -0.575  -2.624   0.254  0.00  0.00    +0.032 A 
ATOM      6  C   UNL     1      -0.763  -4.005   0.613  0.00  0.00    +0.052 A 
ATOM      7  C   UNL     1      -1.037  -4.303   1.939  0.00  0.00    +0.083 A 
ATOM      8  S   UNL     1      -1.043  -2.704   2.731  0.00  0.00    -0.064 S 
ATOM      9  C   UNL     1      -0.699  -1.686   1.328  0.00  0.00    +0.111 A 
ATOM     10  N   UNL     1      -0.576  -0.386   1.207  0.00  0.00    -0.244 NA
ATOM     11  C   UNL     1      -0.126  -2.688  -2.359  0.00  0.00    +0.041 C 
ATOM     12  C   UNL     1      -0.432  -1.490  -3.273  0.00  0.00    +0.007 C 
ATOM     13  C   UNL     1       0.298  -0.378  -2.494  0.00  0.00    -0.002 C 
ATOM     14  C   UNL     1       0.007   0.951  -3.128  0.00  0.00    +0.012 C 
ATOM     15  C   UNL     1       0.485   0.911  -4.600  0.00  0.00    +0.005 C 
ATOM     16  C   UNL     1      -0.214  -0.190  -5.370  0.00  0.00    +0.003 C 
ATOM     17  C   UNL     1      -0.088  -1.572  -4.727  0.00  0.00    +0.001 C 
ATOM     18  C   UNL     1       1.238  -2.246  -5.020  0.00  0.00    +0.031 C 
ATOM     19  C   UNL     1       1.605  -2.122  -6.471  0.00  0.00    -0.027 C 
ATOM     20  C   UNL     1       1.120  -1.221  -7.259  0.00  0.00    -0.065 C 
ATOM     21  C   UNL     1       0.081  -0.210  -6.855  0.00  0.00    -0.008 C 
ATOM     22  C   UNL     1      -1.193  -0.498  -7.663  0.00  0.00    +0.014 C 
ATOM     23  C   UNL     1      -0.897  -1.502  -8.775  0.00  0.00    +0.032 C 
ATOM     24  C   UNL     1       0.332  -1.092  -9.586  0.00  0.00    +0.119 C 
ATOM     25  C   UNL     1       1.585  -1.180  -8.705  0.00  0.00    +0.062 C 
ATOM     26  C   UNL     1       0.580   1.174  -7.289  0.00  0.00    +0.016 C 
ATOM     27  C   UNL     1       1.814  -0.574  -2.474  0.00  0.00    +0.016 C 
ENDROOT
BRANCH   6  28
ATOM     28  N   UNL     1      -0.679  -5.014  -0.330  0.00  0.00    -0.356 N 
ATOM     29  H   UNL     1      -0.812  -5.938  -0.065  0.00  0.00    +0.142 HD
ATOM     30  H   UNL     1      -0.486  -4.798  -1.256  0.00  0.00    +0.142 HD
ENDBRANCH   6  28
BRANCH   7  31
ATOM     31  C   UNL     1      -1.264  -5.570   2.523  0.00  0.00    +0.202 C 
ATOM     32  O   UNL     1      -1.350  -6.560   1.818  0.00  0.00    -0.286 OA
BRANCH  31  33
ATOM     33  C   UNL     1      -1.397  -5.695   3.992  0.00  0.00    +0.023 A 
ATOM     34  C   UNL     1      -0.829  -4.735   4.831  0.00  0.00    +0.012 A 
ATOM     35  C   UNL     1      -0.963  -4.854   6.199  0.00  0.00    +0.001 A 
ATOM     36  C   UNL     1      -1.647  -5.928   6.740  0.00  0.00    +0.000 A 
ATOM     37  C   UNL     1      -2.208  -6.886   5.913  0.00  0.00    +0.001 A 
ATOM     38  C   UNL     1      -2.087  -6.775   4.544  0.00  0.00    +0.012 A 
ENDBRANCH  31  33
ENDBRANCH   7  31
BRANCH  24  39
ATOM     39  O   UNL     1       0.479  -1.977 -10.703  0.00  0.00    -0.391 OA
ATOM     40  H   UNL     1       1.240  -1.779 -11.264  0.00  0.00    +0.210 HD
ENDBRANCH  24  39
TORSDOF 4
