REMARK  Name = ZINC16050853
REMARK  9 active torsions:
REMARK  status: ('A' for Active; 'I' for Inactive)
REMARK    1  A    between atoms: C_1  and  C_2
REMARK    2  A    between atoms: C_4  and  C_18
REMARK    3  A    between atoms: C_5  and  C_17
REMARK    4  A    between atoms: N_6  and  C_7
REMARK    5  A    between atoms: C_18  and  C_20
REMARK    6  A    between atoms: C_20  and  O_21
REMARK    7  A    between atoms: O_21  and  C_22
REMARK    8  A    between atoms: C_22  and  C_24
REMARK    9  A    between atoms: C_30  and  C_32
REMARK                            x       y       z     vdW  Elec       q    Type
REMARK                         _______ _______ _______ _____ _____    ______ ____
ROOT
ATOM      1  C   UNL     1       6.164  -2.860   1.339  0.00  0.00    +0.202 C 
ATOM      2  O   UNL     1       5.811  -3.246   2.434  0.00  0.00    -0.288 OA
ENDROOT
BRANCH   1   6
ATOM      3  C   UNL     1       4.357   0.153  -2.352  0.00  0.00    +0.064 C 
ATOM      4  C   UNL     1       4.523  -0.627  -1.073  0.00  0.00    +0.022 A 
ATOM      5  C   UNL     1       5.579  -1.398  -0.762  0.00  0.00    +0.034 A 
ATOM      6  C   UNL     1       5.306  -1.957   0.570  0.00  0.00    +0.042 A 
ATOM      7  C   UNL     1       4.077  -1.450   0.949  0.00  0.00    +0.032 A 
ATOM      8  N   UNL     1       3.622  -0.664  -0.045  0.00  0.00    -0.317 N 
ATOM      9  C   UNL     1       3.368  -1.732   2.249  0.00  0.00    +0.064 C 
BRANCH   8  10
ATOM     10  C   UNL     1       2.401   0.025  -0.026  0.00  0.00    +0.050 A 
ATOM     11  C   UNL     1       1.206  -0.681  -0.016  0.00  0.00    +0.030 A 
ATOM     12  C   UNL     1       0.002  -0.004   0.002  0.00  0.00    +0.051 A 
ATOM     13  C   UNL     1      -0.017   1.383   0.010  0.00  0.00    +0.162 A 
ATOM     14  C   UNL     1       1.178   2.093   0.002  0.00  0.00    +0.164 A 
ATOM     15  C   UNL     1       2.386   1.412  -0.017  0.00  0.00    +0.075 A 
ATOM     16  O   UNL     1       1.180   3.454   0.018  0.00  0.00    -0.485 OA
ATOM     17  C   UNL     1      -0.044   4.104  -0.339  0.00  0.00    +0.270 C 
ATOM     18  C   UNL     1      -1.192   3.412   0.409  0.00  0.00    +0.270 C 
ATOM     19  O   UNL     1      -1.213   2.034   0.019  0.00  0.00    -0.485 OA
ENDBRANCH   8  10
ENDBRANCH   1   6
BRANCH   1  20
ATOM     20  C   UNL     1       7.485  -3.311   0.771  0.00  0.00    +0.311 C 
BRANCH  20  21
ATOM     21  O   UNL     1       8.142  -4.195   1.717  0.00  0.00    -0.455 OA
BRANCH  21  22
ATOM     22  C   UNL     1       9.339  -4.688   1.361  0.00  0.00    +0.328 C 
ATOM     23  O   UNL     1       9.821  -4.391   0.293  0.00  0.00    -0.249 OA
BRANCH  22  24
ATOM     24  C   UNL     1      10.081  -5.612   2.291  0.00  0.00    +0.185 C 
ATOM     25  C   UNL     1       9.513  -7.043   2.173  0.00  0.00    +0.035 C 
ATOM     26  C   UNL     1      10.782  -7.929   2.277  0.00  0.00    +0.021 C 
ATOM     27  C   UNL     1      11.830  -7.060   1.539  0.00  0.00    +0.109 C 
ATOM     28  N   UNL     1      11.500  -5.670   1.913  0.00  0.00    -0.284 N 
ATOM     29  C   UNL     1      12.354  -4.627   1.907  0.00  0.00    +0.254 C 
ATOM     30  O   UNL     1      11.967  -3.521   2.235  0.00  0.00    -0.269 OA
BRANCH  29  31
ATOM     31  C   UNL     1      13.750  -4.825   1.505  0.00  0.00    +0.074 A 
ATOM     32  C   UNL     1      14.778  -3.898   1.431  0.00  0.00    +0.021 A 
ATOM     33  C   UNL     1      16.004  -4.357   1.020  0.00  0.00    +0.008 A 
ATOM     34  C   UNL     1      16.152  -5.672   0.711  0.00  0.00    +0.046 A 
ATOM     35  S   UNL     1      14.570  -6.324   0.993  0.00  0.00    -0.092 S 
ENDBRANCH  29  31
ENDBRANCH  22  24
ENDBRANCH  21  22
ENDBRANCH  20  21
ENDBRANCH   1  20
TORSDOF 7
