REMARK  Name = ZINC39466454
REMARK  6 active torsions:
REMARK  status: ('A' for Active; 'I' for Inactive)
REMARK    1  A    between atoms: C_1  and  S_2
REMARK    2  A    between atoms: S_2  and  C_3
REMARK    3  A    between atoms: C_15  and  C_16
REMARK    4  A    between atoms: C_16  and  C_17
REMARK    5  A    between atoms: P_25  and  C_28
REMARK    6  A    between atoms: C_28  and  C_29
REMARK                            x       y       z     vdW  Elec       q    Type
REMARK                         _______ _______ _______ _____ _____    ______ ____
ROOT
ATOM      1  C   UNL     1       0.848  -0.411  -1.489  0.00  0.00    +0.007 C 
ATOM      2  C   UNL     1       1.301   0.558  -2.296  0.00  0.00    -0.010 C 
ATOM      3  C   UNL     1       2.011   0.187  -3.570  0.00  0.00    +0.005 C 
ATOM      4  C   UNL     1       1.936   1.325  -4.578  0.00  0.00    -0.046 C 
ATOM      5  N   UNL     1       0.541   1.617  -4.948  0.00  0.00    +0.397 N 
ATOM      6  C   UNL     1      -0.078   0.440  -5.562  0.00  0.00    -0.020 C 
ATOM      7  C   UNL     1      -0.063  -0.738  -4.581  0.00  0.00    -0.003 C 
ATOM      8  C   UNL     1       1.357  -1.057  -4.177  0.00  0.00    +0.016 C 
ATOM      9  C   UNL     1       1.303  -2.142  -3.128  0.00  0.00    -0.018 C 
ATOM     10  C   UNL     1       1.072  -1.823  -1.859  0.00  0.00    -0.034 C 
ATOM     11  C   UNL     1      -1.546   0.700  -5.925  0.00  0.00    +0.156 C 
ATOM     12  O   UNL     1      -1.622   1.768  -6.886  0.00  0.00    -0.319 OA
ATOM     13  P   UNL     1      -0.821   3.144  -6.550  0.00  0.00    +0.262 P 
ATOM     14  O   UNL     1      -1.602   3.977  -5.609  0.00  0.00    -0.274 OA
ATOM     15  N   UNL     1       0.599   2.658  -5.850  0.00  0.00    -0.291 NA
ATOM     16  H   UNL     1       1.440   3.093  -6.061  0.00  0.00    +0.111 HD
ATOM     17  H   UNL     1       0.024   1.901  -4.130  0.00  0.00    -0.055 HD
ENDROOT
BRANCH   1  19
ATOM     18  C   UNL     1      -0.022   1.810   0.012  0.00  0.00    +0.090 C 
ATOM     19  S   UNL     1       0.002  -0.004   0.002  0.00  0.00    -0.129 S 
ENDBRANCH   1  19
BRANCH  10  20
ATOM     20  C   UNL     1       1.032  -2.896  -0.801  0.00  0.00    +0.071 C 
BRANCH  20  21
ATOM     21  C   UNL     1       2.385  -3.006  -0.145  0.00  0.00    -0.043 A 
ATOM     22  C   UNL     1       3.336  -3.865  -0.662  0.00  0.00    +0.004 A 
ATOM     23  C   UNL     1       4.576  -3.965  -0.060  0.00  0.00    +0.000 A 
ATOM     24  C   UNL     1       4.865  -3.205   1.058  0.00  0.00    +0.000 A 
ATOM     25  C   UNL     1       3.914  -2.345   1.574  0.00  0.00    +0.000 A 
ATOM     26  C   UNL     1       2.675  -2.242   0.970  0.00  0.00    +0.004 A 
ENDBRANCH  20  21
ENDBRANCH  10  20
BRANCH  13  27
ATOM     27  C   UNL     1      -0.484   4.070  -8.084  0.00  0.00    +0.147 C 
BRANCH  27  28
ATOM     28  C   UNL     1      -1.787   4.412  -8.760  0.00  0.00    -0.037 A 
ATOM     29  C   UNL     1      -2.341   3.538  -9.676  0.00  0.00    +0.004 A 
ATOM     30  C   UNL     1      -3.536   3.851 -10.296  0.00  0.00    +0.000 A 
ATOM     31  C   UNL     1      -4.178   5.039  -9.999  0.00  0.00    +0.000 A 
ATOM     32  C   UNL     1      -3.624   5.913  -9.082  0.00  0.00    +0.000 A 
ATOM     33  C   UNL     1      -2.432   5.597  -8.459  0.00  0.00    +0.004 A 
ENDBRANCH  27  28
ENDBRANCH  13  27
TORSDOF 5
