REMARK  Name = ZINC01283361
REMARK  6 active torsions:
REMARK  status: ('A' for Active; 'I' for Inactive)
REMARK    1  A    between atoms: C_1  and  C_2
REMARK    2  A    between atoms: C_16  and  C_18
REMARK    3  A    between atoms: C_21  and  O_26
REMARK    4  A    between atoms: C_22  and  O_24
REMARK    5  A    between atoms: O_24  and  C_25
REMARK    6  A    between atoms: C_31  and  C_33
REMARK                            x       y       z     vdW  Elec       q    Type
REMARK                         _______ _______ _______ _____ _____    ______ ____
ROOT
ATOM      1  C   UNL     1       9.457   1.598  -1.462  0.00  0.00    +0.044 C 
ATOM      2  C   UNL     1       8.465   1.120  -2.491  0.00  0.00    -0.050 A 
ATOM      3  C   UNL     1       8.917   0.546  -3.671  0.00  0.00    +0.007 A 
ATOM      4  C   UNL     1       8.028   0.102  -4.625  0.00  0.00    +0.047 A 
ATOM      5  C   UNL     1       6.658   0.228  -4.410  0.00  0.00    +0.139 A 
ATOM      6  C   UNL     1       6.210   0.811  -3.212  0.00  0.00    +0.065 A 
ATOM      7  C   UNL     1       7.124   1.254  -2.257  0.00  0.00    +0.018 A 
ATOM      8  C   UNL     1       4.754   0.936  -3.001  0.00  0.00    +0.199 A 
ATOM      9  O   UNL     1       4.295   1.431  -1.988  0.00  0.00    -0.287 OA
ATOM     10  C   UNL     1       3.889   0.434  -4.073  0.00  0.00    +0.072 A 
ATOM     11  C   UNL     1       4.440  -0.110  -5.186  0.00  0.00    +0.199 A 
ATOM     12  O   UNL     1       5.777  -0.201  -5.331  0.00  0.00    -0.450 OA
ATOM     13  C   UNL     1       3.344  -0.529  -6.093  0.00  0.00    +0.288 C 
ATOM     14  O   UNL     1       3.501  -1.053  -7.178  0.00  0.00    -0.266 OA
ATOM     15  N   UNL     1       2.151  -0.245  -5.542  0.00  0.00    -0.238 N 
ATOM     16  C   UNL     1       2.393   0.379  -4.236  0.00  0.00    +0.151 C 
ATOM     17  C   UNL     1       0.905  -0.500  -6.110  0.00  0.00    +0.129 A 
ATOM     18  C   UNL     1      -0.248  -0.063  -5.466  0.00  0.00    +0.044 A 
ATOM     19  C   UNL     1      -1.479  -0.318  -6.045  0.00  0.00    +0.005 A 
ATOM     20  C   UNL     1      -1.515  -1.013  -7.246  0.00  0.00    +0.023 A 
ATOM     21  C   UNL     1      -0.331  -1.423  -7.826  0.00  0.00    +0.040 A 
ATOM     22  N   UNL     1       0.829  -1.161  -7.255  0.00  0.00    -0.237 NA
ATOM     23  C   UNL     1      -0.364  -2.178  -9.130  0.00  0.00    +0.065 C 
ENDROOT
BRANCH  16  24
ATOM     24  C   UNL     1       1.782  -0.456  -3.140  0.00  0.00    -0.018 A 
ATOM     25  C   UNL     1       1.837  -1.836  -3.212  0.00  0.00    +0.009 A 
ATOM     26  C   UNL     1       1.278  -2.606  -2.209  0.00  0.00    +0.049 A 
ATOM     27  C   UNL     1       0.662  -1.996  -1.129  0.00  0.00    +0.158 A 
ATOM     28  C   UNL     1       0.606  -0.608  -1.056  0.00  0.00    +0.162 A 
ATOM     29  C   UNL     1       1.163   0.159  -2.068  0.00  0.00    +0.055 A 
BRANCH  28  30
ATOM     30  O   UNL     1       0.002  -0.004   0.002  0.00  0.00    -0.491 OA
ATOM     31  C   UNL     1      -0.017   1.425   0.010  0.00  0.00    +0.277 C 
ENDBRANCH  28  30
BRANCH  27  32
ATOM     32  O   UNL     1       0.112  -2.753  -0.142  0.00  0.00    -0.503 OA
ATOM     33  H   UNL     1      -0.817  -2.979  -0.291  0.00  0.00    +0.292 HD
ENDBRANCH  27  32
ENDBRANCH  16  24
TORSDOF 3
