REMARK  Name = ZINC03157929
REMARK  4 active torsions:
REMARK  status: ('A' for Active; 'I' for Inactive)
REMARK    1  A    between atoms: C_3  and  O_18
REMARK    2  A    between atoms: C_4  and  C_8
REMARK    3  A    between atoms: N_9  and  N_10
REMARK    4  A    between atoms: C_11  and  C_12
REMARK                            x       y       z     vdW  Elec       q    Type
REMARK                         _______ _______ _______ _____ _____    ______ ____
ROOT
ATOM      1  N   UNL     1       2.503  -3.487  -0.059  0.00  0.00    -0.221 N 
ATOM      2  C   UNL     1       3.450  -4.487  -0.055  0.00  0.00    +0.142 C 
ATOM      3  H   UNL     1       1.560  -3.713  -0.032  0.00  0.00    +0.176 HD
ATOM      4  H   UNL     1       5.446  -4.827  -0.271  0.00  0.00    +0.157 HD
ATOM      5  N   UNL     1       4.715  -4.120  -0.193  0.00  0.00    -0.384 N 
ATOM      6  H   UNL     1       4.960  -3.123  -0.221  0.00  0.00    +0.157 HD
ENDROOT
BRANCH   2   7
ATOM      7  C   UNL     1       3.034  -5.901   0.106  0.00  0.00    +0.187 A 
ATOM      8  C   UNL     1       1.666  -6.464   0.162  0.00  0.00    +0.191 A 
ATOM      9  N   UNL     1       1.892  -7.749   0.311  0.00  0.00    -0.033 NA
ATOM     10  O   UNL     1       3.084  -7.947   0.340  0.00  0.00    -0.240 OA
ATOM     11  N   UNL     1       3.788  -6.972   0.227  0.00  0.00    -0.044 NA
ATOM     12  N   UNL     1       0.449  -5.800   0.079  0.00  0.00    -0.339 N 
ATOM     13  H   UNL     1       0.427  -4.831   0.046  0.00  0.00    +0.144 HD
ATOM     14  H   UNL     1      -0.378  -6.306   0.054  0.00  0.00    +0.144 HD
ENDBRANCH   2   7
BRANCH   1  16
ATOM     15  C   UNL     1       2.009  -1.202  -0.105  0.00  0.00    +0.142 C 
ATOM     16  N   UNL     1       2.901  -2.145  -0.101  0.00  0.00    -0.189 NA
BRANCH  15  20
ATOM     17  C   UNL     1       3.217   2.867  -0.234  0.00  0.00    +0.019 A 
ATOM     18  C   UNL     1       4.174   1.869  -0.231  0.00  0.00    +0.047 A 
ATOM     19  C   UNL     1       3.790   0.539  -0.188  0.00  0.00    +0.126 A 
ATOM     20  C   UNL     1       2.428   0.210  -0.149  0.00  0.00    +0.037 A 
ATOM     21  C   UNL     1       1.471   1.226  -0.153  0.00  0.00    +0.028 A 
ATOM     22  C   UNL     1       1.871   2.547  -0.196  0.00  0.00    +0.019 A 
ATOM     23 BR   UNL     1       0.574   3.923  -0.209  0.00  0.00    -0.050 Br
BRANCH  19  24
ATOM     24  O   UNL     1       4.729  -0.442  -0.185  0.00  0.00    -0.506 OA
ATOM     25  H   UNL     1       4.981  -0.748  -1.067  0.00  0.00    +0.292 HD
ENDBRANCH  19  24
ENDBRANCH  15  20
ENDBRANCH   1  16
TORSDOF 4
