REMARK  Name = ZINC59038704
REMARK  7 active torsions:
REMARK  status: ('A' for Active; 'I' for Inactive)
REMARK    1  A    between atoms: C_1  and  C_2
REMARK    2  A    between atoms: C_2  and  C_22
REMARK    3  A    between atoms: N_3  and  N_4
REMARK    4  A    between atoms: C_7  and  S_10
REMARK    5  A    between atoms: S_10  and  C_11
REMARK    6  A    between atoms: C_11  and  C_12
REMARK    7  A    between atoms: N_14  and  C_15
REMARK                            x       y       z     vdW  Elec       q    Type
REMARK                         _______ _______ _______ _____ _____    ______ ____
ROOT
ATOM      1  N   UNL     1       0.086   0.032   2.340  0.00  0.00    -0.205 N 
ATOM      2  C   UNL     1       0.098  -0.665   3.533  0.00  0.00    +0.232 A 
ATOM      3  N   UNL     1       0.113  -1.975   3.664  0.00  0.00    -0.186 NA
ATOM      4  C   UNL     1       0.120  -2.297   4.962  0.00  0.00    +0.211 A 
ATOM      5  N   UNL     1       0.110  -1.196   5.675  0.00  0.00    -0.144 NA
ATOM      6  N   UNL     1       0.100  -0.123   4.769  0.00  0.00    -0.245 N 
ATOM      7  H   UNL     1       0.079   1.002   2.345  0.00  0.00    +0.177 HD
ATOM      8  H   UNL     1       0.095   0.822   4.989  0.00  0.00    +0.192 HD
ENDROOT
BRANCH   1  11
ATOM      9  C   UNL     1       0.063   1.500   0.007  0.00  0.00    +0.068 C 
ATOM     10  C   UNL     1       0.074  -0.006  -0.000  0.00  0.00    +0.070 C 
ATOM     11  N   UNL     1       0.085  -0.662   1.123  0.00  0.00    -0.184 NA
BRANCH  10  12
ATOM     12  C   UNL     1       0.072  -0.733  -1.274  0.00  0.00    +0.035 A 
ATOM     13  C   UNL     1       0.075  -2.099  -1.500  0.00  0.00    +0.017 A 
ATOM     14  C   UNL     1       0.072  -2.546  -2.801  0.00  0.00    +0.008 A 
ATOM     15  C   UNL     1       0.067  -1.643  -3.815  0.00  0.00    +0.046 A 
ATOM     16  S   UNL     1       0.058  -0.088  -2.939  0.00  0.00    -0.095 S 
ENDBRANCH  10  12
ENDBRANCH   1  11
BRANCH   4  17
ATOM     17  S   UNL     1       0.141  -3.936   5.610  0.00  0.00    -0.075 S 
BRANCH  17  18
ATOM     18  C   UNL     1       0.143  -3.696   7.408  0.00  0.00    +0.173 C 
BRANCH  18  19
ATOM     19  C   UNL     1       0.161  -5.038   8.094  0.00  0.00    +0.228 C 
ATOM     20  O   UNL     1       0.171  -6.056   7.434  0.00  0.00    -0.275 OA
ATOM     21  N   UNL     1       0.166  -5.107   9.440  0.00  0.00    -0.284 N 
ATOM     22  H   UNL     1       0.223  -4.295   9.967  0.00  0.00    +0.155 HD
BRANCH  21  23
ATOM     23  C   UNL     1       0.087  -6.351  10.077  0.00  0.00    +0.047 A 
ATOM     24  C   UNL     1       0.695  -7.463   9.509  0.00  0.00    +0.024 A 
ATOM     25  C   UNL     1       0.616  -8.689  10.141  0.00  0.00    +0.002 A 
ATOM     26  C   UNL     1      -0.068  -8.810  11.336  0.00  0.00    +0.001 A 
ATOM     27  C   UNL     1      -0.675  -7.706  11.905  0.00  0.00    +0.017 A 
ATOM     28  C   UNL     1      -0.595  -6.475  11.281  0.00  0.00    +0.039 A 
ATOM     29 BR   UNL     1      -1.418  -4.962  12.062  0.00  0.00    -0.048 Br
ENDBRANCH  21  23
ENDBRANCH  18  19
ENDBRANCH  17  18
ENDBRANCH   4  17
TORSDOF 6
