REMARK  Name = ZINC38774854
REMARK  9 active torsions:
REMARK  status: ('A' for Active; 'I' for Inactive)
REMARK    1  A    between atoms: C_1  and  C_2
REMARK    2  A    between atoms: C_2  and  O_3
REMARK    3  A    between atoms: O_3  and  C_4
REMARK    4  A    between atoms: N_16  and  C_19
REMARK    5  A    between atoms: C_19  and  C_20
REMARK    6  A    between atoms: C_20  and  N_21
REMARK    7  A    between atoms: C_22  and  C_24
REMARK    8  A    between atoms: C_25  and  C_26
REMARK    9  A    between atoms: C_30  and  N_32
REMARK                            x       y       z     vdW  Elec       q    Type
REMARK                         _______ _______ _______ _____ _____    ______ ____
ROOT
ATOM      1  C   UNL     1       0.777  -1.810  -1.336  0.00  0.00    +0.147 A 
ATOM      2  C   UNL     1       0.245  -2.655  -0.390  0.00  0.00    +0.048 A 
ATOM      3  C   UNL     1       0.332  -4.033  -0.519  0.00  0.00    +0.005 A 
ATOM      4  C   UNL     1       0.968  -4.571  -1.623  0.00  0.00    +0.017 A 
ATOM      5  C   UNL     1       1.502  -3.737  -2.574  0.00  0.00    +0.044 A 
ATOM      6  C   UNL     1       1.429  -2.330  -2.482  0.00  0.00    +0.122 A 
ATOM      7  N   UNL     1       1.998  -1.646  -3.501  0.00  0.00    -0.221 NA
ATOM      8  C   UNL     1       2.578  -2.245  -4.515  0.00  0.00    +0.162 A 
ATOM      9  S   UNL     1       2.378  -3.972  -4.102  0.00  0.00    -0.052 S 
ATOM     10  N   UNL     1       3.194  -1.683  -5.616  0.00  0.00    -0.313 N 
ATOM     11  C   UNL     1       3.275  -0.223  -5.774  0.00  0.00    +0.088 C 
ATOM     12  C   UNL     1       2.778   0.142  -7.177  0.00  0.00    -0.059 C 
ATOM     13  N   UNL     1       3.536  -0.619  -8.178  0.00  0.00    +0.383 N 
ATOM     14  C   UNL     1       3.267  -2.055  -8.024  0.00  0.00    -0.059 C 
ATOM     15  C   UNL     1       3.793  -2.528  -6.660  0.00  0.00    +0.088 C 
ATOM     16  H   UNL     1       4.523  -0.448  -8.052  0.00  0.00    -0.082 HD
ENDROOT
BRANCH   1  17
ATOM     17  O   UNL     1       0.671  -0.465  -1.174  0.00  0.00    -0.490 OA
BRANCH  17  19
ATOM     18  C   UNL     1      -0.019   1.526   0.010  0.00  0.00    +0.048 C 
ATOM     19  C   UNL     1       0.002  -0.004   0.002  0.00  0.00    +0.226 C 
ENDBRANCH  17  19
ENDBRANCH   1  17
BRANCH  13  20
ATOM     20  C   UNL     1       3.136  -0.189  -9.524  0.00  0.00    -0.060 C 
BRANCH  20  21
ATOM     21  C   UNL     1       4.011  -0.890 -10.565  0.00  0.00    +0.086 C 
BRANCH  21  22
ATOM     22  N   UNL     1       3.612  -0.461 -11.907  0.00  0.00    -0.314 N 
ATOM     23  C   UNL     1       4.250  -0.952 -12.989  0.00  0.00    +0.237 C 
ATOM     24  O   UNL     1       5.157  -1.751 -12.850  0.00  0.00    -0.271 OA
ATOM     25  H   UNL     1       2.889   0.176 -12.018  0.00  0.00    +0.149 HD
BRANCH  23  26
ATOM     26  C   UNL     1       3.850  -0.523 -14.331  0.00  0.00    +0.068 C 
ATOM     27  C   UNL     1       4.488  -1.014 -15.413  0.00  0.00    +0.013 C 
BRANCH  27  28
ATOM     28  C   UNL     1       4.087  -0.583 -16.762  0.00  0.00    -0.023 A 
ATOM     29  C   UNL     1       3.049   0.340 -16.925  0.00  0.00    +0.008 A 
ATOM     30  C   UNL     1       2.679   0.739 -18.192  0.00  0.00    +0.003 A 
ATOM     31  C   UNL     1       3.332   0.229 -19.300  0.00  0.00    +0.033 A 
ATOM     32  C   UNL     1       4.360  -0.685 -19.147  0.00  0.00    +0.127 A 
ATOM     33  C   UNL     1       4.745  -1.089 -17.886  0.00  0.00    +0.040 A 
BRANCH  32  34
ATOM     34  N   UNL     1       5.051  -1.226 -20.339  0.00  0.00    +0.056 N 
ATOM     35  O   UNL     1       4.718  -0.869 -21.445  0.00  0.00    -0.126 OA
ATOM     36  O   UNL     1       5.949  -2.024 -20.207  0.00  0.00    -0.126 OA
ENDBRANCH  32  34
ENDBRANCH  27  28
ENDBRANCH  23  26
ENDBRANCH  21  22
ENDBRANCH  20  21
ENDBRANCH  13  20
TORSDOF 8
