REMARK  Name = ZINC66791400
REMARK  7 active torsions:
REMARK  status: ('A' for Active; 'I' for Inactive)
REMARK    1  A    between atoms: C_4  and  C_7
REMARK    2  A    between atoms: C_7  and  C_8
REMARK    3  A    between atoms: N_10  and  C_11
REMARK    4  A    between atoms: C_11  and  C_12
REMARK    5  A    between atoms: N_14  and  N_15
REMARK    6  A    between atoms: C_16  and  C_18
REMARK    7  A    between atoms: C_18  and  C_19
REMARK                            x       y       z     vdW  Elec       q    Type
REMARK                         _______ _______ _______ _____ _____    ______ ____
ROOT
ATOM      1  C   UNL     1       4.431  -4.566  -4.675  0.00  0.00    +0.246 C 
ATOM      2  O   UNL     1       4.794  -3.772  -5.518  0.00  0.00    -0.273 OA
ATOM      3  N   UNL     1       4.660  -5.883  -4.848  0.00  0.00    -0.233 N 
ATOM      4  H   UNL     1       4.370  -6.518  -4.175  0.00  0.00    +0.173 HD
ENDROOT
BRANCH   3   5
ATOM      5  N   UNL     1       5.316  -6.335  -6.001  0.00  0.00    -0.234 N 
ATOM      6  C   UNL     1       5.544  -7.652  -6.174  0.00  0.00    +0.229 C 
ATOM      7  O   UNL     1       5.182  -8.446  -5.332  0.00  0.00    -0.274 OA
ATOM      8  H   UNL     1       5.605  -5.700  -6.675  0.00  0.00    +0.173 HD
BRANCH   6   9
ATOM      9  C   UNL     1       6.249  -8.138  -7.414  0.00  0.00    +0.101 C 
BRANCH   9  10
ATOM     10  C   UNL     1       6.380  -9.661  -7.362  0.00  0.00    -0.002 C 
ATOM     11  C   UNL     1       4.989 -10.295  -7.413  0.00  0.00    +0.004 C 
ATOM     12  C   UNL     1       5.120 -11.818  -7.362  0.00  0.00    +0.000 C 
ATOM     13  C   UNL     1       5.944 -12.300  -8.557  0.00  0.00    +0.000 C 
ATOM     14  C   UNL     1       7.336 -11.667  -8.506  0.00  0.00    +0.000 C 
ATOM     15  C   UNL     1       7.205 -10.143  -8.557  0.00  0.00    +0.004 C 
ENDBRANCH   9  10
ENDBRANCH   6   9
ENDBRANCH   3   5
BRANCH   1  16
ATOM     16  C   UNL     1       3.726  -4.080  -3.435  0.00  0.00    +0.201 C 
BRANCH  16  19
ATOM     17  C   UNL     1       2.999  -1.962  -2.475  0.00  0.00    +0.214 C 
ATOM     18  O   UNL     1       2.561  -2.576  -1.526  0.00  0.00    -0.276 OA
ATOM     19  N   UNL     1       3.601  -2.621  -3.485  0.00  0.00    -0.307 N 
ATOM     20  H   UNL     1       3.951  -2.130  -4.245  0.00  0.00    +0.149 HD
BRANCH  17  21
ATOM     21  C   UNL     1       2.870  -0.461  -2.526  0.00  0.00    +0.099 C 
BRANCH  21  25
ATOM     22  C   UNL     1      -0.019   1.526   0.010  0.00  0.00    +0.000 C 
ATOM     23  C   UNL     1       1.417   2.055  -0.000  0.00  0.00    +0.000 C 
ATOM     24  C   UNL     1       2.133   1.562  -1.259  0.00  0.00    +0.004 C 
ATOM     25  C   UNL     1       2.154   0.032  -1.268  0.00  0.00    -0.002 C 
ATOM     26  C   UNL     1       0.718  -0.497  -1.257  0.00  0.00    +0.004 C 
ATOM     27  C   UNL     1       0.002  -0.004   0.002  0.00  0.00    +0.000 C 
ENDBRANCH  21  25
ENDBRANCH  17  21
ENDBRANCH  16  19
ENDBRANCH   1  16
TORSDOF 7
