REMARK  Name = ZINC43213494
REMARK  14 active torsions:
REMARK  status: ('A' for Active; 'I' for Inactive)
REMARK    1  A    between atoms: C_1  and  C_2
REMARK    2  A    between atoms: C_2  and  C_3
REMARK    3  A    between atoms: C_3  and  C_5
REMARK    4  A    between atoms: C_3  and  C_6
REMARK    5  A    between atoms: C_6  and  C_8
REMARK    6  A    between atoms: C_6  and  N_37
REMARK    7  A    between atoms: C_10  and  C_13
REMARK    8  A    between atoms: N_15  and  C_16
REMARK    9  A    between atoms: C_16  and  C_17
REMARK   10  A    between atoms: C_17  and  C_36
REMARK   11  A    between atoms: C_21  and  C_35
REMARK   12  A    between atoms: C_30  and  C_32
REMARK   13  A    between atoms: C_32  and  C_33
REMARK   14  A    between atoms: C_32  and  C_34
REMARK                            x       y       z     vdW  Elec       q    Type
REMARK                         _______ _______ _______ _____ _____    ______ ____
ROOT
ATOM      1  C   UNL     1       6.866  -4.954   3.881  0.00  0.00    +0.111 C 
ENDROOT
BRANCH   1   2
ATOM      2  C   UNL     1       7.847  -4.995   2.708  0.00  0.00    -0.013 C 
ATOM      3  C   UNL     1       7.722  -3.704   1.897  0.00  0.00    +0.008 C 
ATOM      4  C   UNL     1       8.064  -2.514   2.796  0.00  0.00    +0.001 C 
ATOM      5  C   UNL     1       9.507  -2.651   3.284  0.00  0.00    +0.011 C 
ATOM      6  C   UNL     1       9.662  -3.941   4.095  0.00  0.00    -0.003 C 
ATOM      7  C   UNL     1       9.266  -5.143   3.242  0.00  0.00    +0.007 C 
ATOM      8  C   UNL     1      10.265  -5.275   2.091  0.00  0.00    +0.009 C 
ATOM      9  C   UNL     1      11.602  -5.737   2.670  0.00  0.00    +0.036 C 
ATOM     10  C   UNL     1      11.994  -4.891   3.853  0.00  0.00    -0.043 A 
ATOM     11  C   UNL     1      11.107  -4.070   4.513  0.00  0.00    -0.038 A 
ATOM     12  C   UNL     1      11.534  -3.324   5.602  0.00  0.00    +0.005 A 
ATOM     13  C   UNL     1      12.845  -3.393   6.028  0.00  0.00    +0.004 A 
ATOM     14  C   UNL     1      13.738  -4.213   5.364  0.00  0.00    -0.045 A 
ATOM     15  C   UNL     1      13.314  -4.957   4.283  0.00  0.00    +0.007 A 
ATOM     16  C   UNL     1       8.774  -3.874   5.338  0.00  0.00    +0.016 C 
ATOM     17  C   UNL     1       7.516  -6.189   1.811  0.00  0.00    +0.013 C 
BRANCH  14  18
ATOM     18  C   UNL     1      15.173  -4.292   5.819  0.00  0.00    +0.013 C 
ATOM     19  C   UNL     1      15.812  -2.905   5.735  0.00  0.00    +0.012 C 
ATOM     20  C   UNL     1      15.222  -4.789   7.266  0.00  0.00    +0.012 C 
ENDBRANCH  14  18
ENDBRANCH   1   2
BRANCH   1  23
ATOM     21  C   UNL     1       4.454  -4.953   4.229  0.00  0.00    +0.266 C 
ATOM     22  O   UNL     1       4.656  -4.904   5.427  0.00  0.00    -0.268 OA
ATOM     23  N   UNL     1       5.493  -4.981   3.370  0.00  0.00    -0.309 N 
ATOM     24  H   UNL     1       5.332  -5.020   2.415  0.00  0.00    +0.149 HD
BRANCH  21  27
ATOM     25  C   UNL     1       1.399  -5.044   2.353  0.00  0.00    +0.182 A 
ATOM     26  N   UNL     1       2.697  -5.035   2.408  0.00  0.00    -0.210 NA
ATOM     27  C   UNL     1       3.073  -4.981   3.715  0.00  0.00    +0.163 A 
ATOM     28  C   UNL     1       1.933  -4.958   4.458  0.00  0.00    +0.230 A 
ATOM     29  O   UNL     1       0.903  -4.993   3.597  0.00  0.00    -0.449 OA
BRANCH  25  30
ATOM     30  C   UNL     1       0.580  -5.098   1.089  0.00  0.00    +0.016 C 
BRANCH  30  31
ATOM     31  N   UNL     1      -0.507  -6.074   1.250  0.00  0.00    +0.386 N 
ATOM     32  H   UNL     1      -0.116  -6.985   1.437  0.00  0.00    -0.089 HD
ATOM     33  H   UNL     1      -1.095  -5.796   2.021  0.00  0.00    -0.089 HD
ATOM     34  H   UNL     1      -1.055  -6.110   0.404  0.00  0.00    -0.089 HD
ENDBRANCH  30  31
BRANCH  30  35
ATOM     35  C   UNL     1      -0.013  -3.717   0.806  0.00  0.00    -0.020 C 
ATOM     36  C   UNL     1      -0.906  -3.296   1.975  0.00  0.00    +0.006 C 
BRANCH  35  38
ATOM     37  C   UNL     1      -1.334  -2.365  -0.828  0.00  0.00    +0.004 C 
ATOM     38  C   UNL     1      -0.844  -3.771  -0.477  0.00  0.00    -0.001 C 
ENDBRANCH  35  38
ENDBRANCH  30  35
ENDBRANCH  25  30
ENDBRANCH  21  27
ENDBRANCH   1  23
TORSDOF 8
