REMARK  Name = ZINC04250146
REMARK  7 active torsions:
REMARK  status: ('A' for Active; 'I' for Inactive)
REMARK    1  A    between atoms: C_1  and  C_2
REMARK    2  A    between atoms: C_2  and  C_3
REMARK    3  A    between atoms: C_3  and  C_4
REMARK    4  A    between atoms: C_12  and  S_15
REMARK    5  A    between atoms: S_15  and  C_16
REMARK    6  A    between atoms: C_16  and  C_17
REMARK    7  A    between atoms: N_19  and  C_20
REMARK                            x       y       z     vdW  Elec       q    Type
REMARK                         _______ _______ _______ _____ _____    ______ ____
ROOT
ATOM      1  S   UNL     1      -0.852   1.688   1.500  0.00  0.00    -0.076 S 
ENDROOT
BRANCH   1  10
ATOM      2  C   UNL     1      -1.117   1.894   4.832  0.00  0.00    +0.034 A 
ATOM      3  C   UNL     1      -1.129   1.913   6.177  0.00  0.00    +0.092 A 
ATOM      4  C   UNL     1      -0.120   1.232   6.903  0.00  0.00    +0.253 A 
ATOM      5  O   UNL     1      -0.128   1.246   8.121  0.00  0.00    -0.268 OA
ATOM      6  N   UNL     1       0.849   0.568   6.240  0.00  0.00    -0.291 N 
ATOM      7  H   UNL     1       1.542   0.101   6.732  0.00  0.00    +0.172 HD
ATOM      8  C   UNL     1       0.852   0.555   4.855  0.00  0.00    +0.237 A 
ATOM      9  N   UNL     1      -0.124   1.221   4.159  0.00  0.00    -0.260 N 
ATOM     10  C   UNL     1       0.116   1.040   2.823  0.00  0.00    +0.198 A 
ATOM     11  N   UNL     1       1.194   0.305   2.701  0.00  0.00    -0.120 NA
ATOM     12  N   UNL     1       1.660  -0.001   3.986  0.00  0.00    -0.109 NA
BRANCH   2  13
ATOM     13  C   UNL     1      -2.190   2.619   4.061  0.00  0.00    +0.054 C 
BRANCH  13  15
ATOM     14  C   UNL     1      -2.781   4.750   2.900  0.00  0.00    +0.004 C 
ATOM     15  C   UNL     1      -1.692   4.015   3.683  0.00  0.00    +0.003 C 
ENDBRANCH  13  15
ENDBRANCH   2  13
ENDBRANCH   1  10
BRANCH   1  16
ATOM     16  C   UNL     1      -0.005   1.099   0.008  0.00  0.00    +0.173 C 
BRANCH  16  17
ATOM     17  C   UNL     1      -0.739   1.589  -1.213  0.00  0.00    +0.228 C 
ATOM     18  O   UNL     1      -1.736   2.268  -1.089  0.00  0.00    -0.275 OA
ATOM     19  N   UNL     1      -0.288   1.272  -2.443  0.00  0.00    -0.284 N 
ATOM     20  H   UNL     1       0.544   0.785  -2.544  0.00  0.00    +0.155 HD
BRANCH  19  21
ATOM     21  C   UNL     1      -1.020   1.646  -3.572  0.00  0.00    +0.041 A 
ATOM     22  C   UNL     1      -1.717   2.834  -3.587  0.00  0.00    +0.024 A 
ATOM     23  C   UNL     1      -2.449   3.216  -4.707  0.00  0.00    +0.002 A 
ATOM     24  C   UNL     1      -2.497   2.428  -5.817  0.00  0.00    +0.008 A 
ATOM     25  C   UNL     1      -1.800   1.209  -5.843  0.00  0.00    -0.016 A 
ATOM     26  C   UNL     1      -1.047   0.812  -4.710  0.00  0.00    +0.003 A 
ATOM     27  C   UNL     1      -0.354  -0.409  -4.736  0.00  0.00    +0.010 A 
ATOM     28  C   UNL     1      -0.407  -1.190  -5.849  0.00  0.00    +0.001 A 
ATOM     29  C   UNL     1      -1.144  -0.799  -6.965  0.00  0.00    +0.001 A 
ATOM     30  C   UNL     1      -1.831   0.375  -6.975  0.00  0.00    +0.008 A 
ENDBRANCH  19  21
ENDBRANCH  16  17
ENDBRANCH   1  16
TORSDOF 6
