REMARK  Name = ZINC40120288
REMARK  9 active torsions:
REMARK  status: ('A' for Active; 'I' for Inactive)
REMARK    1  A    between atoms: C_1  and  C_2
REMARK    2  A    between atoms: C_6  and  C_26
REMARK    3  A    between atoms: C_8  and  N_11
REMARK    4  A    between atoms: N_14  and  C_15
REMARK    5  A    between atoms: C_20  and  C_21
REMARK    6  A    between atoms: N_23  and  C_24
REMARK    7  A    between atoms: N_23  and  C_25
REMARK    8  A    between atoms: C_26  and  C_27
REMARK    9  A    between atoms: C_26  and  C_28
REMARK                            x       y       z     vdW  Elec       q    Type
REMARK                         _______ _______ _______ _____ _____    ______ ____
ROOT
ATOM      1  N   UNL     1       2.718  -0.427   2.607  0.00  0.00    -0.296 N 
ATOM      2  C   UNL     1       2.471   0.137   3.806  0.00  0.00    +0.304 C 
ATOM      3  O   UNL     1       1.680   1.056   3.893  0.00  0.00    -0.253 OA
ATOM      4  N   UNL     1       3.101  -0.317   4.908  0.00  0.00    -0.269 N 
ATOM      5  H   UNL     1       3.349  -1.161   2.538  0.00  0.00    +0.151 HD
ATOM      6  H   UNL     1       3.776  -1.009   4.830  0.00  0.00    +0.156 HD
ENDROOT
BRANCH   1  12
ATOM      7  C   UNL     1      -0.185   1.511   0.154  0.00  0.00    +0.007 C 
ATOM      8  C   UNL     1      -0.089  -0.015   0.095  0.00  0.00    -0.012 C 
ATOM      9  C   UNL     1       0.698  -0.429  -1.150  0.00  0.00    +0.004 C 
ATOM     10  C   UNL     1       2.105   0.167  -1.085  0.00  0.00    +0.006 C 
ATOM     11  C   UNL     1       2.820  -0.348   0.165  0.00  0.00    +0.012 C 
ATOM     12  C   UNL     1       2.033   0.066   1.410  0.00  0.00    +0.078 C 
ATOM     13  C   UNL     1       0.626  -0.531   1.345  0.00  0.00    +0.026 C 
BRANCH  11  14
ATOM     14  C   UNL     1       4.228   0.248   0.230  0.00  0.00    -0.012 C 
ATOM     15  C   UNL     1       5.056  -0.270  -0.947  0.00  0.00    +0.007 C 
ATOM     16  C   UNL     1       4.139   1.774   0.158  0.00  0.00    +0.007 C 
ENDBRANCH  11  14
ENDBRANCH   1  12
BRANCH   4  17
ATOM     17  C   UNL     1       2.784   0.209   6.158  0.00  0.00    +0.047 A 
ATOM     18  C   UNL     1       2.441   1.548   6.285  0.00  0.00    +0.024 A 
ATOM     19  C   UNL     1       2.126   2.067   7.525  0.00  0.00    +0.002 A 
ATOM     20  C   UNL     1       2.150   1.258   8.650  0.00  0.00    +0.001 A 
ATOM     21  C   UNL     1       2.488  -0.073   8.543  0.00  0.00    +0.015 A 
ATOM     22  C   UNL     1       2.803  -0.614   7.294  0.00  0.00    +0.058 A 
BRANCH  22  23
ATOM     23  C   UNL     1       3.160  -2.040   7.171  0.00  0.00    +0.248 C 
ATOM     24  O   UNL     1       2.565  -2.750   6.383  0.00  0.00    -0.270 OA
ATOM     25  N   UNL     1       4.144  -2.556   7.933  0.00  0.00    -0.304 N 
ATOM     26  C   UNL     1       4.558  -3.949   7.749  0.00  0.00    +0.132 C 
ATOM     27  C   UNL     1       4.800  -1.724   8.945  0.00  0.00    +0.132 C 
ENDBRANCH  22  23
ENDBRANCH   4  17
TORSDOF 4
