REMARK  Name = ZINC50361821
REMARK  8 active torsions:
REMARK  status: ('A' for Active; 'I' for Inactive)
REMARK    1  A    between atoms: C_1  and  C_2
REMARK    2  A    between atoms: C_5  and  C_7
REMARK    3  A    between atoms: C_7  and  N_8
REMARK    4  A    between atoms: N_8  and  C_9
REMARK    5  A    between atoms: N_8  and  C_10
REMARK    6  A    between atoms: C_10  and  C_12
REMARK    7  A    between atoms: C_10  and  C_14
REMARK    8  A    between atoms: C_12  and  N_13
REMARK                            x       y       z     vdW  Elec       q    Type
REMARK                         _______ _______ _______ _____ _____    ______ ____
ROOT
ATOM      1  C   UNL     1       2.755  -4.864  -1.471  0.00  0.00    +0.106 C 
ENDROOT
BRANCH   1   2
ATOM      2  C   UNL     1       3.937  -4.892  -0.537  0.00  0.00    +0.123 A 
ATOM      3  C   UNL     1       5.185  -5.275  -0.860  0.00  0.00    +0.062 A 
ATOM      4  C   UNL     1       5.970  -5.144   0.310  0.00  0.00    +0.070 A 
ATOM      5  C   UNL     1       5.152  -4.688   1.278  0.00  0.00    +0.184 A 
ATOM      6  O   UNL     1       3.924  -4.532   0.757  0.00  0.00    -0.450 OA
ATOM      7 BR   UNL     1       5.651  -4.322   3.065  0.00  0.00    -0.007 Br
ATOM      8 BR   UNL     1       7.812  -5.534   0.481  0.00  0.00    -0.046 Br
ENDBRANCH   1   2
BRANCH   1   9
ATOM      9  N   UNL     1       2.056  -3.579  -1.339  0.00  0.00    -0.290 NA
ATOM     10  C   UNL     1       2.871  -2.479  -1.871  0.00  0.00    +0.106 C 
BRANCH   9  11
ATOM     11  C   UNL     1       1.679  -3.326   0.058  0.00  0.00    +0.159 C 
BRANCH  11  16
ATOM     12  C   UNL     1      -0.708   1.111   0.285  0.00  0.00    +0.086 C 
ATOM     13  C   UNL     1      -0.465  -0.374   0.202  0.00  0.00    +0.102 A 
ATOM     14  C   UNL     1      -1.415  -1.324   0.134  0.00  0.00    +0.044 A 
ATOM     15  C   UNL     1      -0.746  -2.568   0.070  0.00  0.00    +0.046 A 
ATOM     16  C   UNL     1       0.573  -2.303   0.103  0.00  0.00    +0.119 A 
ATOM     17  O   UNL     1       0.737  -0.972   0.177  0.00  0.00    -0.464 OA
ENDBRANCH  11  16
ENDBRANCH   9  11
ENDBRANCH   1   9
BRANCH   1  18
ATOM     18  C   UNL     1       1.798  -6.004  -1.117  0.00  0.00    -0.059 C 
BRANCH  18  19
ATOM     19  N   UNL     1       0.601  -5.920  -1.964  0.00  0.00    +0.379 N 
ATOM     20  H   UNL     1       0.183  -5.007  -1.867  0.00  0.00    -0.090 HD
ATOM     21  H   UNL     1       0.860  -6.070  -2.928  0.00  0.00    -0.090 HD
ATOM     22  H   UNL     1      -0.062  -6.626  -1.681  0.00  0.00    -0.090 HD
ENDBRANCH  18  19
ENDBRANCH   1  18
TORSDOF 6
