REMARK  Name = ZINC38704962
REMARK  14 active torsions:
REMARK  status: ('A' for Active; 'I' for Inactive)
REMARK    1  A    between atoms: C_1  and  C_2
REMARK    2  A    between atoms: C_4  and  C_40
REMARK    3  A    between atoms: C_5  and  C_9
REMARK    4  A    between atoms: C_6  and  O_8
REMARK    5  A    between atoms: N_17  and  C_30
REMARK    6  A    between atoms: C_18  and  C_20
REMARK    7  A    between atoms: C_23  and  O_28
REMARK    8  A    between atoms: C_24  and  O_26
REMARK    9  A    between atoms: O_26  and  C_27
REMARK   10  A    between atoms: O_28  and  C_29
REMARK   11  A    between atoms: C_30  and  C_31
REMARK   12  A    between atoms: C_31  and  C_32
REMARK   13  A    between atoms: C_35  and  O_38
REMARK   14  A    between atoms: O_38  and  C_39
REMARK                            x       y       z     vdW  Elec       q    Type
REMARK                         _______ _______ _______ _____ _____    ______ ____
ROOT
ATOM      1  C   UNL     1       0.152  -4.414  -0.128  0.00  0.00    +0.102 A 
ATOM      2  C   UNL     1       0.217  -5.191   1.033  0.00  0.00    +0.035 A 
ATOM      3  C   UNL     1       0.176  -6.505   0.610  0.00  0.00    +0.126 A 
ATOM      4  N   UNL     1       0.090  -6.463  -0.753  0.00  0.00    -0.272 N 
ATOM      5  H   UNL     1       0.044  -7.239  -1.332  0.00  0.00    +0.189 HD
ATOM      6  N   UNL     1       0.072  -5.241  -1.152  0.00  0.00    -0.173 NA
ATOM      7  C   UNL     1       0.240  -7.377   1.788  0.00  0.00    +0.265 C 
ATOM      8  O   UNL     1       0.224  -8.593   1.754  0.00  0.00    -0.268 OA
ATOM      9  N   UNL     1       0.319  -6.641   2.912  0.00  0.00    -0.285 N 
ATOM     10  C   UNL     1       0.312  -5.222   2.534  0.00  0.00    +0.141 C 
ENDROOT
BRANCH   1  15
ATOM     11  C   UNL     1       0.204   1.343  -0.394  0.00  0.00    +0.044 C 
ATOM     12  C   UNL     1       0.188  -0.162  -0.323  0.00  0.00    -0.047 A 
ATOM     13  C   UNL     1       1.050  -0.898  -1.116  0.00  0.00    +0.007 A 
ATOM     14  C   UNL     1       1.043  -2.277  -1.057  0.00  0.00    -0.037 A 
ATOM     15  C   UNL     1       0.165  -2.931  -0.196  0.00  0.00    +0.047 A 
ATOM     16  C   UNL     1      -0.705  -2.185   0.605  0.00  0.00    +0.127 A 
ATOM     17  C   UNL     1      -0.683  -0.801   0.539  0.00  0.00    +0.049 A 
ATOM     18  C   UNL     1       1.983  -3.075  -1.923  0.00  0.00    +0.044 C 
BRANCH  16  19
ATOM     19  O   UNL     1      -1.565  -2.814   1.447  0.00  0.00    -0.506 OA
ATOM     20  H   UNL     1      -1.237  -2.899   2.353  0.00  0.00    +0.292 HD
ENDBRANCH  16  19
ENDBRANCH   1  15
BRANCH  10  21
ATOM     21  C   UNL     1       1.587  -4.558   2.987  0.00  0.00    -0.019 A 
ATOM     22  C   UNL     1       2.804  -5.173   2.761  0.00  0.00    +0.009 A 
ATOM     23  C   UNL     1       3.976  -4.568   3.175  0.00  0.00    +0.050 A 
ATOM     24  C   UNL     1       3.932  -3.341   3.817  0.00  0.00    +0.162 A 
ATOM     25  C   UNL     1       2.707  -2.721   4.045  0.00  0.00    +0.162 A 
ATOM     26  C   UNL     1       1.537  -3.331   3.623  0.00  0.00    +0.055 A 
BRANCH  25  27
ATOM     27  O   UNL     1       2.660  -1.517   4.676  0.00  0.00    -0.491 OA
ATOM     28  C   UNL     1       1.368  -0.940   4.875  0.00  0.00    +0.277 C 
ENDBRANCH  25  27
BRANCH  24  29
ATOM     29  O   UNL     1       5.084  -2.744   4.226  0.00  0.00    -0.491 OA
ATOM     30  C   UNL     1       6.304  -3.439   3.959  0.00  0.00    +0.277 C 
ENDBRANCH  24  29
ENDBRANCH  10  21
BRANCH   9  31
ATOM     31  C   UNL     1       0.398  -7.166   4.277  0.00  0.00    +0.114 C 
BRANCH  31  32
ATOM     32  C   UNL     1       1.865  -7.365   4.663  0.00  0.00    +0.054 C 
BRANCH  32  33
ATOM     33  C   UNL     1       1.947  -7.905   6.068  0.00  0.00    -0.046 A 
ATOM     34  C   UNL     1       2.018  -7.033   7.139  0.00  0.00    +0.007 A 
ATOM     35  C   UNL     1       2.093  -7.525   8.427  0.00  0.00    +0.046 A 
ATOM     36  C   UNL     1       2.096  -8.895   8.646  0.00  0.00    +0.120 A 
ATOM     37  C   UNL     1       2.024  -9.768   7.570  0.00  0.00    +0.046 A 
ATOM     38  C   UNL     1       1.944  -9.270   6.284  0.00  0.00    +0.007 A 
BRANCH  36  39
ATOM     39  O   UNL     1       2.171  -9.382   9.913  0.00  0.00    -0.495 OA
ATOM     40  C   UNL     1       2.169 -10.803  10.063  0.00  0.00    +0.277 C 
ENDBRANCH  36  39
ENDBRANCH  32  33
ENDBRANCH  31  32
ENDBRANCH   9  31
TORSDOF 9
