REMARK  Name = ZINC14274006
REMARK  8 active torsions:
REMARK  status: ('A' for Active; 'I' for Inactive)
REMARK    1  A    between atoms: C_1  and  C_2
REMARK    2  A    between atoms: C_3  and  C_24
REMARK    3  A    between atoms: C_7  and  N_8
REMARK    4  A    between atoms: N_8  and  C_9
REMARK    5  A    between atoms: C_9  and  N_11
REMARK    6  A    between atoms: C_12  and  C_14
REMARK    7  A    between atoms: C_15  and  C_16
REMARK    8  A    between atoms: C_27  and  C_32
REMARK                            x       y       z     vdW  Elec       q    Type
REMARK                         _______ _______ _______ _____ _____    ______ ____
ROOT
ATOM      1  N   UNL     1      -4.858   2.537  -0.199  0.00  0.00    -0.296 N 
ATOM      2  H   UNL     1      -5.082   1.684   0.205  0.00  0.00    +0.154 HD
ENDROOT
BRANCH   1   9
ATOM      3  C   UNL     1      -2.671   0.791  -0.706  0.00  0.00    +0.046 C 
ATOM      4  C   UNL     1      -2.467   2.232  -0.314  0.00  0.00    -0.020 A 
ATOM      5  C   UNL     1      -1.178   2.748  -0.190  0.00  0.00    +0.014 A 
ATOM      6  C   UNL     1      -0.997   4.081   0.178  0.00  0.00    +0.011 A 
ATOM      7  C   UNL     1      -2.093   4.888   0.408  0.00  0.00    +0.002 A 
ATOM      8  C   UNL     1      -3.371   4.378   0.286  0.00  0.00    +0.023 A 
ATOM      9  C   UNL     1      -3.562   3.049  -0.075  0.00  0.00    +0.036 A 
BRANCH   5  10
ATOM     10  C   UNL     1      -0.005   1.881  -0.443  0.00  0.00    +0.133 A 
ATOM     11  N   UNL     1       0.230   0.669  -0.010  0.00  0.00    -0.156 NA
ATOM     12  N   UNL     1       1.399   0.000  -0.346  0.00  0.00    -0.190 N 
ATOM     13  C   UNL     1       2.020  -1.213  -0.126  0.00  0.00    +0.153 A 
ATOM     14  N   UNL     1       3.159  -1.204  -0.760  0.00  0.00    -0.132 NA
ATOM     15  N   UNL     1       3.317  -0.080  -1.368  0.00  0.00    -0.120 NA
ATOM     16  C   UNL     1       2.285   0.677  -1.149  0.00  0.00    +0.218 A 
ATOM     17  S   UNL     1       1.456   2.225  -1.410  0.00  0.00    -0.026 S 
ATOM     18  C   UNL     1       1.476  -2.348   0.703  0.00  0.00    +0.090 C 
ENDBRANCH   5  10
ENDBRANCH   1   9
BRANCH   1  19
ATOM     19  C   UNL     1      -5.794   3.228  -0.878  0.00  0.00    +0.141 C 
ATOM     20  S   UNL     1      -5.432   4.786  -1.489  0.00  0.00    -0.018 S 
BRANCH  19  21
ATOM     21  N   UNL     1      -7.014   2.693  -1.078  0.00  0.00    -0.264 N 
ATOM     22  C   UNL     1      -7.950   3.384  -1.758  0.00  0.00    +0.242 C 
ATOM     23  O   UNL     1      -7.694   4.492  -2.192  0.00  0.00    -0.270 OA
ATOM     24  H   UNL     1      -7.219   1.810  -0.732  0.00  0.00    +0.157 HD
BRANCH  22  25
ATOM     25  C   UNL     1      -9.275   2.804  -1.974  0.00  0.00    +0.068 C 
ATOM     26  C   UNL     1     -10.212   3.496  -2.655  0.00  0.00    +0.014 C 
BRANCH  26  27
ATOM     27  C   UNL     1     -11.544   2.912  -2.873  0.00  0.00    -0.006 A 
ATOM     28  C   UNL     1     -11.842   1.636  -2.381  0.00  0.00    +0.011 A 
ATOM     29  C   UNL     1     -13.093   1.097  -2.584  0.00  0.00    +0.020 A 
ATOM     30  C   UNL     1     -14.054   1.810  -3.284  0.00  0.00    +0.042 A 
ATOM     31  C   UNL     1     -13.767   3.071  -3.779  0.00  0.00    +0.040 A 
ATOM     32  C   UNL     1     -12.519   3.627  -3.579  0.00  0.00    +0.049 A 
ATOM     33 CL   UNL     1     -12.160   5.207  -4.200  0.00  0.00    -0.083 Cl
ATOM     34 CL   UNL     1     -15.626   1.119  -3.541  0.00  0.00    -0.083 Cl
ENDBRANCH  26  27
ENDBRANCH  22  25
ENDBRANCH  19  21
ENDBRANCH   1  19
TORSDOF 6
