REMARK  Name = ZINC14999531
REMARK  9 active torsions:
REMARK  status: ('A' for Active; 'I' for Inactive)
REMARK    1  A    between atoms: C_1  and  C_2
REMARK    2  A    between atoms: C_2  and  C_3
REMARK    3  A    between atoms: C_3  and  C_4
REMARK    4  A    between atoms: C_4  and  C_19
REMARK    5  A    between atoms: N_7  and  C_11
REMARK    6  A    between atoms: C_11  and  C_12
REMARK    7  A    between atoms: C_12  and  C_13
REMARK    8  A    between atoms: C_24  and  C_25
REMARK    9  A    between atoms: C_24  and  N_66
REMARK                            x       y       z     vdW  Elec       q    Type
REMARK                         _______ _______ _______ _____ _____    ______ ____
ROOT
ATOM      1  C   UNL     1      -2.965   2.020   4.813  0.00  0.00    +0.115 C 
ATOM      2  C   UNL     1      -2.446   3.435   4.979  0.00  0.00    +0.247 C 
ATOM      3  O   UNL     1      -2.557   4.352   4.194  0.00  0.00    -0.273 OA
ATOM      4  N   UNL     1      -1.837   3.461   6.181  0.00  0.00    -0.224 N 
ATOM      5  C   UNL     1      -1.897   2.271   6.790  0.00  0.00    +0.309 C 
ATOM      6  O   UNL     1      -1.418   2.048   7.885  0.00  0.00    -0.252 OA
ATOM      7  N   UNL     1      -2.548   1.350   6.057  0.00  0.00    -0.285 N 
ATOM      8  H   UNL     1      -2.711   0.425   6.300  0.00  0.00    +0.151 HD
ENDROOT
BRANCH   1   9
ATOM      9  C   UNL     1      -2.320   1.350   3.598  0.00  0.00    +0.018 C 
ATOM     10  C   UNL     1      -0.800   1.525   3.664  0.00  0.00    -0.013 C 
ATOM     11  C   UNL     1      -0.165   0.905   2.417  0.00  0.00    -0.078 C 
ATOM     12  C   UNL     1      -2.152   1.364   1.107  0.00  0.00    -0.078 C 
ATOM     13  C   UNL     1      -2.845   1.998   2.315  0.00  0.00    -0.013 C 
ATOM     14  N   UNL     1      -0.695   1.589   1.218  0.00  0.00    +0.383 N 
ATOM     15  H   UNL     1      -0.519   2.597   1.305  0.00  0.00    -0.081 HD
BRANCH  14  16
ATOM     16  C   UNL     1      -0.013   1.086   0.008  0.00  0.00    -0.036 C 
BRANCH  16  17
ATOM     17  C   UNL     1      -0.742   1.585  -1.213  0.00  0.00    -0.026 A 
ATOM     18  C   UNL     1      -0.547   2.728  -1.886  0.00  0.00    +0.017 A 
ATOM     19  C   UNL     1      -1.370   3.018  -3.051  0.00  0.00    -0.011 A 
ATOM     20  C   UNL     1      -1.336   4.150  -3.900  0.00  0.00    +0.009 A 
ATOM     21  C   UNL     1      -2.189   4.255  -4.953  0.00  0.00    +0.001 A 
ATOM     22  C   UNL     1      -3.119   3.263  -5.235  0.00  0.00    +0.001 A 
ATOM     23  C   UNL     1      -3.184   2.143  -4.431  0.00  0.00    +0.015 A 
ATOM     24  C   UNL     1      -2.324   2.025  -3.360  0.00  0.00    +0.020 A 
ATOM     25  S   UNL     1      -2.063   0.793  -2.110  0.00  0.00    -0.095 S 
ENDBRANCH  16  17
ENDBRANCH  14  16
ENDBRANCH   1   9
BRANCH   1  26
ATOM     26  C   UNL     1      -4.489   2.014   4.683  0.00  0.00    +0.035 C 
BRANCH  26  28
ATOM     27  C   UNL     1      -6.633   2.682   5.778  0.00  0.00    +0.004 C 
ATOM     28  C   UNL     1      -5.109   2.689   5.908  0.00  0.00    -0.001 C 
ENDBRANCH  26  28
ENDBRANCH   1  26
BRANCH   4  29
ATOM     29  C   UNL     1      -1.189   4.645   6.749  0.00  0.00    +0.124 C 
BRANCH  29  30
ATOM     30  C   UNL     1       0.281   4.676   6.325  0.00  0.00    +0.075 C 
BRANCH  30  31
ATOM     31  C   UNL     1       0.948   5.894   6.910  0.00  0.00    +0.043 A 
ATOM     32  C   UNL     1       2.086   5.747   7.679  0.00  0.00    +0.023 A 
ATOM     33  C   UNL     1       2.692   6.874   8.212  0.00  0.00    +0.003 A 
ATOM     34  C   UNL     1       2.127   8.113   7.950  0.00  0.00    +0.020 A 
ATOM     35  C   UNL     1       0.987   8.182   7.172  0.00  0.00    +0.111 A 
ATOM     36  N   UNL     1       0.441   7.089   6.677  0.00  0.00    -0.260 NA
ENDBRANCH  30  31
ENDBRANCH  29  30
ENDBRANCH   4  29
TORSDOF 8
