REMARK  Name = ZINC66625901
REMARK  5 active torsions:
REMARK  status: ('A' for Active; 'I' for Inactive)
REMARK    1  A    between atoms: C_1  and  N_2
REMARK    2  A    between atoms: C_3  and  C_8
REMARK    3  A    between atoms: C_8  and  N_9
REMARK    4  A    between atoms: C_10  and  C_12
REMARK    5  A    between atoms: C_15  and  C_17
REMARK                            x       y       z     vdW  Elec       q    Type
REMARK                         _______ _______ _______ _____ _____    ______ ____
ROOT
ATOM      1  N   UNL     1      -0.882   5.311  -1.377  0.00  0.00    -0.308 N 
ATOM      2  C   UNL     1      -0.576   6.507  -0.837  0.00  0.00    +0.217 C 
ATOM      3  O   UNL     1       0.041   6.562   0.206  0.00  0.00    -0.275 OA
ATOM      4  H   UNL     1      -1.375   5.267  -2.211  0.00  0.00    +0.149 HD
ENDROOT
BRANCH   2   5
ATOM      5  C   UNL     1      -1.000   7.777  -1.529  0.00  0.00    +0.083 C 
ATOM      6  C   UNL     1      -2.079   8.624  -0.852  0.00  0.00    +0.022 C 
ATOM      7  C   UNL     1      -0.625   9.103  -0.865  0.00  0.00    +0.033 C 
BRANCH   7   8
ATOM      8  C   UNL     1      -0.282  10.260  -1.767  0.00  0.00    -0.030 A 
ATOM      9  C   UNL     1      -1.217  10.736  -2.667  0.00  0.00    +0.005 A 
ATOM     10  C   UNL     1      -0.902  11.798  -3.494  0.00  0.00    +0.000 A 
ATOM     11  C   UNL     1       0.347  12.385  -3.422  0.00  0.00    +0.001 A 
ATOM     12  C   UNL     1       1.283  11.909  -2.523  0.00  0.00    +0.015 A 
ATOM     13  C   UNL     1       0.967  10.850  -1.691  0.00  0.00    +0.021 A 
ATOM     14 BR   UNL     1       2.245  10.203  -0.456  0.00  0.00    -0.050 Br
ENDBRANCH   7   8
ENDBRANCH   2   5
BRANCH   1  15
ATOM     15  C   UNL     1      -0.469   4.076  -0.704  0.00  0.00    +0.180 C 
BRANCH  15  18
ATOM     16  C   UNL     1      -0.013   1.086   0.008  0.00  0.00    +0.152 C 
ATOM     17  N   UNL     1      -0.721   1.571  -1.179  0.00  0.00    -0.309 N 
ATOM     18  C   UNL     1      -0.931   2.888  -1.508  0.00  0.00    +0.149 A 
ATOM     19  N   UNL     1      -1.590   2.941  -2.620  0.00  0.00    -0.157 NA
ATOM     20  N   UNL     1      -1.829   1.628  -3.048  0.00  0.00    -0.254 N 
ATOM     21  C   UNL     1      -1.274   0.801  -2.138  0.00  0.00    +0.175 A 
ATOM     22  S   UNL     1      -1.274  -0.910  -2.189  0.00  0.00    -0.011 S 
ATOM     23  H   UNL     1      -2.303   1.363  -3.852  0.00  0.00    +0.191 HD
ENDBRANCH  15  18
ENDBRANCH   1  15
TORSDOF 4
