REMARK  Name = ZINC45723872
REMARK  4 active torsions:
REMARK  status: ('A' for Active; 'I' for Inactive)
REMARK    1  A    between atoms: C_10  and  N_12
REMARK    2  A    between atoms: N_15  and  C_16
REMARK    3  A    between atoms: C_21  and  C_22
REMARK    4  A    between atoms: C_22  and  C_23
REMARK                            x       y       z     vdW  Elec       q    Type
REMARK                         _______ _______ _______ _____ _____    ______ ____
ROOT
ATOM      1  N   UNL     1       4.661   0.008   0.856  0.00  0.00    -0.292 N 
ATOM      2  C   UNL     1       5.333   1.099   0.437  0.00  0.00    +0.304 C 
ATOM      3  O   UNL     1       5.186   1.505  -0.699  0.00  0.00    -0.252 OA
ATOM      4  N   UNL     1       6.170   1.739   1.278  0.00  0.00    -0.269 N 
ATOM      5  H   UNL     1       4.779  -0.316   1.762  0.00  0.00    +0.151 HD
ATOM      6  H   UNL     1       6.226   1.466   2.207  0.00  0.00    +0.156 HD
ENDROOT
BRANCH   1  16
ATOM      7  C   UNL     1      -0.017   1.332   0.024  0.00  0.00    +0.000 A 
ATOM      8  C   UNL     1       1.168   2.045   0.017  0.00  0.00    +0.000 A 
ATOM      9  C   UNL     1       2.372   1.371  -0.008  0.00  0.00    +0.006 A 
ATOM     10  C   UNL     1       2.404  -0.017  -0.024  0.00  0.00    -0.024 A 
ATOM     11  C   UNL     1       1.224  -0.727  -0.012  0.00  0.00    -0.042 A 
ATOM     12  C   UNL     1       0.013  -0.047   0.009  0.00  0.00    +0.004 A 
ATOM     13  C   UNL     1       1.183  -2.232  -0.011  0.00  0.00    +0.035 C 
ATOM     14  C   UNL     1       2.524  -2.806  -0.464  0.00  0.00    +0.007 C 
ATOM     15  C   UNL     1       3.636  -2.151   0.364  0.00  0.00    +0.027 C 
ATOM     16  C   UNL     1       3.752  -0.688  -0.059  0.00  0.00    +0.105 C 
ENDBRANCH   1  16
BRANCH   4  17
ATOM     17  C   UNL     1       6.956   2.798   0.811  0.00  0.00    +0.038 A 
ATOM     18  C   UNL     1       7.286   2.879  -0.535  0.00  0.00    +0.023 A 
ATOM     19  C   UNL     1       8.062   3.926  -0.993  0.00  0.00    +0.002 A 
ATOM     20  C   UNL     1       8.510   4.893  -0.112  0.00  0.00    +0.000 A 
ATOM     21  C   UNL     1       8.183   4.816   1.230  0.00  0.00    +0.006 A 
ATOM     22  C   UNL     1       7.402   3.774   1.692  0.00  0.00    -0.017 A 
BRANCH  22  23
ATOM     23  C   UNL     1       7.041   3.694   3.153  0.00  0.00    +0.132 C 
BRANCH  23  24
ATOM     24  C   UNL     1       8.027   2.804   3.866  0.00  0.00    +0.215 C 
ATOM     25  O   UNL     1       8.933   2.287   3.249  0.00  0.00    -0.276 OA
ATOM     26  N   UNL     1       7.901   2.584   5.190  0.00  0.00    -0.329 N 
ATOM     27  H   UNL     1       7.176   2.998   5.684  0.00  0.00    +0.145 HD
ATOM     28  H   UNL     1       8.536   2.012   5.649  0.00  0.00    +0.145 HD
ENDBRANCH  23  24
ENDBRANCH  22  23
ENDBRANCH   4  17
TORSDOF 4
