REMARK  Name = ZINC62355908
REMARK  7 active torsions:
REMARK  status: ('A' for Active; 'I' for Inactive)
REMARK    1  A    between atoms: C_4  and  C_7
REMARK    2  A    between atoms: C_7  and  C_9
REMARK    3  A    between atoms: C_7  and  N_23
REMARK    4  A    between atoms: C_9  and  N_10
REMARK    5  A    between atoms: N_10  and  S_11
REMARK    6  A    between atoms: S_11  and  C_14
REMARK    7  A    between atoms: C_18  and  C_20
REMARK                            x       y       z     vdW  Elec       q    Type
REMARK                         _______ _______ _______ _____ _____    ______ ____
ROOT
ATOM      1  C   UNL     1       4.163  -1.090  -1.463  0.00  0.00    +0.095 C 
ENDROOT
BRANCH   1   2
ATOM      2  N   UNL     1       4.240   0.118  -2.288  0.00  0.00    -0.191 NA
ATOM      3  H   UNL     1       3.885   0.957  -1.954  0.00  0.00    +0.148 HD
BRANCH   2   4
ATOM      4  S   UNL     1       4.934   0.052  -3.790  0.00  0.00    +0.058 S 
ATOM      5  O   UNL     1       4.834   1.358  -4.342  0.00  0.00    -0.153 OA
ATOM      6  O   UNL     1       6.179  -0.615  -3.634  0.00  0.00    -0.153 OA
BRANCH   4   7
ATOM      7  C   UNL     1       3.924  -0.994  -4.785  0.00  0.00    +0.106 A 
ATOM      8  C   UNL     1       4.172  -2.355  -4.829  0.00  0.00    +0.028 A 
ATOM      9  C   UNL     1       3.384  -3.184  -5.607  0.00  0.00    +0.003 A 
ATOM     10  C   UNL     1       2.344  -2.659  -6.346  0.00  0.00    +0.015 A 
ATOM     11  C   UNL     1       2.087  -1.286  -6.306  0.00  0.00    +0.065 A 
ATOM     12  C   UNL     1       2.884  -0.456  -5.513  0.00  0.00    +0.043 A 
BRANCH  11  13
ATOM     13  C   UNL     1       0.977  -0.717  -7.093  0.00  0.00    +0.387 C 
ATOM     14  O   UNL     1       0.278  -1.447  -7.782  0.00  0.00    -0.241 OA
ATOM     15  O   UNL     1       0.754   0.485  -7.056  0.00  0.00    -0.241 OA
ENDBRANCH  11  13
ENDBRANCH   4   7
ENDBRANCH   2   4
ENDBRANCH   1   2
BRANCH   1  16
ATOM     16  C   UNL     1       3.875  -0.699  -0.012  0.00  0.00    -0.022 C 
BRANCH  16  20
ATOM     17  C   UNL     1      -0.009   1.061   0.243  0.00  0.00    +0.000 A 
ATOM     18  C   UNL     1       1.114   1.866   0.214  0.00  0.00    +0.000 A 
ATOM     19  C   UNL     1       2.371   1.297   0.132  0.00  0.00    +0.002 A 
ATOM     20  C   UNL     1       2.505  -0.078   0.079  0.00  0.00    -0.060 A 
ATOM     21  C   UNL     1       1.382  -0.884   0.109  0.00  0.00    +0.002 A 
ATOM     22  C   UNL     1       0.125  -0.314   0.190  0.00  0.00    +0.000 A 
ENDBRANCH  16  20
BRANCH  16  23
ATOM     23  N   UNL     1       3.928  -1.896   0.838  0.00  0.00    +0.385 N 
ATOM     24  C   UNL     1       5.295  -2.476   0.821  0.00  0.00    -0.078 C 
ATOM     25  C   UNL     1       5.341  -3.314   2.124  0.00  0.00    -0.020 C 
ATOM     26  C   UNL     1       4.542  -2.444   3.122  0.00  0.00    -0.020 C 
ATOM     27  C   UNL     1       3.660  -1.534   2.246  0.00  0.00    -0.078 C 
ATOM     28  H   UNL     1       3.256  -2.578   0.520  0.00  0.00    -0.081 HD
ENDBRANCH  16  23
ENDBRANCH   1  16
TORSDOF 7
