REMARK  Name = ZINC10577531
REMARK  5 active torsions:
REMARK  status: ('A' for Active; 'I' for Inactive)
REMARK    1  A    between atoms: C_4  and  C_7
REMARK    2  A    between atoms: C_7  and  C_9
REMARK    3  A    between atoms: C_7  and  N_27
REMARK    4  A    between atoms: C_9  and  C_10
REMARK    5  A    between atoms: N_12  and  C_13
REMARK                            x       y       z     vdW  Elec       q    Type
REMARK                         _______ _______ _______ _____ _____    ______ ____
ROOT
ATOM      1  C   UNL     1      -3.363  -0.638   3.955  0.00  0.00    +0.219 C 
ATOM      2  O   UNL     1      -4.001  -1.097   4.880  0.00  0.00    -0.275 OA
ATOM      3  N   UNL     1      -2.823   0.593   4.054  0.00  0.00    -0.285 N 
ATOM      4  H   UNL     1      -2.260   0.934   3.342  0.00  0.00    +0.155 HD
ENDROOT
BRANCH   3   5
ATOM      5  C   UNL     1      -3.077   1.380   5.185  0.00  0.00    +0.037 A 
ATOM      6  C   UNL     1      -3.195   2.758   5.059  0.00  0.00    +0.027 A 
ATOM      7  C   UNL     1      -3.452   3.535   6.173  0.00  0.00    +0.051 A 
ATOM      8  C   UNL     1      -3.578   2.943   7.419  0.00  0.00    +0.167 A 
ATOM      9  C   UNL     1      -3.454   1.562   7.549  0.00  0.00    +0.169 A 
ATOM     10  C   UNL     1      -3.204   0.783   6.432  0.00  0.00    +0.072 A 
ATOM     11  O   UNL     1      -3.618   1.230   8.864  0.00  0.00    -0.447 OA
ATOM     12  C   UNL     1      -4.226   2.376   9.476  0.00  0.00    +0.254 C 
ATOM     13  O   UNL     1      -3.819   3.479   8.653  0.00  0.00    -0.448 OA
ATOM     14  C   UNL     1      -3.705   2.557  10.898  0.00  0.00    +0.093 C 
ATOM     15  C   UNL     1      -4.124   1.359  11.755  0.00  0.00    +0.008 C 
ATOM     16  C   UNL     1      -5.650   1.251  11.764  0.00  0.00    +0.000 C 
ATOM     17  C   UNL     1      -6.157   1.045  10.335  0.00  0.00    +0.008 C 
ATOM     18  C   UNL     1      -5.745   2.240   9.472  0.00  0.00    +0.093 C 
ENDBRANCH   3   5
BRANCH   1  19
ATOM     19  C   UNL     1      -3.175  -1.445   2.696  0.00  0.00    +0.123 C 
BRANCH  19  20
ATOM     20  C   UNL     1      -3.882  -2.793   2.844  0.00  0.00    +0.113 C 
BRANCH  20  21
ATOM     21  N   UNL     1      -5.327  -2.578   2.953  0.00  0.00    -0.292 N 
ATOM     22  C   UNL     1      -6.086  -3.442   3.655  0.00  0.00    +0.298 C 
ATOM     23  O   UNL     1      -5.588  -4.449   4.121  0.00  0.00    -0.253 OA
ATOM     24  N   UNL     1      -7.396  -3.187   3.846  0.00  0.00    -0.313 N 
ATOM     25  H   UNL     1      -5.737  -1.813   2.520  0.00  0.00    +0.151 HD
ATOM     26  H   UNL     1      -7.941  -3.807   4.355  0.00  0.00    +0.146 HD
ATOM     27  H   UNL     1      -7.793  -2.384   3.475  0.00  0.00    +0.146 HD
ENDBRANCH  20  21
BRANCH  20  31
ATOM     28  C   UNL     1      -3.059  -5.215  -0.577  0.00  0.00    +0.000 A 
ATOM     29  C   UNL     1      -2.433  -5.483   0.626  0.00  0.00    +0.000 A 
ATOM     30  C   UNL     1      -2.699  -4.699   1.733  0.00  0.00    +0.005 A 
ATOM     31  C   UNL     1      -3.591  -3.648   1.637  0.00  0.00    -0.027 A 
ATOM     32  C   UNL     1      -4.222  -3.384   0.435  0.00  0.00    +0.005 A 
ATOM     33  C   UNL     1      -3.952  -4.165  -0.673  0.00  0.00    +0.000 A 
ENDBRANCH  20  31
ENDBRANCH  19  20
ENDBRANCH   1  19
TORSDOF 5
