REMARK  Name = ZINC11913081
REMARK  11 active torsions:
REMARK  status: ('A' for Active; 'I' for Inactive)
REMARK    1  A    between atoms: C_1  and  N_2
REMARK    2  A    between atoms: N_2  and  C_3
REMARK    3  A    between atoms: N_2  and  C_4
REMARK    4  A    between atoms: C_7  and  C_10
REMARK    5  A    between atoms: C_11  and  C_12
REMARK    6  A    between atoms: C_12  and  N_67
REMARK    7  A    between atoms: C_16  and  C_26
REMARK    8  A    between atoms: C_17  and  O_24
REMARK    9  A    between atoms: O_24  and  C_25
REMARK   10  A    between atoms: N_28  and  C_29
REMARK   11  A    between atoms: C_29  and  C_30
REMARK                            x       y       z     vdW  Elec       q    Type
REMARK                         _______ _______ _______ _____ _____    ______ ____
ROOT
ATOM      1  C   UNL     1       1.377   3.441   0.217  0.00  0.00    -0.072 C 
ATOM      2  C   UNL     1       0.660   4.137  -0.938  0.00  0.00    +0.036 C 
ATOM      3  C   UNL     1       1.622   4.505  -2.042  0.00  0.00    +0.036 A 
ATOM      4  C   UNL     1       1.293   5.612  -2.811  0.00  0.00    +0.098 A 
ATOM      5  C   UNL     1       2.152   5.992  -3.932  0.00  0.00    +0.139 A 
ATOM      6  C   UNL     1       3.266   5.215  -4.181  0.00  0.00    +0.116 A 
ATOM      7  C   UNL     1       3.529   4.124  -3.353  0.00  0.00    +0.255 A 
ATOM      8  O   UNL     1       4.508   3.432  -3.581  0.00  0.00    -0.268 OA
ATOM      9  N   UNL     1       2.734   3.806  -2.304  0.00  0.00    -0.313 N 
ATOM     10  C   UNL     1       3.164   2.671  -1.481  0.00  0.00    +0.106 C 
ATOM     11  C   UNL     1       2.026   1.668  -1.288  0.00  0.00    -0.056 C 
ATOM     12  N   UNL     1       1.363   1.982  -0.009  0.00  0.00    +0.383 N 
ATOM     13  H   UNL     1       1.872   1.520   0.754  0.00  0.00    -0.081 HD
ENDROOT
BRANCH   4  14
ATOM     14  C   UNL     1       0.086   6.397  -2.502  0.00  0.00    +0.250 C 
ATOM     15  O   UNL     1       0.181   7.443  -1.887  0.00  0.00    -0.270 OA
ATOM     16  N   UNL     1      -1.125   5.958  -2.899  0.00  0.00    -0.307 N 
ATOM     17  H   UNL     1      -1.210   5.090  -3.324  0.00  0.00    +0.149 HD
BRANCH  16  18
ATOM     18  C   UNL     1      -2.311   6.792  -2.691  0.00  0.00    +0.140 C 
BRANCH  18  19
ATOM     19  C   UNL     1      -3.527   6.076  -3.221  0.00  0.00    -0.023 A 
ATOM     20  C   UNL     1      -3.929   6.251  -4.532  0.00  0.00    +0.013 A 
ATOM     21  C   UNL     1      -5.024   5.588  -4.978  0.00  0.00    +0.045 A 
ATOM     22  S   UNL     1      -5.532   4.691  -3.520  0.00  0.00    -0.105 S 
ATOM     23  C   UNL     1      -4.246   5.255  -2.417  0.00  0.00    +0.050 A 
ENDBRANCH  18  19
ENDBRANCH  16  18
ENDBRANCH   4  14
BRANCH   5  24
ATOM     24  O   UNL     1       1.865   7.069  -4.700  0.00  0.00    -0.494 OA
ATOM     25  C   UNL     1       2.764   7.360  -5.772  0.00  0.00    +0.277 C 
ENDBRANCH   5  24
BRANCH  12  26
ATOM     26  C   UNL     1      -0.030   1.485  -0.025  0.00  0.00    -0.051 C 
BRANCH  26  28
ATOM     27  C   UNL     1      -0.655  -0.705   0.892  0.00  0.00    +0.002 C 
ATOM     28  C   UNL     1      -0.011  -0.022  -0.044  0.00  0.00    -0.045 C 
BRANCH  27  32
ATOM     29  C   UNL     1      -0.602  -4.953   0.838  0.00  0.00    +0.029 A 
ATOM     30  C   UNL     1      -1.295  -4.280   1.839  0.00  0.00    +0.023 A 
ATOM     31  C   UNL     1      -1.314  -2.903   1.859  0.00  0.00    +0.010 A 
ATOM     32  C   UNL     1      -0.637  -2.182   0.874  0.00  0.00    -0.025 A 
ATOM     33  C   UNL     1       0.054  -2.860  -0.132  0.00  0.00    +0.010 A 
ATOM     34  C   UNL     1       0.073  -4.238  -0.145  0.00  0.00    +0.023 A 
BRANCH  29  36
ATOM     35  C   UNL     1      -1.296  -7.103   1.855  0.00  0.00    +0.129 C 
ATOM     36  N   UNL     1      -0.585  -6.348   0.820  0.00  0.00    -0.336 N 
ATOM     37  C   UNL     1       0.145  -7.058  -0.233  0.00  0.00    +0.129 C 
ENDBRANCH  29  36
ENDBRANCH  27  32
ENDBRANCH  26  28
ENDBRANCH  12  26
TORSDOF 8
