REMARK  Name = ZINC59498234
REMARK  12 active torsions:
REMARK  status: ('A' for Active; 'I' for Inactive)
REMARK    1  A    between atoms: C_6  and  C_33
REMARK    2  A    between atoms: C_7  and  N_9
REMARK    3  A    between atoms: C_10  and  C_12
REMARK    4  A    between atoms: C_12  and  C_13
REMARK    5  A    between atoms: C_13  and  C_14
REMARK    6  A    between atoms: C_14  and  C_15
REMARK    7  A    between atoms: C_15  and  C_16
REMARK    8  A    between atoms: C_16  and  C_17
REMARK    9  A    between atoms: C_17  and  C_18
REMARK   10  A    between atoms: C_18  and  C_19
REMARK   11  A    between atoms: N_21  and  C_22
REMARK   12  A    between atoms: C_23  and  C_31
REMARK                            x       y       z     vdW  Elec       q    Type
REMARK                         _______ _______ _______ _____ _____    ______ ____
ROOT
ATOM      1  C   UNL     1       5.455  -5.673   7.960  0.00  0.00    +0.000 C 
ENDROOT
BRANCH   1   2
ATOM      2  C   UNL     1       4.357  -5.840   6.907  0.00  0.00    +0.000 C 
BRANCH   2   3
ATOM      3  C   UNL     1       4.165  -4.521   6.156  0.00  0.00    +0.009 C 
BRANCH   3   4
ATOM      4  C   UNL     1       3.067  -4.689   5.104  0.00  0.00    +0.096 C 
BRANCH   4   6
ATOM      5  N   UNL     1       1.957  -3.300   3.384  0.00  0.00    -0.279 N 
ATOM      6  C   UNL     1       2.878  -3.389   4.364  0.00  0.00    +0.218 C 
ATOM      7  O   UNL     1       3.555  -2.425   4.650  0.00  0.00    -0.275 OA
ATOM      8  H   UNL     1       1.415  -4.071   3.156  0.00  0.00    +0.155 HD
BRANCH   5  15
ATOM      9  C   UNL     1      -0.019   1.526   0.010  0.00  0.00    +0.005 C 
ATOM     10  C   UNL     1       1.414   2.067  -0.000  0.00  0.00    +0.005 C 
ATOM     11  C   UNL     1       2.067   1.773   1.358  0.00  0.00    +0.043 C 
ATOM     12  C   UNL     1       1.810   0.338   1.702  0.00  0.00    -0.004 A 
ATOM     13  C   UNL     1       0.907  -0.485   1.127  0.00  0.00    -0.018 A 
ATOM     14  C   UNL     1       0.893  -1.829   1.677  0.00  0.00    +0.084 A 
ATOM     15  C   UNL     1       1.783  -2.103   2.703  0.00  0.00    +0.090 A 
ATOM     16  S   UNL     1       2.603  -0.656   2.932  0.00  0.00    -0.077 S 
ATOM     17  C   UNL     1       0.002  -0.004   0.002  0.00  0.00    +0.037 C 
BRANCH  14  18
ATOM     18  C   UNL     1      -0.004  -2.829   1.181  0.00  0.00    +0.102 C 
ATOM     19  N   UNL     1      -0.716  -3.622   0.788  0.00  0.00    -0.191 NA
ENDBRANCH  14  18
ENDBRANCH   5  15
ENDBRANCH   4   6
ENDBRANCH   3   4
ENDBRANCH   2   3
ENDBRANCH   1   2
BRANCH   1  20
ATOM     20  C   UNL     1       5.647  -6.992   8.711  0.00  0.00    +0.000 C 
BRANCH  20  21
ATOM     21  C   UNL     1       6.745  -6.824   9.763  0.00  0.00    +0.009 C 
BRANCH  21  22
ATOM     22  C   UNL     1       6.937  -8.143  10.514  0.00  0.00    +0.096 C 
BRANCH  22  23
ATOM     23  C   UNL     1       8.018  -7.979  11.550  0.00  0.00    +0.218 C 
ATOM     24  O   UNL     1       8.581  -6.911  11.676  0.00  0.00    -0.275 OA
ATOM     25  N   UNL     1       8.361  -9.017  12.338  0.00  0.00    -0.279 N 
ATOM     26  H   UNL     1       7.911  -9.871  12.238  0.00  0.00    +0.155 HD
BRANCH  25  27
ATOM     27  C   UNL     1       9.357  -8.865  13.293  0.00  0.00    +0.090 A 
ATOM     28  C   UNL     1       9.840  -9.815  14.178  0.00  0.00    +0.084 A 
ATOM     29  C   UNL     1      10.896  -9.402  15.085  0.00  0.00    -0.018 A 
ATOM     30  C   UNL     1      11.275  -8.113  14.941  0.00  0.00    -0.004 A 
ATOM     31  S   UNL     1      10.259  -7.490  13.634  0.00  0.00    -0.077 S 
ATOM     32  C   UNL     1      12.329  -7.393  15.723  0.00  0.00    +0.043 C 
ATOM     33  C   UNL     1      12.658  -8.226  16.971  0.00  0.00    +0.005 C 
ATOM     34  C   UNL     1      12.877  -9.683  16.550  0.00  0.00    +0.005 C 
ATOM     35  C   UNL     1      11.546 -10.306  16.121  0.00  0.00    +0.037 C 
BRANCH  28  36
ATOM     36  C   UNL     1       9.319 -11.149  14.198  0.00  0.00    +0.102 C 
ATOM     37  N   UNL     1       8.906 -12.207  14.213  0.00  0.00    -0.191 NA
ENDBRANCH  28  36
ENDBRANCH  25  27
ENDBRANCH  22  23
ENDBRANCH  21  22
ENDBRANCH  20  21
ENDBRANCH   1  20
TORSDOF 12
