REMARK  Name = ZINC21999719
REMARK  14 active torsions:
REMARK  status: ('A' for Active; 'I' for Inactive)
REMARK    1  A    between atoms: C_1  and  C_2
REMARK    2  A    between atoms: C_2  and  N_3
REMARK    3  A    between atoms: N_3  and  C_4
REMARK    4  A    between atoms: C_4  and  C_5
REMARK    5  A    between atoms: C_8  and  O_13
REMARK    6  A    between atoms: C_9  and  O_11
REMARK    7  A    between atoms: O_11  and  C_12
REMARK    8  A    between atoms: O_13  and  C_14
REMARK    9  A    between atoms: C_15  and  C_17
REMARK   10  A    between atoms: C_17  and  S_18
REMARK   11  A    between atoms: S_18  and  C_19
REMARK   12  A    between atoms: C_22  and  C_27
REMARK   13  A    between atoms: N_23  and  C_24
REMARK   14  A    between atoms: C_24  and  C_25
REMARK                            x       y       z     vdW  Elec       q    Type
REMARK                         _______ _______ _______ _____ _____    ______ ____
ROOT
ATOM      1  C   UNL     1       1.652   8.265   1.077  0.00  0.00    +0.173 C 
ENDROOT
BRANCH   1   3
ATOM      2  N   UNL     1       1.606  10.640   1.766  0.00  0.00    -0.297 N 
ATOM      3  C   UNL     1       1.933   9.725   0.833  0.00  0.00    +0.226 C 
ATOM      4  O   UNL     1       2.454  10.077  -0.205  0.00  0.00    -0.275 OA
BRANCH   2   6
ATOM      5  C   UNL     1       2.060   9.918   4.058  0.00  0.00    +0.024 C 
ATOM      6  C   UNL     1       0.977  10.216   3.019  0.00  0.00    +0.105 C 
ENDBRANCH   2   6
BRANCH   2   7
ATOM      7  C   UNL     1       1.880  12.060   1.528  0.00  0.00    +0.143 C 
BRANCH   7   8
ATOM      8  C   UNL     1       0.692  12.694   0.853  0.00  0.00    -0.026 A 
ATOM      9  C   UNL     1      -0.317  13.254   1.614  0.00  0.00    +0.009 A 
ATOM     10  C   UNL     1      -1.410  13.837   0.999  0.00  0.00    +0.050 A 
ATOM     11  C   UNL     1      -1.494  13.862  -0.383  0.00  0.00    +0.162 A 
ATOM     12  C   UNL     1      -0.479  13.299  -1.150  0.00  0.00    +0.162 A 
ATOM     13  C   UNL     1       0.616  12.720  -0.527  0.00  0.00    +0.054 A 
BRANCH  12  14
ATOM     14  O   UNL     1      -0.558  13.321  -2.508  0.00  0.00    -0.491 OA
ATOM     15  C   UNL     1       0.522  12.724  -3.230  0.00  0.00    +0.277 C 
ENDBRANCH  12  14
BRANCH  11  16
ATOM     16  O   UNL     1      -2.568  14.435  -0.990  0.00  0.00    -0.491 OA
ATOM     17  C   UNL     1      -3.572  14.993  -0.140  0.00  0.00    +0.277 C 
ENDBRANCH  11  16
ENDBRANCH   7   8
ENDBRANCH   2   7
ENDBRANCH   1   3
BRANCH   1  18
ATOM     18  S   UNL     1       2.202   7.297  -0.350  0.00  0.00    -0.077 S 
BRANCH  18  19
ATOM     19  C   UNL     1       1.764   5.678   0.192  0.00  0.00    +0.192 A 
ATOM     20  N   UNL     1       1.199   5.363   1.334  0.00  0.00    -0.122 NA
ATOM     21  N   UNL     1       1.018   4.093   1.395  0.00  0.00    -0.133 NA
ATOM     22  C   UNL     1       1.461   3.524   0.310  0.00  0.00    +0.139 A 
ATOM     23  N   UNL     1       1.950   4.514  -0.497  0.00  0.00    -0.302 N 
BRANCH  22  24
ATOM     24  C   UNL     1       1.435   2.050  -0.001  0.00  0.00    +0.079 C 
ATOM     25  C   UNL     1      -0.019   1.551   0.011  0.00  0.00    +0.035 C 
ATOM     26  C   UNL     1       0.002  -0.004   0.002  0.00  0.00    +0.166 C 
ATOM     27  S   UNL     1       1.390  -0.329   1.169  0.00  0.00    -0.030 S 
ATOM     28  O   UNL     1       0.865  -0.484   2.480  0.00  0.00    -0.174 OA
ATOM     29  O   UNL     1       2.224  -1.343   0.625  0.00  0.00    -0.174 OA
ATOM     30  C   UNL     1       2.263   1.286   1.061  0.00  0.00    +0.177 C 
ENDBRANCH  22  24
BRANCH  23  31
ATOM     31  C   UNL     1       2.546   4.358  -1.826  0.00  0.00    +0.152 C 
BRANCH  31  32
ATOM     32  C   UNL     1       1.469   4.452  -2.875  0.00  0.00    -0.013 C 
ATOM     33  C   UNL     1       1.575   5.324  -3.847  0.00  0.00    +0.005 C 
ENDBRANCH  31  32
ENDBRANCH  23  31
ENDBRANCH  18  19
ENDBRANCH   1  18
TORSDOF 11
