REMARK  Name = ZINC15276040
REMARK  3 active torsions:
REMARK  status: ('A' for Active; 'I' for Inactive)
REMARK    1  A    between atoms: C_1  and  C_2
REMARK    2  A    between atoms: N_10  and  C_13
REMARK    3  A    between atoms: C_13  and  C_14
REMARK                            x       y       z     vdW  Elec       q    Type
REMARK                         _______ _______ _______ _____ _____    ______ ____
ROOT
ATOM      1  C   UNL     1      -0.019   1.526   0.010  0.00  0.00    +0.025 C 
ATOM      2  C   UNL     1       0.002  -0.004   0.002  0.00  0.00    +0.064 C 
ATOM      3  C   UNL     1       0.753  -0.524  -1.242  0.00  0.00    +0.107 C 
ATOM      4  C   UNL     1       1.539  -1.769  -0.742  0.00  0.00    +0.122 C 
ATOM      5  C   UNL     1       2.985  -1.353  -0.898  0.00  0.00    +0.229 C 
ATOM      6  O   UNL     1       3.945  -2.042  -0.627  0.00  0.00    -0.275 OA
ATOM      7  N   UNL     1       3.040  -0.107  -1.383  0.00  0.00    -0.237 N 
ATOM      8  C   UNL     1       1.836   0.462  -1.620  0.00  0.00    +0.227 C 
ATOM      9  O   UNL     1       1.646   1.576  -2.059  0.00  0.00    -0.275 OA
ATOM     10  C   UNL     1       1.178  -1.881   0.744  0.00  0.00    +0.136 C 
ATOM     11  N   UNL     1       0.777  -0.517   1.163  0.00  0.00    -0.296 NA
ATOM     12  C   UNL     1       0.089  -2.891   0.972  0.00  0.00    +0.004 A 
ATOM     13  C   UNL     1      -1.205  -3.008   0.516  0.00  0.00    +0.023 A 
ATOM     14  C   UNL     1      -1.984  -4.081   0.912  0.00  0.00    +0.018 A 
ATOM     15  C   UNL     1      -1.459  -5.035   1.766  0.00  0.00    +0.017 A 
ATOM     16  C   UNL     1      -0.163  -4.921   2.225  0.00  0.00    +0.025 A 
ATOM     17  C   UNL     1       0.628  -3.844   1.831  0.00  0.00    +0.039 A 
ATOM     18  N   UNL     1       1.946  -3.512   2.155  0.00  0.00    -0.283 N 
ATOM     19  C   UNL     1       2.344  -2.372   1.558  0.00  0.00    +0.243 C 
ATOM     20  O   UNL     1       3.431  -1.844   1.657  0.00  0.00    -0.273 OA
ATOM     21 BR   UNL     1      -3.762  -4.244   0.288  0.00  0.00    -0.050 Br
ATOM     22  H   UNL     1       1.581   0.065   1.346  0.00  0.00    +0.123 HD
ATOM     23  H   UNL     1       2.508  -4.041   2.742  0.00  0.00    +0.155 HD
ENDROOT
BRANCH   7  24
ATOM     24  C   UNL     1       4.304   0.586  -1.644  0.00  0.00    +0.151 C 
BRANCH  24  25
ATOM     25  C   UNL     1       4.747   0.308  -3.057  0.00  0.00    -0.030 A 
ATOM     26  C   UNL     1       5.551  -0.783  -3.327  0.00  0.00    +0.005 A 
ATOM     27  C   UNL     1       5.957  -1.038  -4.624  0.00  0.00    +0.000 A 
ATOM     28  C   UNL     1       5.560  -0.201  -5.650  0.00  0.00    +0.000 A 
ATOM     29  C   UNL     1       4.755   0.889  -5.380  0.00  0.00    +0.000 A 
ATOM     30  C   UNL     1       4.345   1.142  -4.084  0.00  0.00    +0.005 A 
ENDBRANCH  24  25
ENDBRANCH   7  24
TORSDOF 2
