REMARK  Name = ZINC36371927
REMARK  14 active torsions:
REMARK  status: ('A' for Active; 'I' for Inactive)
REMARK    1  A    between atoms: C_1  and  C_2
REMARK    2  A    between atoms: C_2  and  C_4
REMARK    3  A    between atoms: C_2  and  C_12
REMARK    4  A    between atoms: C_5  and  C_6
REMARK    5  A    between atoms: C_6  and  C_8
REMARK    6  A    between atoms: C_6  and  C_9
REMARK    7  A    between atoms: C_9  and  C_10
REMARK    8  A    between atoms: C_9  and  C_11
REMARK    9  A    between atoms: C_18  and  C_40
REMARK   10  A    between atoms: C_27  and  O_39
REMARK   11  A    between atoms: C_28  and  C_38
REMARK   12  A    between atoms: C_31  and  O_34
REMARK   13  A    between atoms: O_34  and  C_35
REMARK   14  A    between atoms: C_35  and  C_37
REMARK                            x       y       z     vdW  Elec       q    Type
REMARK                         _______ _______ _______ _____ _____    ______ ____
ROOT
ATOM      1  C   UNL     1       1.011  -0.504  -1.029  0.00  0.00    +0.003 C 
ATOM      2  C   UNL     1       1.007  -2.011  -0.702  0.00  0.00    +0.005 C 
ATOM      3  C   UNL     1       0.976  -2.703  -2.088  0.00  0.00    +0.009 C 
ATOM      4  C   UNL     1       0.040  -1.779  -2.898  0.00  0.00    +0.022 C 
ATOM      5  C   UNL     1       0.424  -0.356  -2.449  0.00  0.00    -0.016 C 
ATOM      6  C   UNL     1       1.510   0.231  -3.353  0.00  0.00    +0.082 C 
ATOM      7  C   UNL     1       1.008   0.342  -4.776  0.00  0.00    +0.142 C 
ATOM      8  O   UNL     1       1.347   1.248  -5.498  0.00  0.00    -0.297 OA
ATOM      9  C   UNL     1       0.059  -0.737  -5.249  0.00  0.00    +0.090 C 
ATOM     10  C   UNL     1       0.296  -1.961  -4.376  0.00  0.00    -0.059 C 
ATOM     11  C   UNL     1       0.727  -3.100  -4.820  0.00  0.00    -0.024 C 
ATOM     12  C   UNL     1       1.056  -3.356  -6.260  0.00  0.00    +0.062 C 
ATOM     13  C   UNL     1       1.392  -2.024  -6.949  0.00  0.00    +0.079 C 
ATOM     14  C   UNL     1       0.257  -1.040  -6.724  0.00  0.00    +0.010 C 
ATOM     15  C   UNL     1       0.510   0.271  -7.474  0.00  0.00    +0.014 C 
ATOM     16  C   UNL     1       0.716  -0.010  -8.962  0.00  0.00    +0.045 C 
ATOM     17  C   UNL     1       1.930  -0.926  -9.135  0.00  0.00    +0.179 C 
ATOM     18  C   UNL     1       1.580  -2.292  -8.444  0.00  0.00    +0.080 C 
ATOM     19  C   UNL     1      -1.007  -1.699  -7.281  0.00  0.00    +0.015 C 
ATOM     20  C   UNL     1      -0.811   0.547  -2.424  0.00  0.00    +0.012 C 
ENDROOT
BRANCH   1  22
ATOM     21  C   UNL     1       0.825   0.247   1.347  0.00  0.00    +0.012 C 
ATOM     22  C   UNL     1       0.142   0.253  -0.022  0.00  0.00    +0.012 C 
BRANCH  22  23
ATOM     23  C   UNL     1      -1.203  -0.417   0.085  0.00  0.00    -0.027 C 
ATOM     24  C   UNL     1      -2.299   0.286  -0.055  0.00  0.00    -0.027 C 
BRANCH  24  25
ATOM     25  C   UNL     1      -3.644  -0.384   0.052  0.00  0.00    +0.011 C 
ATOM     26  C   UNL     1      -4.411  -0.202  -1.260  0.00  0.00    +0.012 C 
BRANCH  25  27
ATOM     27  C   UNL     1      -4.438   0.245   1.198  0.00  0.00    -0.011 C 
ATOM     28  C   UNL     1      -5.804  -0.436   1.307  0.00  0.00    +0.008 C 
ATOM     29  C   UNL     1      -3.671   0.062   2.510  0.00  0.00    +0.008 C 
ENDBRANCH  25  27
ENDBRANCH  24  25
ENDBRANCH  22  23
ENDBRANCH   1  22
BRANCH  13  30
ATOM     30  O   UNL     1       2.588  -1.473  -6.395  0.00  0.00    -0.388 OA
ATOM     31  H   UNL     1       3.364  -2.041  -6.491  0.00  0.00    +0.210 HD
ENDBRANCH  13  30
BRANCH  17  32
ATOM     32  O   UNL     1       2.144  -1.179 -10.525  0.00  0.00    -0.461 OA
BRANCH  32  33
ATOM     33  C   UNL     1       2.948  -0.329 -11.183  0.00  0.00    +0.304 C 
ATOM     34  O   UNL     1       3.454   0.599 -10.598  0.00  0.00    -0.251 OA
ATOM     35  C   UNL     1       3.220  -0.533 -12.651  0.00  0.00    +0.136 C 
ENDBRANCH  32  33
ENDBRANCH  17  32
TORSDOF 7
