REMARK  Name = ZINC38685141
REMARK  12 active torsions:
REMARK  status: ('A' for Active; 'I' for Inactive)
REMARK    1  A    between atoms: C_1  and  C_2
REMARK    2  A    between atoms: C_2  and  C_3
REMARK    3  A    between atoms: C_3  and  C_4
REMARK    4  A    between atoms: C_4  and  O_5
REMARK    5  A    between atoms: O_5  and  C_6
REMARK    6  A    between atoms: C_10  and  C_12
REMARK    7  A    between atoms: C_17  and  O_26
REMARK    8  A    between atoms: C_21  and  N_25
REMARK    9  A    between atoms: C_22  and  C_23
REMARK   10  A    between atoms: O_26  and  C_27
REMARK   11  A    between atoms: C_27  and  C_29
REMARK   12  A    between atoms: C_34  and  N_35
REMARK                            x       y       z     vdW  Elec       q    Type
REMARK                         _______ _______ _______ _____ _____    ______ ____
ROOT
ATOM      1  C   UNL     1      -5.984  -6.473  -0.084  0.00  0.00    +0.098 C 
ATOM      2  C   UNL     1      -6.118  -7.316   1.157  0.00  0.00    +0.008 A 
ATOM      3  C   UNL     1      -6.266  -6.699   2.386  0.00  0.00    +0.012 A 
ATOM      4  C   UNL     1      -6.391  -7.456   3.534  0.00  0.00    +0.047 A 
ATOM      5  C   UNL     1      -6.368  -8.842   3.457  0.00  0.00    +0.135 A 
ATOM      6  C   UNL     1      -6.220  -9.463   2.228  0.00  0.00    +0.093 A 
ATOM      7  C   UNL     1      -6.094  -8.700   1.074  0.00  0.00    +0.138 A 
ATOM      8  O   UNL     1      -5.949  -9.323  -0.121  0.00  0.00    -0.441 OA
ATOM      9  C   UNL     1      -6.211  -8.658  -1.259  0.00  0.00    +0.199 C 
ATOM     10  C   UNL     1      -6.242  -7.308  -1.306  0.00  0.00    +0.098 C 
ENDROOT
BRANCH   1  15
ATOM     11  C   UNL     1      -3.119  -4.013  -0.222  0.00  0.00    +0.121 A 
ATOM     12  C   UNL     1      -2.026  -4.867  -0.279  0.00  0.00    +0.045 A 
ATOM     13  C   UNL     1      -2.219  -6.235  -0.273  0.00  0.00    +0.004 A 
ATOM     14  C   UNL     1      -3.500  -6.753  -0.209  0.00  0.00    +0.005 A 
ATOM     15  C   UNL     1      -4.590  -5.905  -0.152  0.00  0.00    -0.031 A 
ATOM     16  C   UNL     1      -4.402  -4.536  -0.153  0.00  0.00    +0.050 A 
BRANCH  11  17
ATOM     17  O   UNL     1      -2.931  -2.667  -0.227  0.00  0.00    -0.492 OA
BRANCH  17  18
ATOM     18  C   UNL     1      -1.583  -2.200  -0.300  0.00  0.00    +0.229 C 
BRANCH  18  19
ATOM     19  C   UNL     1      -1.572  -0.670  -0.295  0.00  0.00    +0.041 C 
BRANCH  19  21
ATOM     20  C   UNL     1      -0.117   1.360  -0.368  0.00  0.00    +0.004 C 
ATOM     21  C   UNL     1      -0.128  -0.170  -0.373  0.00  0.00    -0.000 C 
ENDBRANCH  19  21
ENDBRANCH  18  19
ENDBRANCH  17  18
ENDBRANCH  11  17
ENDBRANCH   1  15
BRANCH   9  22
ATOM     22  N   UNL     1      -6.454  -9.372  -2.406  0.00  0.00    -0.328 N 
ATOM     23  H   UNL     1      -6.434 -10.342  -2.388  0.00  0.00    +0.145 HD
ATOM     24  H   UNL     1      -6.644  -8.907  -3.236  0.00  0.00    +0.145 HD
ENDBRANCH   9  22
BRANCH  10  25
ATOM     25  C   UNL     1      -6.527  -6.660  -2.551  0.00  0.00    +0.101 C 
ATOM     26  N   UNL     1      -6.753  -6.147  -3.539  0.00  0.00    -0.191 NA
ENDBRANCH  10  25
BRANCH   5  27
ATOM     27  O   UNL     1      -6.490  -9.588   4.587  0.00  0.00    -0.422 OA
BRANCH  27  28
ATOM     28  C   UNL     1      -7.662  -9.546   5.248  0.00  0.00    +0.347 C 
ATOM     29  O   UNL     1      -8.601  -8.932   4.783  0.00  0.00    -0.244 OA
BRANCH  28  30
ATOM     30  C   UNL     1      -7.807 -10.248   6.540  0.00  0.00    +0.089 A 
ATOM     31  C   UNL     1      -7.518 -11.611   6.634  0.00  0.00    +0.017 A 
ATOM     32  C   UNL     1      -7.655 -12.261   7.843  0.00  0.00    +0.001 A 
ATOM     33  C   UNL     1      -8.078 -11.565   8.962  0.00  0.00    +0.002 A 
ATOM     34  C   UNL     1      -8.366 -10.214   8.876  0.00  0.00    +0.033 A 
ATOM     35  C   UNL     1      -8.227  -9.551   7.674  0.00  0.00    +0.140 A 
BRANCH  35  36
ATOM     36  N   UNL     1      -8.530  -8.105   7.586  0.00  0.00    +0.057 N 
ATOM     37  O   UNL     1      -9.014  -7.529   8.532  0.00  0.00    -0.126 OA
ATOM     38  O   UNL     1      -8.293  -7.499   6.567  0.00  0.00    -0.126 OA
ENDBRANCH  35  36
ENDBRANCH  28  30
ENDBRANCH  27  28
ENDBRANCH   5  27
TORSDOF 11
