REMARK  Name = ZINC35885906
REMARK  6 active torsions:
REMARK  status: ('A' for Active; 'I' for Inactive)
REMARK    1  A    between atoms: C_1  and  C_2
REMARK    2  A    between atoms: C_2  and  C_3
REMARK    3  A    between atoms: C_3  and  C_5
REMARK    4  A    between atoms: C_3  and  C_11
REMARK    5  A    between atoms: N_13  and  C_14
REMARK    6  A    between atoms: N_21  and  C_26
REMARK                            x       y       z     vdW  Elec       q    Type
REMARK                         _______ _______ _______ _____ _____    ______ ____
ROOT
ATOM      1  C   UNL     1      -0.707  -3.992  -1.510  0.00  0.00    +0.034 A 
ATOM      2  C   UNL     1       0.414  -4.813  -1.523  0.00  0.00    +0.027 A 
ATOM      3  C   UNL     1       0.256  -6.160  -1.717  0.00  0.00    +0.048 A 
ATOM      4  C   UNL     1      -1.022  -6.747  -1.887  0.00  0.00    +0.126 A 
ATOM      5  C   UNL     1      -2.105  -5.950  -1.825  0.00  0.00    +0.013 A 
ATOM      6  C   UNL     1      -1.953  -4.565  -1.661  0.00  0.00    +0.032 A 
ATOM      7  C   UNL     1      -3.541  -6.379  -1.840  0.00  0.00    +0.147 C 
ATOM      8  N   UNL     1      -3.846  -7.770  -1.870  0.00  0.00    -0.291 N 
ATOM      9  C   UNL     1      -3.128  -8.817  -1.841  0.00  0.00    +0.254 C 
ATOM     10  O   UNL     1      -3.731  -9.828  -2.136  0.00  0.00    -0.272 OA
ATOM     11  C   UNL     1      -1.685  -9.054  -1.514  0.00  0.00    +0.324 C 
ATOM     12  O   UNL     1      -0.869  -8.081  -2.136  0.00  0.00    -0.482 OA
ENDROOT
BRANCH   8  13
ATOM     13  C   UNL     1      -5.282  -8.049  -1.951  0.00  0.00    +0.077 C 
ATOM     14  C   UNL     1      -5.825  -7.546  -3.291  0.00  0.00    +0.022 C 
ATOM     15  C   UNL     1      -7.324  -7.839  -3.375  0.00  0.00    +0.002 C 
ATOM     16  C   UNL     1      -8.048  -7.125  -2.232  0.00  0.00    +0.000 C 
ATOM     17  C   UNL     1      -7.505  -7.628  -0.892  0.00  0.00    +0.002 C 
ATOM     18  C   UNL     1      -6.006  -7.336  -0.808  0.00  0.00    +0.022 C 
ENDBRANCH   8  13
BRANCH   1  21
ATOM     19  C   UNL     1       0.486  -1.963  -1.869  0.00  0.00    +0.225 C 
ATOM     20  O   UNL     1       1.366  -2.591  -2.419  0.00  0.00    -0.275 OA
ATOM     21  N   UNL     1      -0.574  -2.607  -1.342  0.00  0.00    -0.285 N 
ATOM     22  H   UNL     1      -1.245  -2.112  -0.847  0.00  0.00    +0.155 HD
BRANCH  19  23
ATOM     23  C   UNL     1       0.578  -0.461  -1.777  0.00  0.00    +0.105 C 
BRANCH  23  24
ATOM     24  C   UNL     1       1.849   0.006  -2.438  0.00  0.00    -0.036 A 
ATOM     25  C   UNL     1       3.073  -0.437  -1.974  0.00  0.00    +0.004 A 
ATOM     26  C   UNL     1       4.239  -0.009  -2.580  0.00  0.00    +0.000 A 
ATOM     27  C   UNL     1       4.180   0.863  -3.651  0.00  0.00    +0.000 A 
ATOM     28  C   UNL     1       2.956   1.306  -4.116  0.00  0.00    +0.000 A 
ATOM     29  C   UNL     1       1.790   0.874  -3.512  0.00  0.00    +0.004 A 
ENDBRANCH  23  24
BRANCH  23  31
ATOM     30  C   UNL     1       0.551   1.486  -0.212  0.00  0.00    +0.005 C 
ATOM     31  C   UNL     1       0.584  -0.041  -0.306  0.00  0.00    +0.014 C 
ENDBRANCH  23  31
ENDBRANCH  19  23
ENDBRANCH   1  21
TORSDOF 5
