REMARK  Name = ZINC00504621
REMARK  6 active torsions:
REMARK  status: ('A' for Active; 'I' for Inactive)
REMARK    1  A    between atoms: C_1  and  C_2
REMARK    2  A    between atoms: C_5  and  C_8
REMARK    3  A    between atoms: C_9  and  C_10
REMARK    4  A    between atoms: N_12  and  N_13
REMARK    5  A    between atoms: C_14  and  C_16
REMARK    6  A    between atoms: C_19  and  N_22
REMARK                            x       y       z     vdW  Elec       q    Type
REMARK                         _______ _______ _______ _____ _____    ______ ____
ROOT
ATOM      1  C   UNL     1       3.635  -4.865  -0.058  0.00  0.00    +0.253 C 
ATOM      2  O   UNL     1       4.677  -4.237  -0.065  0.00  0.00    -0.269 OA
ATOM      3  N   UNL     1       2.455  -4.213  -0.043  0.00  0.00    -0.231 N 
ATOM      4  H   UNL     1       1.624  -4.714  -0.037  0.00  0.00    +0.173 HD
ENDROOT
BRANCH   3   5
ATOM      5  N   UNL     1       2.429  -2.812  -0.036  0.00  0.00    -0.230 N 
ATOM      6  C   UNL     1       1.250  -2.160  -0.021  0.00  0.00    +0.260 C 
ATOM      7  O   UNL     1       0.208  -2.788  -0.014  0.00  0.00    -0.269 OA
ATOM      8  H   UNL     1       3.260  -2.312  -0.041  0.00  0.00    +0.173 HD
BRANCH   6   9
ATOM      9  C   UNL     1       1.222  -0.682  -0.013  0.00  0.00    +0.038 A 
ATOM     10  C   UNL     1       0.002  -0.004   0.002  0.00  0.00    +0.015 A 
ATOM     11  C   UNL     1      -0.017   1.375   0.010  0.00  0.00    +0.033 A 
ATOM     12  C   UNL     1       1.170   2.086   0.002  0.00  0.00    +0.126 A 
ATOM     13  C   UNL     1       2.383   1.420  -0.013  0.00  0.00    +0.033 A 
ATOM     14  C   UNL     1       2.416   0.041  -0.021  0.00  0.00    +0.015 A 
BRANCH  12  15
ATOM     15  N   UNL     1       1.143   3.566   0.010  0.00  0.00    +0.056 N 
ATOM     16  O   UNL     1       0.077   4.155   0.023  0.00  0.00    -0.126 OA
ATOM     17  O   UNL     1       2.186   4.195   0.003  0.00  0.00    -0.126 OA
ENDBRANCH  12  15
ENDBRANCH   6   9
ENDBRANCH   3   5
BRANCH   1  19
ATOM     18  C   UNL     1       4.842  -6.981  -0.080  0.00  0.00    +0.013 C 
ATOM     19  C   UNL     1       3.662  -6.329  -0.065  0.00  0.00    +0.069 C 
BRANCH  18  24
ATOM     20  C   UNL     1       4.949 -12.729  -0.110  0.00  0.00    +0.044 C 
ATOM     21  C   UNL     1       4.921 -11.223  -0.102  0.00  0.00    -0.050 A 
ATOM     22  C   UNL     1       6.108 -10.512  -0.110  0.00  0.00    +0.004 A 
ATOM     23  C   UNL     1       6.091  -9.133  -0.103  0.00  0.00    +0.008 A 
ATOM     24  C   UNL     1       4.869  -8.453  -0.088  0.00  0.00    -0.025 A 
ATOM     25  C   UNL     1       3.674  -9.178  -0.074  0.00  0.00    +0.008 A 
ATOM     26  C   UNL     1       3.708 -10.557  -0.087  0.00  0.00    +0.004 A 
ENDBRANCH  18  24
ENDBRANCH   1  19
TORSDOF 5
