REMARK  Name = ZINC39561014
REMARK  6 active torsions:
REMARK  status: ('A' for Active; 'I' for Inactive)
REMARK    1  A    between atoms: C_6  and  N_7
REMARK    2  A    between atoms: C_8  and  C_10
REMARK    3  A    between atoms: C_10  and  O_11
REMARK    4  A    between atoms: O_11  and  C_12
REMARK    5  A    between atoms: C_12  and  C_14
REMARK    6  A    between atoms: C_16  and  N_22
REMARK                            x       y       z     vdW  Elec       q    Type
REMARK                         _______ _______ _______ _____ _____    ______ ____
ROOT
ATOM      1  N   UNL     1      -1.202  -0.721   0.009  0.00  0.00    -0.283 N 
ATOM      2  C   UNL     1      -2.326  -0.154  -0.471  0.00  0.00    +0.255 C 
ATOM      3  O   UNL     1      -2.279   0.941  -0.991  0.00  0.00    -0.272 OA
ATOM      4  H   UNL     1      -1.225  -1.626   0.356  0.00  0.00    +0.155 HD
ENDROOT
BRANCH   1  10
ATOM      5  C   UNL     1      -0.013   1.373   0.194  0.00  0.00    +0.027 A 
ATOM      6  C   UNL     1       1.173   2.085   0.192  0.00  0.00    +0.051 A 
ATOM      7  C   UNL     1       2.375   1.427   0.004  0.00  0.00    +0.167 A 
ATOM      8  C   UNL     1       2.392   0.045  -0.183  0.00  0.00    +0.169 A 
ATOM      9  C   UNL     1       1.206  -0.666  -0.181  0.00  0.00    +0.073 A 
ATOM     10  C   UNL     1       0.001  -0.002   0.007  0.00  0.00    +0.037 A 
ATOM     11  O   UNL     1       3.694  -0.352  -0.343  0.00  0.00    -0.447 OA
ATOM     12  C   UNL     1       4.372   0.847  -0.743  0.00  0.00    +0.254 C 
ATOM     13  O   UNL     1       3.668   1.882  -0.041  0.00  0.00    -0.448 OA
ATOM     14  C   UNL     1       4.293   1.052  -2.259  0.00  0.00    +0.093 C 
ATOM     15  C   UNL     1       5.652   1.707  -2.620  0.00  0.00    +0.008 C 
ATOM     16  C   UNL     1       6.644   0.989  -1.669  0.00  0.00    +0.008 C 
ATOM     17  C   UNL     1       5.850   0.812  -0.355  0.00  0.00    +0.093 C 
ENDBRANCH   1  10
BRANCH   2  18
ATOM     18  C   UNL     1      -3.642  -0.879  -0.360  0.00  0.00    +0.328 C 
BRANCH  18  19
ATOM     19  O   UNL     1      -4.677  -0.080  -0.936  0.00  0.00    -0.451 OA
BRANCH  19  20
ATOM     20  C   UNL     1      -5.924  -0.588  -0.919  0.00  0.00    +0.360 C 
ATOM     21  O   UNL     1      -6.128  -1.680  -0.428  0.00  0.00    -0.243 OA
BRANCH  20  22
ATOM     22  C   UNL     1      -7.046   0.184  -1.497  0.00  0.00    +0.169 A 
ATOM     23  C   UNL     1      -8.334  -0.345  -1.470  0.00  0.00    +0.095 A 
ATOM     24  C   UNL     1      -9.380   0.396  -2.019  0.00  0.00    +0.067 A 
ATOM     25  C   UNL     1      -9.090   1.641  -2.575  0.00  0.00    +0.100 A 
ATOM     26  C   UNL     1      -7.782   2.099  -2.563  0.00  0.00    +0.150 A 
ATOM     27  N   UNL     1      -6.816   1.379  -2.033  0.00  0.00    -0.226 NA
ATOM     28 CL   UNL     1      -7.413   3.649  -3.253  0.00  0.00    -0.060 Cl
ATOM     29 CL   UNL     1     -10.352   2.606  -3.273  0.00  0.00    -0.078 Cl
ATOM     30 CL   UNL     1      -8.632  -1.903  -0.764  0.00  0.00    -0.079 Cl
BRANCH  24  31
ATOM     31  N   UNL     1     -10.684  -0.097  -2.014  0.00  0.00    -0.356 N 
ATOM     32  H   UNL     1     -10.873  -0.965  -1.625  0.00  0.00    +0.142 HD
ATOM     33  H   UNL     1     -11.403   0.428  -2.399  0.00  0.00    +0.142 HD
ENDBRANCH  24  31
ENDBRANCH  20  22
ENDBRANCH  19  20
ENDBRANCH  18  19
ENDBRANCH   2  18
TORSDOF 6
