REMARK  Name = ZINC09330103
REMARK  4 active torsions:
REMARK  status: ('A' for Active; 'I' for Inactive)
REMARK    1  A    between atoms: C_6  and  N_11
REMARK    2  A    between atoms: C_26  and  C_32
REMARK    3  A    between atoms: C_32  and  C_34
REMARK    4  A    between atoms: C_38  and  N_40
REMARK                            x       y       z     vdW  Elec       q    Type
REMARK                         _______ _______ _______ _____ _____    ______ ____
ROOT
ATOM      1  N   UNL     1       0.958   2.199  -3.585  0.00  0.00    -0.210 N 
ATOM      2  C   UNL     1       2.061   1.392  -3.424  0.00  0.00    +0.232 C 
ATOM      3  O   UNL     1       2.829   1.004  -4.277  0.00  0.00    -0.274 OA
ATOM      4  C   UNL     1       2.098   1.113  -2.006  0.00  0.00    +0.113 C 
ATOM      5  C   UNL     1       3.007   0.583  -0.981  0.00  0.00    +0.100 C 
ATOM      6  C   UNL     1       2.951  -0.928  -0.845  0.00  0.00    -0.021 A 
ATOM      7  C   UNL     1       2.800  -1.726  -1.954  0.00  0.00    +0.006 A 
ATOM      8  C   UNL     1       2.766  -3.104  -1.813  0.00  0.00    +0.000 A 
ATOM      9  C   UNL     1       2.884  -3.678  -0.559  0.00  0.00    +0.001 A 
ATOM     10  C   UNL     1       3.031  -2.886   0.560  0.00  0.00    +0.008 A 
ATOM     11  C   UNL     1       3.059  -1.494   0.427  0.00  0.00    -0.019 A 
ATOM     12  C   UNL     1       3.192  -0.645   1.628  0.00  0.00    +0.022 C 
ATOM     13  C   UNL     1       2.873   0.664   1.541  0.00  0.00    +0.054 C 
ATOM     14  C   UNL     1       1.280   1.980   0.001  0.00  0.00    +0.141 C 
ATOM     15  C   UNL     1       1.599   2.481  -1.404  0.00  0.00    +0.116 C 
ATOM     16  C   UNL     1       0.513   2.723  -2.404  0.00  0.00    +0.232 C 
ATOM     17  O   UNL     1      -0.548   3.274  -2.206  0.00  0.00    -0.274 OA
ATOM     18  N   UNL     1       2.645   1.345   0.202  0.00  0.00    -0.384 NA
ATOM     19  H   UNL     1       3.305   2.131   0.212  0.00  0.00    +0.127 HD
ENDROOT
BRANCH   1  25
ATOM     20  C   UNL     1      -2.499   4.006  -8.604  0.00  0.00    +0.001 A 
ATOM     21  C   UNL     1      -3.028   4.588  -7.453  0.00  0.00    +0.001 A 
ATOM     22  C   UNL     1      -2.469   4.360  -6.234  0.00  0.00    +0.008 A 
ATOM     23  C   UNL     1      -1.341   3.528  -6.130  0.00  0.00    -0.016 A 
ATOM     24  C   UNL     1      -0.741   3.266  -4.887  0.00  0.00    +0.032 A 
ATOM     25  C   UNL     1       0.357   2.455  -4.825  0.00  0.00    +0.044 A 
ATOM     26  C   UNL     1       0.885   1.873  -5.982  0.00  0.00    +0.024 A 
ATOM     27  C   UNL     1       0.324   2.102  -7.199  0.00  0.00    +0.010 A 
ATOM     28  C   UNL     1      -0.804   2.936  -7.301  0.00  0.00    -0.018 A 
ATOM     29  C   UNL     1      -1.409   3.194  -8.542  0.00  0.00    +0.008 A 
ENDBRANCH   1  25
BRANCH  14  30
ATOM     30  C   UNL     1      -0.014   1.208   0.009  0.00  0.00    +0.183 C 
ATOM     31  O   UNL     1       0.002  -0.004   0.002  0.00  0.00    -0.290 OA
BRANCH  30  32
ATOM     32  C   UNL     1      -1.299   1.927   0.019  0.00  0.00    +0.021 A 
ATOM     33  C   UNL     1      -1.322   3.325   0.032  0.00  0.00    +0.011 A 
ATOM     34  C   UNL     1      -2.529   3.991   0.036  0.00  0.00    +0.003 A 
ATOM     35  C   UNL     1      -3.716   3.279   0.038  0.00  0.00    +0.033 A 
ATOM     36  C   UNL     1      -3.702   1.895   0.030  0.00  0.00    +0.127 A 
ATOM     37  C   UNL     1      -2.502   1.215   0.021  0.00  0.00    +0.044 A 
BRANCH  36  38
ATOM     38  N   UNL     1      -4.977   1.144   0.032  0.00  0.00    +0.056 N 
ATOM     39  O   UNL     1      -4.966  -0.074   0.025  0.00  0.00    -0.126 OA
ATOM     40  O   UNL     1      -6.037   1.743   0.041  0.00  0.00    -0.126 OA
ENDBRANCH  36  38
ENDBRANCH  30  32
ENDBRANCH  14  30
TORSDOF 4
