REMARK  Name = ZINC33144187
REMARK  12 active torsions:
REMARK  status: ('A' for Active; 'I' for Inactive)
REMARK    1  A    between atoms: C_1  and  O_2
REMARK    2  A    between atoms: O_2  and  C_3
REMARK    3  A    between atoms: C_5  and  C_32
REMARK    4  A    between atoms: C_8  and  O_9
REMARK    5  A    between atoms: O_9  and  C_10
REMARK    6  A    between atoms: C_10  and  C_11
REMARK    7  A    between atoms: N_13  and  C_14
REMARK    8  A    between atoms: C_15  and  C_30
REMARK    9  A    between atoms: N_18  and  C_19
REMARK   10  A    between atoms: C_19  and  C_20
REMARK   11  A    between atoms: C_32  and  O_34
REMARK   12  A    between atoms: O_34  and  C_35
REMARK                            x       y       z     vdW  Elec       q    Type
REMARK                         _______ _______ _______ _____ _____    ______ ____
ROOT
ATOM      1  C   UNL     1       0.571  -6.452   1.538  0.00  0.00    +0.256 C 
ATOM      2  O   UNL     1       1.053  -7.169   2.390  0.00  0.00    -0.272 OA
ATOM      3  N   UNL     1       1.276  -6.158   0.428  0.00  0.00    -0.268 N 
ATOM      4  H   UNL     1       0.894  -5.576  -0.249  0.00  0.00    +0.156 HD
ENDROOT
BRANCH   3   5
ATOM      5  C   UNL     1       2.546  -6.686   0.252  0.00  0.00    +0.123 A 
ATOM      6  C   UNL     1       2.865  -8.036   0.165  0.00  0.00    +0.095 A 
ATOM      7  C   UNL     1       4.314  -8.091  -0.017  0.00  0.00    -0.007 A 
ATOM      8  C   UNL     1       4.760  -6.820  -0.026  0.00  0.00    +0.025 A 
ATOM      9  N   UNL     1       3.698  -5.974   0.129  0.00  0.00    -0.329 N 
ATOM     10  C   UNL     1       6.214  -6.444  -0.190  0.00  0.00    +0.054 C 
ATOM     11  C   UNL     1       7.071  -7.684   0.086  0.00  0.00    +0.006 C 
ATOM     12  C   UNL     1       6.542  -8.865  -0.734  0.00  0.00    +0.005 C 
ATOM     13  C   UNL     1       5.186  -9.309  -0.170  0.00  0.00    +0.038 C 
BRANCH   6  14
ATOM     14  C   UNL     1       1.961  -9.144   0.237  0.00  0.00    +0.103 C 
ATOM     15  N   UNL     1       1.244 -10.023   0.295  0.00  0.00    -0.191 NA
ENDBRANCH   6  14
BRANCH   9  16
ATOM     16  C   UNL     1       3.788  -4.512   0.162  0.00  0.00    +0.154 C 
BRANCH  16  17
ATOM     17  C   UNL     1       3.846  -4.038   1.616  0.00  0.00    +0.138 C 
ATOM     18  C   UNL     1       3.819  -2.495   1.664  0.00  0.00    +0.035 C 
ATOM     19  C   UNL     1       4.825  -2.184   2.806  0.00  0.00    +0.031 C 
ATOM     20  C   UNL     1       5.851  -3.329   2.615  0.00  0.00    +0.160 C 
ATOM     21  O   UNL     1       5.070  -4.471   2.220  0.00  0.00    -0.375 OA
ENDBRANCH  16  17
ENDBRANCH   9  16
ENDBRANCH   3   5
BRANCH   1  22
ATOM     22  C   UNL     1      -0.816  -5.892   1.721  0.00  0.00    +0.325 C 
BRANCH  22  23
ATOM     23  O   UNL     1      -1.352  -6.344   2.966  0.00  0.00    -0.479 OA
BRANCH  23  29
ATOM     24  C   UNL     1      -3.186  -6.331   4.487  0.00  0.00    +0.162 A 
ATOM     25  C   UNL     1      -4.457  -5.902   4.817  0.00  0.00    +0.064 A 
ATOM     26  C   UNL     1      -5.158  -5.067   3.943  0.00  0.00    +0.063 A 
ATOM     27  C   UNL     1      -4.571  -4.670   2.738  0.00  0.00    +0.019 A 
ATOM     28  C   UNL     1      -3.303  -5.102   2.415  0.00  0.00    +0.050 A 
ATOM     29  C   UNL     1      -2.603  -5.926   3.287  0.00  0.00    +0.163 A 
BRANCH  24  31
ATOM     30  C   UNL     1      -3.158  -7.518   6.548  0.00  0.00    +0.277 C 
ATOM     31  O   UNL     1      -2.500  -7.143   5.336  0.00  0.00    -0.491 OA
ENDBRANCH  24  31
BRANCH  26  32
ATOM     32  C   UNL     1      -6.516  -4.607   4.290  0.00  0.00    +0.339 C 
ATOM     33  O   UNL     1      -7.025  -4.953   5.337  0.00  0.00    -0.245 OA
BRANCH  32  34
ATOM     34  O   UNL     1      -7.191  -3.803   3.446  0.00  0.00    -0.464 OA
ATOM     35  C   UNL     1      -8.501  -3.395   3.846  0.00  0.00    +0.280 C 
ENDBRANCH  32  34
ENDBRANCH  26  32
ENDBRANCH  23  29
ENDBRANCH  22  23
ENDBRANCH   1  22
TORSDOF 10
