REMARK  Name = ZINC04309341
REMARK  1 active torsions:
REMARK  status: ('A' for Active; 'I' for Inactive)
REMARK    1  A    between atoms: C_18  and  C_21
REMARK                            x       y       z     vdW  Elec       q    Type
REMARK                         _______ _______ _______ _____ _____    ______ ____
ROOT
ATOM      1  C   UNL     1      -3.720  -0.378  -5.125  0.00  0.00    +0.001 A 
ATOM      2  C   UNL     1      -2.897  -0.664  -4.037  0.00  0.00    +0.001 A 
ATOM      3  C   UNL     1      -2.725   0.244  -3.034  0.00  0.00    +0.009 A 
ATOM      4  C   UNL     1      -3.343   1.500  -3.116  0.00  0.00    -0.008 A 
ATOM      5  C   UNL     1      -4.274   1.740  -4.161  0.00  0.00    -0.017 A 
ATOM      6  C   UNL     1      -4.411   0.793  -5.192  0.00  0.00    +0.008 A 
ATOM      7  C   UNL     1      -5.046   2.916  -4.157  0.00  0.00    +0.010 A 
ATOM      8  C   UNL     1      -4.917   3.812  -3.142  0.00  0.00    +0.024 A 
ATOM      9  C   UNL     1      -3.961   3.623  -2.140  0.00  0.00    +0.036 A 
ATOM     10  C   UNL     1      -3.108   2.522  -2.172  0.00  0.00    +0.014 A 
ATOM     11  C   UNL     1      -2.025   2.444  -1.171  0.00  0.00    +0.028 C 
ATOM     12  C   UNL     1      -2.121   3.176  -0.039  0.00  0.00    -0.034 C 
ATOM     13  C   UNL     1      -1.085   2.964   1.038  0.00  0.00    +0.034 C 
ATOM     14  C   UNL     1      -0.771   1.470   1.127  0.00  0.00    +0.012 C 
ATOM     15  C   UNL     1      -0.122   0.997  -0.175  0.00  0.00    +0.080 C 
ATOM     16  C   UNL     1      -0.852   1.579  -1.362  0.00  0.00    +0.164 C 
ATOM     17  O   UNL     1      -0.448   1.352  -2.494  0.00  0.00    -0.292 OA
ATOM     18  C   UNL     1      -3.244   4.150   0.183  0.00  0.00    +0.129 C 
ATOM     19  N   UNL     1      -3.894   4.519  -1.073  0.00  0.00    -0.333 N 
ATOM     20  H   UNL     1      -4.285   5.412  -1.174  0.00  0.00    +0.147 HD
ENDROOT
BRANCH  18  21
ATOM     21  C   UNL     1      -4.264   3.540   1.109  0.00  0.00    -0.009 A 
ATOM     22  C   UNL     1      -4.303   2.170   1.290  0.00  0.00    +0.007 A 
ATOM     23  C   UNL     1      -5.238   1.611   2.140  0.00  0.00    +0.000 A 
ATOM     24  C   UNL     1      -6.135   2.421   2.811  0.00  0.00    +0.001 A 
ATOM     25  C   UNL     1      -6.097   3.791   2.631  0.00  0.00    +0.015 A 
ATOM     26  C   UNL     1      -5.158   4.351   1.784  0.00  0.00    +0.023 A 
ATOM     27 BR   UNL     1      -5.101   6.226   1.543  0.00  0.00    -0.050 Br
ENDBRANCH  18  21
TORSDOF 1
