REMARK  Name = ZINC24068134
REMARK  11 active torsions:
REMARK  status: ('A' for Active; 'I' for Inactive)
REMARK    1  A    between atoms: C_1  and  C_2
REMARK    2  A    between atoms: C_3  and  C_16
REMARK    3  A    between atoms: C_4  and  C_15
REMARK    4  A    between atoms: N_5  and  C_7
REMARK    5  A    between atoms: C_16  and  N_17
REMARK    6  A    between atoms: N_17  and  C_18
REMARK    7  A    between atoms: C_19  and  C_21
REMARK    8  A    between atoms: C_23  and  O_30
REMARK    9  A    between atoms: C_24  and  O_28
REMARK   10  A    between atoms: O_28  and  C_29
REMARK   11  A    between atoms: O_30  and  C_31
REMARK                            x       y       z     vdW  Elec       q    Type
REMARK                         _______ _______ _______ _____ _____    ______ ____
ROOT
ATOM      1  C   UNL     1       2.370   1.300  -0.139  0.00  0.00    +0.146 C 
ENDROOT
BRANCH   1   4
ATOM      2  C   UNL     1       4.348   2.588  -2.253  0.00  0.00    +0.068 C 
ATOM      3  C   UNL     1       3.871   1.159  -2.245  0.00  0.00    +0.065 A 
ATOM      4  C   UNL     1       2.998   0.591  -1.311  0.00  0.00    +0.013 A 
ATOM      5  C   UNL     1       2.812  -0.706  -1.650  0.00  0.00    +0.041 A 
ATOM      6  N   UNL     1       3.546  -0.951  -2.756  0.00  0.00    -0.263 N 
ATOM      7  N   UNL     1       4.205   0.234  -3.108  0.00  0.00    -0.176 NA
ATOM      8  C   UNL     1       1.940  -1.698  -0.924  0.00  0.00    +0.065 C 
BRANCH   6   9
ATOM      9  C   UNL     1       3.637  -2.231  -3.463  0.00  0.00    +0.130 C 
ATOM     10  C   UNL     1       5.099  -2.708  -3.469  0.00  0.00    +0.051 C 
ATOM     11  C   UNL     1       5.220  -3.885  -4.479  0.00  0.00    +0.168 C 
ATOM     12  S   UNL     1       4.155  -3.264  -5.849  0.00  0.00    -0.029 S 
ATOM     13  O   UNL     1       4.965  -2.564  -6.783  0.00  0.00    -0.174 OA
ATOM     14  O   UNL     1       3.321  -4.322  -6.301  0.00  0.00    -0.174 OA
ATOM     15  C   UNL     1       3.134  -2.052  -4.916  0.00  0.00    +0.192 C 
ENDBRANCH   6   9
ENDBRANCH   1   4
BRANCH   1  16
ATOM     16  N   UNL     1       1.051   1.807  -0.524  0.00  0.00    -0.296 N 
ATOM     17  C   UNL     1       0.934   3.095  -1.211  0.00  0.00    +0.132 C 
ATOM     18  C   UNL     1      -0.055   1.088  -0.246  0.00  0.00    +0.247 C 
ATOM     19  O   UNL     1       0.047  -0.017   0.251  0.00  0.00    -0.270 OA
BRANCH  18  20
ATOM     20  C   UNL     1      -1.390   1.640  -0.550  0.00  0.00    +0.042 A 
ATOM     21  C   UNL     1      -2.479   0.782  -0.725  0.00  0.00    +0.062 A 
ATOM     22  C   UNL     1      -3.726   1.303  -1.009  0.00  0.00    +0.164 A 
ATOM     23  C   UNL     1      -3.897   2.682  -1.121  0.00  0.00    +0.180 A 
ATOM     24  C   UNL     1      -2.815   3.535  -0.946  0.00  0.00    +0.087 A 
ATOM     25  C   UNL     1      -1.568   3.021  -0.657  0.00  0.00    +0.037 A 
ATOM     26 CL   UNL     1      -3.034   5.252  -1.086  0.00  0.00    -0.080 Cl
BRANCH  23  27
ATOM     27  O   UNL     1      -5.124   3.192  -1.400  0.00  0.00    -0.490 OA
ATOM     28  C   UNL     1      -5.966   3.505  -0.288  0.00  0.00    +0.277 C 
ENDBRANCH  23  27
BRANCH  22  29
ATOM     29  O   UNL     1      -4.788   0.470  -1.181  0.00  0.00    -0.491 OA
ATOM     30  C   UNL     1      -4.540  -0.931  -1.054  0.00  0.00    +0.277 C 
ENDBRANCH  22  29
ENDBRANCH  18  20
ENDBRANCH   1  16
TORSDOF 6
