REMARK  Name = ZINC62923144
REMARK  3 active torsions:
REMARK  status: ('A' for Active; 'I' for Inactive)
REMARK    1  A    between atoms: C_1  and  C_2
REMARK    2  A    between atoms: C_2  and  C_19
REMARK    3  A    between atoms: N_9  and  C_10
REMARK                            x       y       z     vdW  Elec       q    Type
REMARK                         _______ _______ _______ _____ _____    ______ ____
ROOT
ATOM      1  C   UNL     1      -0.049   1.499  -0.006  0.00  0.00    +0.024 C 
ATOM      2  C   UNL     1      -0.018  -0.031  -0.008  0.00  0.00    +0.086 C 
ATOM      3  C   UNL     1       0.768  -0.550  -1.234  0.00  0.00    +0.038 C 
ATOM      4  C   UNL     1       2.179  -0.816  -0.650  0.00  0.00    +0.110 C 
ATOM      5  N   UNL     1       1.893  -1.344   0.704  0.00  0.00    -0.284 N 
ATOM      6  C   UNL     1       0.758  -0.552   1.215  0.00  0.00    +0.127 C 
ATOM      7  C   UNL     1       2.536  -2.344   1.338  0.00  0.00    +0.307 C 
ATOM      8  O   UNL     1       2.192  -2.676   2.456  0.00  0.00    -0.252 OA
ATOM      9  N   UNL     1       3.561  -2.976   0.733  0.00  0.00    -0.268 N 
ATOM     10  H   UNL     1       3.794  -2.756  -0.183  0.00  0.00    +0.156 HD
ENDROOT
BRANCH   9  11
ATOM     11  C   UNL     1       4.290  -3.951   1.426  0.00  0.00    +0.055 A 
ATOM     12  C   UNL     1       3.651  -4.778   2.340  0.00  0.00    +0.046 A 
ATOM     13  C   UNL     1       4.373  -5.739   3.022  0.00  0.00    +0.061 A 
ATOM     14  C   UNL     1       5.732  -5.876   2.797  0.00  0.00    +0.061 A 
ATOM     15  C   UNL     1       6.372  -5.053   1.887  0.00  0.00    +0.043 A 
ATOM     16  C   UNL     1       5.653  -4.095   1.197  0.00  0.00    +0.064 A 
ATOM     17 CL   UNL     1       6.454  -3.067   0.050  0.00  0.00    -0.082 Cl
ATOM     18 CL   UNL     1       6.636  -7.084   3.656  0.00  0.00    -0.082 Cl
ATOM     19 CL   UNL     1       3.575  -6.774   4.165  0.00  0.00    -0.082 Cl
ENDBRANCH   9  11
BRANCH   2  20
ATOM     20  C   UNL     1      -1.421  -0.582  -0.011  0.00  0.00    +0.363 C 
ATOM     21  O   UNL     1      -2.374   0.178  -0.025  0.00  0.00    -0.246 OA
ATOM     22  O   UNL     1      -1.602  -1.788  -0.001  0.00  0.00    -0.246 OA
ENDBRANCH   2  20
TORSDOF 2
