REMARK  Name = ZINC12561467
REMARK  7 active torsions:
REMARK  status: ('A' for Active; 'I' for Inactive)
REMARK    1  A    between atoms: C_1  and  N_2
REMARK    2  A    between atoms: C_3  and  N_36
REMARK    3  A    between atoms: C_4  and  C_22
REMARK    4  A    between atoms: N_7  and  C_8
REMARK    5  A    between atoms: C_8  and  C_16
REMARK    6  A    between atoms: N_9  and  C_10
REMARK    7  A    between atoms: N_28  and  C_29
REMARK                            x       y       z     vdW  Elec       q    Type
REMARK                         _______ _______ _______ _____ _____    ______ ____
ROOT
ATOM      1  C   UNL     1       1.657  -1.528   2.090  0.00  0.00    +0.152 C 
ATOM      2  N   UNL     1       1.684  -0.122   1.679  0.00  0.00    -0.311 N 
ATOM      3  C   UNL     1       0.641   0.692   1.954  0.00  0.00    +0.116 A 
ATOM      4  C   UNL     1       0.717   1.995   1.549  0.00  0.00    +0.098 A 
ATOM      5  S   UNL     1       2.317   2.041   0.761  0.00  0.00    -0.044 S 
ATOM      6  C   UNL     1       2.768   0.385   1.011  0.00  0.00    +0.177 A 
ATOM      7  N   UNL     1       3.883  -0.236   0.647  0.00  0.00    -0.203 NA
ENDROOT
BRANCH   4   8
ATOM      8  C   UNL     1      -0.265   3.073   1.713  0.00  0.00    +0.177 A 
ATOM      9  N   UNL     1      -1.424   2.834   2.335  0.00  0.00    -0.194 NA
ATOM     10  C   UNL     1      -2.310   3.812   2.482  0.00  0.00    +0.217 A 
ATOM     11  N   UNL     1      -2.045   5.028   2.012  0.00  0.00    -0.181 NA
ATOM     12  C   UNL     1      -0.893   5.269   1.393  0.00  0.00    +0.224 A 
ATOM     13  N   UNL     1      -0.000   4.296   1.247  0.00  0.00    -0.194 NA
ATOM     14  N   UNL     1      -0.622   6.533   0.906  0.00  0.00    -0.283 N 
ATOM     15  N   UNL     1      -3.507   3.567   3.125  0.00  0.00    -0.327 N 
ATOM     16  H   UNL     1       0.231   6.717   0.482  0.00  0.00    +0.155 HD
ATOM     17  H   UNL     1      -3.700   2.680   3.468  0.00  0.00    +0.145 HD
ATOM     18  H   UNL     1      -4.154   4.281   3.233  0.00  0.00    +0.145 HD
BRANCH  14  19
ATOM     19  C   UNL     1      -1.577   7.547   1.023  0.00  0.00    +0.034 A 
ATOM     20  C   UNL     1      -2.929   7.244   0.925  0.00  0.00    +0.023 A 
ATOM     21  C   UNL     1      -3.871   8.247   1.047  0.00  0.00    +0.002 A 
ATOM     22  C   UNL     1      -3.468   9.554   1.255  0.00  0.00    +0.000 A 
ATOM     23  C   UNL     1      -2.123   9.860   1.348  0.00  0.00    +0.002 A 
ATOM     24  C   UNL     1      -1.177   8.860   1.232  0.00  0.00    +0.023 A 
ENDBRANCH  14  19
ENDBRANCH   4   8
BRANCH   3  25
ATOM     25  N   UNL     1      -0.471   0.220   2.627  0.00  0.00    -0.343 N 
ATOM     26  H   UNL     1      -1.213   0.816   2.817  0.00  0.00    +0.144 HD
ATOM     27  H   UNL     1      -0.510  -0.708   2.908  0.00  0.00    +0.144 HD
ENDBRANCH   3  25
BRANCH   7  28
ATOM     28  C   UNL     1       4.843   0.437  -0.008  0.00  0.00    +0.163 C 
ATOM     29  N   UNL     1       4.677   1.718  -0.290  0.00  0.00    -0.228 NA
BRANCH  29  30
ATOM     30  C   UNL     1       5.708   2.440  -0.818  0.00  0.00    +0.066 A 
ATOM     31  C   UNL     1       6.926   2.528  -0.135  0.00  0.00    +0.028 A 
ATOM     32  C   UNL     1       7.965   3.254  -0.677  0.00  0.00    +0.002 A 
ATOM     33  C   UNL     1       7.802   3.905  -1.888  0.00  0.00    +0.000 A 
ATOM     34  C   UNL     1       6.598   3.828  -2.566  0.00  0.00    +0.002 A 
ATOM     35  C   UNL     1       5.551   3.100  -2.040  0.00  0.00    +0.028 A 
ENDBRANCH  29  30
BRANCH  28  36
ATOM     36  C   UNL     1       6.088  -0.256  -0.414  0.00  0.00    +0.019 A 
ATOM     37  C   UNL     1       6.698   0.057  -1.628  0.00  0.00    +0.011 A 
ATOM     38  C   UNL     1       7.860  -0.589  -1.999  0.00  0.00    +0.001 A 
ATOM     39  C   UNL     1       8.414  -1.551  -1.173  0.00  0.00    +0.000 A 
ATOM     40  C   UNL     1       7.810  -1.869   0.030  0.00  0.00    +0.001 A 
ATOM     41  C   UNL     1       6.650  -1.227   0.414  0.00  0.00    +0.011 A 
ENDBRANCH  28  36
ENDBRANCH   7  28
TORSDOF 6
