REMARK  Name = ZINC63514590
REMARK  12 active torsions:
REMARK  status: ('A' for Active; 'I' for Inactive)
REMARK    1  A    between atoms: C_1  and  C_2
REMARK    2  A    between atoms: C_4  and  C_20
REMARK    3  A    between atoms: C_7  and  O_12
REMARK    4  A    between atoms: O_12  and  C_13
REMARK    5  A    between atoms: C_13  and  C_14
REMARK    6  A    between atoms: C_20  and  C_21
REMARK    7  A    between atoms: C_21  and  N_22
REMARK    8  A    between atoms: C_23  and  C_25
REMARK    9  A    between atoms: C_31  and  C_33
REMARK   10  A    between atoms: C_33  and  O_35
REMARK   11  A    between atoms: O_35  and  C_36
REMARK   12  A    between atoms: C_36  and  C_37
REMARK                            x       y       z     vdW  Elec       q    Type
REMARK                         _______ _______ _______ _____ _____    ______ ____
ROOT
ATOM      1  C   UNL     1       0.352  -0.269  -2.664  0.00  0.00    +0.052 C 
ENDROOT
BRANCH   1   4
ATOM      2  C   UNL     1      -0.019   1.526   0.010  0.00  0.00    +0.035 C 
ATOM      3  C   UNL     1       0.002  -0.004   0.002  0.00  0.00    +0.103 C 
ATOM      4  C   UNL     1       0.729  -0.509  -1.224  0.00  0.00    -0.037 C 
ATOM      5  C   UNL     1       1.785  -1.220  -0.768  0.00  0.00    +0.003 A 
ATOM      6  C   UNL     1       2.858  -1.954  -1.447  0.00  0.00    +0.055 A 
ATOM      7  C   UNL     1       3.803  -2.586  -0.711  0.00  0.00    +0.122 A 
ATOM      8  C   UNL     1       3.796  -2.567   0.695  0.00  0.00    +0.048 A 
ATOM      9  C   UNL     1       2.851  -1.919   1.409  0.00  0.00    +0.029 A 
ATOM     10  C   UNL     1       1.779  -1.200   0.713  0.00  0.00    +0.043 A 
ATOM     11  N   UNL     1       0.758  -0.506   1.155  0.00  0.00    -0.378 N 
ATOM     12  H   UNL     1       0.540  -0.349   2.087  0.00  0.00    +0.160 HD
BRANCH   7  13
ATOM     13  O   UNL     1       4.792  -3.263  -1.353  0.00  0.00    -0.487 OA
BRANCH  13  14
ATOM     14  C   UNL     1       5.767  -3.915  -0.537  0.00  0.00    +0.264 C 
BRANCH  14  15
ATOM     15  C   UNL     1       6.776  -4.607  -1.417  0.00  0.00    -0.010 A 
ATOM     16  C   UNL     1       6.564  -5.914  -1.815  0.00  0.00    +0.007 A 
ATOM     17  C   UNL     1       7.490  -6.549  -2.622  0.00  0.00    +0.000 A 
ATOM     18  C   UNL     1       8.626  -5.877  -3.032  0.00  0.00    +0.000 A 
ATOM     19  C   UNL     1       8.838  -4.570  -2.634  0.00  0.00    +0.000 A 
ATOM     20  C   UNL     1       7.910  -3.934  -1.831  0.00  0.00    +0.007 A 
ENDBRANCH  14  15
ENDBRANCH  13  14
ENDBRANCH   7  13
ENDBRANCH   1   4
BRANCH   1  21
ATOM     21  C   UNL     1       1.363  -0.963  -3.578  0.00  0.00    +0.108 C 
BRANCH  21  22
ATOM     22  N   UNL     1       0.997  -0.729  -4.977  0.00  0.00    -0.315 N 
ATOM     23  C   UNL     1       1.750  -1.249  -5.967  0.00  0.00    +0.217 C 
ATOM     24  O   UNL     1       2.731  -1.910  -5.699  0.00  0.00    -0.275 OA
ATOM     25  H   UNL     1       0.212  -0.201  -5.192  0.00  0.00    +0.149 HD
BRANCH  23  26
ATOM     26  C   UNL     1       1.373  -1.009  -7.406  0.00  0.00    +0.089 C 
ATOM     27  C   UNL     1       1.376   0.494  -7.690  0.00  0.00    +0.013 C 
ATOM     28  C   UNL     1       0.994   0.738  -9.152  0.00  0.00    +0.001 C 
ATOM     29  C   UNL     1       2.005   0.044 -10.066  0.00  0.00    +0.001 C 
ATOM     30  C   UNL     1       2.002  -1.460  -9.782  0.00  0.00    +0.015 C 
ATOM     31  C   UNL     1       2.385  -1.703  -8.321  0.00  0.00    +0.110 C 
BRANCH  31  32
ATOM     32  C   UNL     1       2.381  -3.184  -8.041  0.00  0.00    +0.311 C 
ATOM     33  O   UNL     1       1.646  -3.638  -7.197  0.00  0.00    -0.251 OA
BRANCH  32  34
ATOM     34  O   UNL     1       3.196  -3.999  -8.730  0.00  0.00    -0.455 OA
BRANCH  34  35
ATOM     35  C   UNL     1       3.140  -5.391  -8.412  0.00  0.00    +0.345 C 
BRANCH  35  36
ATOM     36  C   UNL     1       4.131  -6.155  -9.293  0.00  0.00    +0.424 C 
ATOM     37  F   UNL     1       5.425  -5.675  -9.063  0.00  0.00    -0.167 F 
ATOM     38  F   UNL     1       4.077  -7.518  -8.982  0.00  0.00    -0.167 F 
ATOM     39  F   UNL     1       3.798  -5.970 -10.639  0.00  0.00    -0.167 F 
ENDBRANCH  35  36
ENDBRANCH  34  35
ENDBRANCH  32  34
ENDBRANCH  31  32
ENDBRANCH  23  26
ENDBRANCH  21  22
ENDBRANCH   1  21
TORSDOF 11
