REMARK  Name = ZINC64670832
REMARK  14 active torsions:
REMARK  status: ('A' for Active; 'I' for Inactive)
REMARK    1  A    between atoms: C_1  and  C_2
REMARK    2  A    between atoms: C_3  and  C_31
REMARK    3  A    between atoms: C_5  and  N_11
REMARK    4  A    between atoms: C_7  and  C_9
REMARK    5  A    between atoms: C_12  and  C_14
REMARK    6  A    between atoms: C_14  and  S_15
REMARK    7  A    between atoms: S_15  and  C_16
REMARK    8  A    between atoms: C_19  and  C_30
REMARK    9  A    between atoms: C_20  and  C_22
REMARK   10  A    between atoms: C_22  and  C_23
REMARK   11  A    between atoms: C_26  and  O_29
REMARK   12  A    between atoms: C_31  and  C_32
REMARK   13  A    between atoms: C_32  and  S_33
REMARK   14  A    between atoms: S_33  and  C_34
REMARK                            x       y       z     vdW  Elec       q    Type
REMARK                         _______ _______ _______ _____ _____    ______ ____
ROOT
ATOM      1  S   UNL     1      -5.919   2.345  -6.159  0.00  0.00    -0.080 S 
ENDROOT
BRANCH   1   2
ATOM      2  C   UNL     1      -6.576   3.825  -6.854  0.00  0.00    +0.145 A 
ATOM      3  H   UNL     1      -7.001   3.304  -8.832  0.00  0.00    +0.168 HD
ATOM      4  N   UNL     1      -6.732   4.966  -6.224  0.00  0.00    -0.338 N 
ATOM      5  C   UNL     1      -7.259   5.870  -7.066  0.00  0.00    +0.034 A 
ATOM      6  C   UNL     1      -7.439   5.281  -8.261  0.00  0.00    +0.041 A 
ATOM      7  N   UNL     1      -7.002   3.981  -8.137  0.00  0.00    -0.338 N 
ATOM      8  C   UNL     1      -7.592   7.301  -6.730  0.00  0.00    +0.065 C 
ATOM      9  H   UNL     1      -6.504   5.130  -5.295  0.00  0.00    +0.167 HD
BRANCH   6  10
ATOM     10  C   UNL     1      -8.006   5.922  -9.501  0.00  0.00    +0.090 C 
BRANCH  10  11
ATOM     11  C   UNL     1      -6.907   6.638 -10.244  0.00  0.00    -0.041 A 
ATOM     12  C   UNL     1      -6.630   7.962  -9.959  0.00  0.00    +0.007 A 
ATOM     13  C   UNL     1      -5.623   8.620 -10.638  0.00  0.00    +0.045 A 
ATOM     14  C   UNL     1      -4.890   7.951 -11.607  0.00  0.00    +0.117 A 
ATOM     15  C   UNL     1      -5.170   6.622 -11.891  0.00  0.00    +0.045 A 
ATOM     16  C   UNL     1      -6.174   5.967 -11.205  0.00  0.00    +0.007 A 
BRANCH  14  17
ATOM     17  O   UNL     1      -3.899   8.597 -12.278  0.00  0.00    -0.507 OA
ATOM     18  H   UNL     1      -3.031   8.530 -11.857  0.00  0.00    +0.292 HD
ENDBRANCH  14  17
ENDBRANCH  10  11
ENDBRANCH   6  10
ENDBRANCH   1   2
BRANCH   1  19
ATOM     19  C   UNL     1      -4.657   2.930  -4.994  0.00  0.00    +0.173 C 
BRANCH  19  21
ATOM     20  N   UNL     1      -3.035   1.942  -3.409  0.00  0.00    -0.292 N 
ATOM     21  C   UNL     1      -4.008   1.748  -4.321  0.00  0.00    +0.225 C 
ATOM     22  O   UNL     1      -4.362   0.622  -4.600  0.00  0.00    -0.275 OA
ATOM     23  H   UNL     1      -2.752   2.843  -3.186  0.00  0.00    +0.151 HD
BRANCH  20  28
ATOM     24  C   UNL     1      -0.013   1.086   0.008  0.00  0.00    +0.015 C 
ATOM     25  C   UNL     1      -0.753   1.593  -1.232  0.00  0.00    +0.051 C 
ATOM     26  C   UNL     1      -0.148   1.007  -2.488  0.00  0.00    +0.021 C 
ATOM     27  N   UNL     1      -1.050   0.587  -3.282  0.00  0.00    -0.269 NA
ATOM     28  C   UNL     1      -2.404   0.793  -2.755  0.00  0.00    +0.208 C 
ATOM     29  C   UNL     1      -2.210   1.071  -1.246  0.00  0.00    +0.142 C 
BRANCH  29  30
ATOM     30  C   UNL     1      -2.340  -0.166  -0.458  0.00  0.00    +0.070 C 
ATOM     31  N   UNL     1      -2.440  -1.120   0.151  0.00  0.00    -0.196 NA
ENDBRANCH  29  30
BRANCH  26  32
ATOM     32  C   UNL     1       1.332   0.931  -2.764  0.00  0.00    +0.061 C 
BRANCH  32  33
ATOM     33  C   UNL     1       1.563   0.278  -4.129  0.00  0.00    +0.074 C 
BRANCH  33  34
ATOM     34  S   UNL     1       3.344   0.186  -4.462  0.00  0.00    -0.164 S 
ATOM     35  C   UNL     1       3.445  -0.601  -6.093  0.00  0.00    +0.084 C 
ENDBRANCH  33  34
ENDBRANCH  32  33
ENDBRANCH  26  32
ENDBRANCH  20  28
ENDBRANCH  19  21
ENDBRANCH   1  19
TORSDOF 11
