REMARK  Name = ZINC40688337
REMARK  7 active torsions:
REMARK  status: ('A' for Active; 'I' for Inactive)
REMARK    1  A    between atoms: C_1  and  C_2
REMARK    2  A    between atoms: C_2  and  C_3
REMARK    3  A    between atoms: C_8  and  N_9
REMARK    4  A    between atoms: C_11  and  N_30
REMARK    5  A    between atoms: C_12  and  N_16
REMARK    6  A    between atoms: N_16  and  C_17
REMARK    7  A    between atoms: C_17  and  C_18
REMARK                            x       y       z     vdW  Elec       q    Type
REMARK                         _______ _______ _______ _____ _____    ______ ____
ROOT
ATOM      1  N   UNL     1      -1.329  -0.291  -2.398  0.00  0.00    -0.299 N 
ATOM      2  C   UNL     1      -2.039  -0.516  -3.572  0.00  0.00    +0.126 A 
ATOM      3  C   UNL     1      -1.440  -0.302  -4.816  0.00  0.00    +0.104 A 
ATOM      4  C   UNL     1      -2.198  -0.544  -5.962  0.00  0.00    +0.153 A 
ATOM      5  N   UNL     1      -3.453  -0.966  -5.828  0.00  0.00    -0.220 NA
ATOM      6  C   UNL     1      -3.981  -1.156  -4.636  0.00  0.00    +0.200 A 
ATOM      7  N   UNL     1      -3.298  -0.945  -3.529  0.00  0.00    -0.333 N 
ATOM      8  H   UNL     1      -0.435   0.085  -2.437  0.00  0.00    +0.154 HD
ATOM      9  H   UNL     1      -3.721  -1.100  -2.669  0.00  0.00    +0.168 HD
ENDROOT
BRANCH   4  10
ATOM     10  N   UNL     1      -1.651  -0.346  -7.226  0.00  0.00    -0.264 N 
ATOM     11  C   UNL     1      -1.853   0.859  -7.891  0.00  0.00    +0.127 A 
ATOM     12  C   UNL     1      -2.462   1.919  -7.227  0.00  0.00    +0.044 A 
ATOM     13  C   UNL     1      -2.658   3.111  -7.900  0.00  0.00    +0.005 A 
ATOM     14  C   UNL     1      -2.236   3.204  -9.220  0.00  0.00    +0.020 A 
ATOM     15  C   UNL     1      -1.639   2.112  -9.817  0.00  0.00    +0.113 A 
ATOM     16  N   UNL     1      -1.460   0.988  -9.149  0.00  0.00    -0.240 NA
BRANCH  10  17
ATOM     17  C   UNL     1      -0.860  -1.406  -7.856  0.00  0.00    +0.149 C 
BRANCH  17  18
ATOM     18  C   UNL     1      -1.768  -2.296  -8.665  0.00  0.00    -0.030 A 
ATOM     19  C   UNL     1      -2.360  -3.398  -8.077  0.00  0.00    +0.005 A 
ATOM     20  C   UNL     1      -3.193  -4.214  -8.819  0.00  0.00    +0.000 A 
ATOM     21  C   UNL     1      -3.434  -3.928 -10.150  0.00  0.00    +0.000 A 
ATOM     22  C   UNL     1      -2.842  -2.826 -10.738  0.00  0.00    +0.000 A 
ATOM     23  C   UNL     1      -2.013  -2.007  -9.995  0.00  0.00    +0.005 A 
ENDBRANCH  17  18
ENDBRANCH  10  17
ENDBRANCH   4  10
BRANCH   1  29
ATOM     24  C   UNL     1      -2.012  -1.931  -0.764  0.00  0.00    -0.026 A 
ATOM     25  C   UNL     1      -2.574  -2.238   0.460  0.00  0.00    +0.005 A 
ATOM     26  C   UNL     1      -3.032  -1.228   1.285  0.00  0.00    +0.000 A 
ATOM     27  C   UNL     1      -2.930   0.093   0.888  0.00  0.00    +0.002 A 
ATOM     28  C   UNL     1      -2.369   0.407  -0.334  0.00  0.00    +0.023 A 
ATOM     29  C   UNL     1      -1.903  -0.605  -1.163  0.00  0.00    +0.036 A 
BRANCH  24  31
ATOM     30  C   UNL     1      -0.014  -3.240  -1.430  0.00  0.00    +0.009 C 
ATOM     31  C   UNL     1      -1.512  -3.033  -1.662  0.00  0.00    +0.033 C 
ENDBRANCH  24  31
ENDBRANCH   1  29
BRANCH   3  32
ATOM     32  N   UNL     1      -0.113   0.145  -4.909  0.00  0.00    -0.353 N 
ATOM     33  H   UNL     1       0.426   0.236  -4.108  0.00  0.00    +0.143 HD
ATOM     34  H   UNL     1       0.266   0.362  -5.776  0.00  0.00    +0.143 HD
ENDBRANCH   3  32
TORSDOF 6
