REMARK  Name = ZINC09332331
REMARK  8 active torsions:
REMARK  status: ('A' for Active; 'I' for Inactive)
REMARK    1  A    between atoms: C_1  and  C_2
REMARK    2  A    between atoms: C_2  and  C_3
REMARK    3  A    between atoms: C_2  and  C_5
REMARK    4  A    between atoms: C_2  and  N_8
REMARK    5  A    between atoms: C_9  and  C_11
REMARK    6  A    between atoms: C_11  and  S_12
REMARK    7  A    between atoms: S_12  and  C_13
REMARK    8  A    between atoms: N_26  and  C_27
REMARK                            x       y       z     vdW  Elec       q    Type
REMARK                         _______ _______ _______ _____ _____    ______ ____
ROOT
ATOM      1  C   UNL     1      -0.135   6.327   0.029  0.00  0.00    +0.178 A 
ATOM      2  N   UNL     1      -1.046   5.364   0.036  0.00  0.00    -0.215 NA
ATOM      3  C   UNL     1      -0.608   4.111   0.027  0.00  0.00    +0.117 A 
ATOM      4  C   UNL     1       0.759   3.752   0.013  0.00  0.00    +0.076 A 
ATOM      5  C   UNL     1       1.046   2.327   0.005  0.00  0.00    -0.023 A 
ATOM      6  C   UNL     1      -0.018   1.493   0.010  0.00  0.00    -0.004 A 
ATOM      7  S   UNL     1      -1.441   2.555   0.022  0.00  0.00    -0.073 S 
ATOM      8  C   UNL     1       0.002  -0.004   0.002  0.00  0.00    +0.043 C 
ATOM      9  C   UNL     1       1.412  -0.469  -0.389  0.00  0.00    +0.005 C 
ATOM     10  C   UNL     1       2.433   0.311   0.444  0.00  0.00    +0.005 C 
ATOM     11  C   UNL     1       2.468   1.770  -0.011  0.00  0.00    +0.037 C 
ATOM     12  C   UNL     1       1.716   4.819   0.007  0.00  0.00    +0.268 A 
ATOM     13  O   UNL     1       2.917   4.610  -0.004  0.00  0.00    -0.267 OA
ATOM     14  N   UNL     1       1.205   6.072   0.016  0.00  0.00    -0.253 N 
ENDROOT
BRANCH  14  15
ATOM     15  C   UNL     1       2.093   7.157   0.010  0.00  0.00    +0.087 A 
ATOM     16  C   UNL     1       2.525   7.695  -1.194  0.00  0.00    +0.029 A 
ATOM     17  C   UNL     1       3.396   8.768  -1.198  0.00  0.00    +0.002 A 
ATOM     18  C   UNL     1       3.846   9.300  -0.003  0.00  0.00    +0.003 A 
ATOM     19  C   UNL     1       3.422   8.764   1.199  0.00  0.00    +0.040 A 
ATOM     20  C   UNL     1       2.546   7.693   1.210  0.00  0.00    +0.147 A 
ATOM     21  F   UNL     1       2.132   7.169   2.384  0.00  0.00    -0.203 F 
ENDBRANCH  14  15
BRANCH   1  22
ATOM     22  S   UNL     1      -0.676   8.004   0.040  0.00  0.00    -0.078 S 
BRANCH  22  23
ATOM     23  C   UNL     1      -2.469   7.755   0.057  0.00  0.00    +0.173 C 
BRANCH  23  25
ATOM     24  N   UNL     1      -4.508   9.155   0.081  0.00  0.00    -0.297 N 
ATOM     25  C   UNL     1      -3.162   9.093   0.067  0.00  0.00    +0.224 C 
ATOM     26  O   UNL     1      -2.508  10.114   0.064  0.00  0.00    -0.275 OA
ATOM     27  H   UNL     1      -5.031   8.338   0.083  0.00  0.00    +0.150 HD
BRANCH  24  29
ATOM     28  C   UNL     1      -4.787  11.244  -1.160  0.00  0.00    +0.048 C 
ATOM     29  C   UNL     1      -5.181  10.456   0.091  0.00  0.00    +0.121 C 
BRANCH  29  30
ATOM     30  C   UNL     1      -6.697  10.246   0.105  0.00  0.00    +0.026 C 
ATOM     31  C   UNL     1      -7.491  10.749  -1.101  0.00  0.00    +0.007 C 
ATOM     32  C   UNL     1      -7.581  11.487   0.236  0.00  0.00    +0.007 C 
ENDBRANCH  29  30
BRANCH  29  33
ATOM     33  C   UNL     1      -4.779  11.207   1.291  0.00  0.00    +0.088 C 
ATOM     34  N   UNL     1      -4.468  11.787   2.218  0.00  0.00    -0.194 NA
ENDBRANCH  29  33
ENDBRANCH  24  29
ENDBRANCH  23  25
ENDBRANCH  22  23
ENDBRANCH   1  22
TORSDOF 7
