REMARK  Name = ZINC35375001
REMARK  7 active torsions:
REMARK  status: ('A' for Active; 'I' for Inactive)
REMARK    1  A    between atoms: C_1  and  C_2
REMARK    2  A    between atoms: C_2  and  C_3
REMARK    3  A    between atoms: C_3  and  C_5
REMARK    4  A    between atoms: C_3  and  N_6
REMARK    5  A    between atoms: C_27  and  C_29
REMARK    6  A    between atoms: C_29  and  C_30
REMARK    7  A    between atoms: C_29  and  C_31
REMARK                            x       y       z     vdW  Elec       q    Type
REMARK                         _______ _______ _______ _____ _____    ______ ____
ROOT
ATOM      1  N   UNL     1      -0.055  -0.114  -2.441  0.00  0.00    -0.239 N 
ATOM      2  C   UNL     1      -1.315  -0.515  -2.643  0.00  0.00    +0.227 C 
ATOM      3  O   UNL     1      -1.953  -1.224  -1.895  0.00  0.00    -0.275 OA
ATOM      4  C   UNL     1      -1.820   0.054  -3.950  0.00  0.00    +0.107 C 
ATOM      5  C   UNL     1      -0.609   0.874  -4.475  0.00  0.00    +0.122 C 
ATOM      6  C   UNL     1       0.440   0.671  -3.405  0.00  0.00    +0.228 C 
ATOM      7  O   UNL     1       1.556   1.144  -3.419  0.00  0.00    -0.275 OA
ATOM      8  C   UNL     1      -0.198   0.169  -5.772  0.00  0.00    +0.136 C 
ATOM      9  C   UNL     1       0.968  -0.755  -5.557  0.00  0.00    +0.004 A 
ATOM     10  C   UNL     1       1.173  -1.848  -4.746  0.00  0.00    +0.023 A 
ATOM     11  C   UNL     1       2.387  -2.512  -4.773  0.00  0.00    +0.018 A 
ATOM     12  C   UNL     1       3.393  -2.074  -5.616  0.00  0.00    +0.017 A 
ATOM     13  C   UNL     1       3.191  -0.978  -6.429  0.00  0.00    +0.025 A 
ATOM     14  C   UNL     1       1.973  -0.304  -6.408  0.00  0.00    +0.039 A 
ATOM     15  N   UNL     1       1.534   0.812  -7.125  0.00  0.00    -0.283 N 
ATOM     16  C   UNL     1       0.270   1.154  -6.809  0.00  0.00    +0.243 C 
ATOM     17  O   UNL     1      -0.367   2.077  -7.271  0.00  0.00    -0.273 OA
ATOM     18 BR   UNL     1       2.671  -4.014  -3.660  0.00  0.00    -0.050 Br
ATOM     19  N   UNL     1      -1.391  -0.566  -6.230  0.00  0.00    -0.295 NA
ATOM     20  C   UNL     1      -2.009  -1.095  -4.963  0.00  0.00    +0.070 C 
ATOM     21  H   UNL     1       2.077   1.286  -7.774  0.00  0.00    +0.155 HD
ATOM     22  H   UNL     1      -2.029   0.046  -6.717  0.00  0.00    +0.124 HD
ENDROOT
BRANCH  20  23
ATOM     23  C   UNL     1      -3.497  -1.379  -5.175  0.00  0.00    +0.001 C 
ATOM     24  C   UNL     1      -3.661  -2.520  -6.181  0.00  0.00    +0.009 C 
ATOM     25  C   UNL     1      -4.134  -1.780  -3.842  0.00  0.00    +0.009 C 
ENDBRANCH  20  23
BRANCH   1  26
ATOM     26  C   UNL     1       0.718  -0.497  -1.257  0.00  0.00    +0.081 C 
ATOM     27  C   UNL     1       0.849  -2.021  -1.205  0.00  0.00    +0.028 C 
BRANCH  26  29
ATOM     28  C   UNL     1      -0.019   1.526   0.010  0.00  0.00    +0.006 C 
ATOM     29  C   UNL     1       0.002  -0.004   0.002  0.00  0.00    +0.019 C 
ENDBRANCH  26  29
ENDBRANCH   1  26
TORSDOF 3
