REMARK  Name = ZINC16646464
REMARK  5 active torsions:
REMARK  status: ('A' for Active; 'I' for Inactive)
REMARK    1  A    between atoms: C_1  and  N_2
REMARK    2  A    between atoms: N_2  and  C_3
REMARK    3  A    between atoms: C_3  and  C_4
REMARK    4  A    between atoms: N_10  and  C_12
REMARK    5  A    between atoms: C_19  and  C_21
REMARK                            x       y       z     vdW  Elec       q    Type
REMARK                         _______ _______ _______ _____ _____    ______ ____
ROOT
ATOM      1  C   UNL     1       2.620   4.706   0.008  0.00  0.00    +0.203 C 
ENDROOT
BRANCH   1   2
ATOM      2  C   UNL     1       1.175   4.942   0.367  0.00  0.00    +0.235 C 
ATOM      3  O   UNL     1       0.787   6.065   0.610  0.00  0.00    -0.274 OA
ATOM      4  N   UNL     1       0.315   3.906   0.419  0.00  0.00    -0.275 N 
ATOM      5  C   UNL     1       0.617   2.491   0.156  0.00  0.00    +0.205 C 
ATOM      6  C   UNL     1      -0.674   1.735   0.344  0.00  0.00    +0.238 C 
ATOM      7  O   UNL     1      -0.812   0.537   0.210  0.00  0.00    -0.273 OA
ATOM      8  N   UNL     1      -1.646   2.599   0.677  0.00  0.00    -0.254 N 
ATOM      9  C   UNL     1      -1.114   3.958   0.750  0.00  0.00    +0.224 C 
BRANCH   8  10
ATOM     10  C   UNL     1      -2.979   2.247   0.924  0.00  0.00    +0.038 A 
ATOM     11  C   UNL     1      -3.904   3.224   1.268  0.00  0.00    +0.025 A 
ATOM     12  C   UNL     1      -5.219   2.875   1.506  0.00  0.00    +0.022 A 
ATOM     13  C   UNL     1      -5.612   1.552   1.412  0.00  0.00    +0.041 A 
ATOM     14  C   UNL     1      -4.691   0.575   1.075  0.00  0.00    +0.022 A 
ATOM     15  C   UNL     1      -3.376   0.920   0.831  0.00  0.00    +0.025 A 
ATOM     16 CL   UNL     1      -7.264   1.115   1.718  0.00  0.00    -0.084 Cl
ENDBRANCH   8  10
ENDBRANCH   1   2
BRANCH   1  18
ATOM     17  C   UNL     1       3.424   6.787  -1.199  0.00  0.00    +0.132 C 
ATOM     18  N   UNL     1       3.341   5.981   0.021  0.00  0.00    -0.295 N 
ATOM     19  C   UNL     1       3.928   6.411   1.155  0.00  0.00    +0.222 C 
ATOM     20  O   UNL     1       3.781   5.792   2.187  0.00  0.00    -0.275 OA
BRANCH  19  21
ATOM     21  C   UNL     1       4.768   7.662   1.140  0.00  0.00    +0.048 C 
ATOM     22  C   UNL     1       6.006   7.436   0.269  0.00  0.00    +0.019 C 
ATOM     23  C   UNL     1       6.859   8.706   0.255  0.00  0.00    -0.009 C 
ATOM     24  C   UNL     1       7.294   9.044   1.682  0.00  0.00    +0.007 C 
ATOM     25  C   UNL     1       6.057   9.271   2.552  0.00  0.00    -0.009 C 
ATOM     26  C   UNL     1       5.204   8.001   2.567  0.00  0.00    +0.019 C 
ATOM     27  C   UNL     1       5.237  10.429   1.981  0.00  0.00    +0.007 C 
ATOM     28  C   UNL     1       4.801  10.091   0.554  0.00  0.00    -0.009 C 
ATOM     29  C   UNL     1       6.038   9.864  -0.317  0.00  0.00    +0.007 C 
ATOM     30  C   UNL     1       3.948   8.821   0.569  0.00  0.00    +0.019 C 
ENDBRANCH  19  21
ENDBRANCH   1  18
TORSDOF 4
