REMARK  Name = ZINC39357785
REMARK  13 active torsions:
REMARK  status: ('A' for Active; 'I' for Inactive)
REMARK    1  A    between atoms: C_1  and  C_2
REMARK    2  A    between atoms: C_7  and  C_8
REMARK    3  A    between atoms: N_10  and  C_11
REMARK    4  A    between atoms: C_16  and  C_26
REMARK    5  A    between atoms: C_20  and  C_22
REMARK    6  A    between atoms: C_22  and  O_24
REMARK    7  A    between atoms: O_24  and  C_25
REMARK    8  A    between atoms: C_26  and  N_27
REMARK    9  A    between atoms: N_27  and  C_28
REMARK   10  A    between atoms: N_27  and  C_29
REMARK   11  A    between atoms: C_29  and  C_30
REMARK   12  A    between atoms: C_31  and  C_37
REMARK   13  A    between atoms: C_34  and  C_36
REMARK                            x       y       z     vdW  Elec       q    Type
REMARK                         _______ _______ _______ _____ _____    ______ ____
ROOT
ATOM      1  C   UNL     1       0.578   0.067   4.894  0.00  0.00    +0.130 C 
ATOM      2  C   UNL     1       1.996   0.552   5.059  0.00  0.00    +0.006 A 
ATOM      3  C   UNL     1       2.571   1.680   4.467  0.00  0.00    +0.010 A 
ATOM      4  C   UNL     1       3.899   1.975   4.713  0.00  0.00    +0.022 A 
ATOM      5  C   UNL     1       4.645   1.156   5.538  0.00  0.00    +0.026 A 
ATOM      6  N   UNL     1       4.086   0.098   6.097  0.00  0.00    -0.247 NA
ATOM      7  C   UNL     1       2.820  -0.207   5.890  0.00  0.00    +0.103 A 
ATOM      8  S   UNL     1       1.808  -1.524   6.531  0.00  0.00    -0.089 S 
ATOM      9  C   UNL     1       0.159  -0.872   6.048  0.00  0.00    +0.186 C 
ENDROOT
BRANCH   1  12
ATOM     10  C   UNL     1       0.242   0.021   2.481  0.00  0.00    +0.245 C 
ATOM     11  O   UNL     1       0.135   1.232   2.503  0.00  0.00    -0.270 OA
ATOM     12  N   UNL     1       0.465  -0.656   3.625  0.00  0.00    -0.303 N 
ATOM     13  H   UNL     1       0.551  -1.622   3.607  0.00  0.00    +0.150 HD
BRANCH  10  20
ATOM     14  C   UNL     1      -0.511   1.452   0.082  0.00  0.00    +0.044 C 
ATOM     15  C   UNL     1      -0.234  -0.028   0.036  0.00  0.00    -0.038 A 
ATOM     16  C   UNL     1      -0.334  -0.714  -1.157  0.00  0.00    +0.004 A 
ATOM     17  C   UNL     1      -0.080  -2.073  -1.200  0.00  0.00    +0.000 A 
ATOM     18  C   UNL     1       0.275  -2.754  -0.049  0.00  0.00    +0.001 A 
ATOM     19  C   UNL     1       0.378  -2.080   1.150  0.00  0.00    +0.013 A 
ATOM     20  C   UNL     1       0.128  -0.708   1.200  0.00  0.00    +0.040 A 
ENDBRANCH  10  20
ENDBRANCH   1  12
BRANCH   9  21
ATOM     21  C   UNL     1      -0.480  -0.105   7.176  0.00  0.00    +0.322 C 
ATOM     22  O   UNL     1      -0.153   1.039   7.390  0.00  0.00    -0.250 OA
BRANCH  21  23
ATOM     23  O   UNL     1      -1.412  -0.691   7.944  0.00  0.00    -0.467 OA
ATOM     24  C   UNL     1      -1.976   0.096   8.995  0.00  0.00    +0.280 C 
ENDBRANCH  21  23
ENDBRANCH   9  21
BRANCH   5  25
ATOM     25  C   UNL     1       6.095   1.470   5.801  0.00  0.00    -0.022 C 
BRANCH  25  26
ATOM     26  N   UNL     1       6.211   2.241   7.046  0.00  0.00    +0.384 N 
ATOM     27  C   UNL     1       5.782   1.411   8.179  0.00  0.00    -0.095 C 
ATOM     28  H   UNL     1       5.626   3.061   6.989  0.00  0.00    -0.081 HD
BRANCH  26  29
ATOM     29  C   UNL     1       7.609   2.650   7.240  0.00  0.00    -0.043 C 
BRANCH  29  30
ATOM     30  C   UNL     1       7.708   3.543   8.450  0.00  0.00    -0.038 C 
ATOM     31  C   UNL     1       8.019   3.200   9.702  0.00  0.00    +0.060 C 
ATOM     32  N   UNL     1       8.006   4.282  10.513  0.00  0.00    -0.159 NA
ATOM     33  N   UNL     1       7.717   5.340   9.950  0.00  0.00    -0.180 NA
ATOM     34  C   UNL     1       7.484   5.043   8.526  0.00  0.00    +0.151 C 
ATOM     35  C   UNL     1       6.049   5.396   8.131  0.00  0.00    +0.039 C 
ATOM     36  C   UNL     1       8.341   1.798  10.151  0.00  0.00    +0.067 C 
ENDBRANCH  29  30
ENDBRANCH  26  29
ENDBRANCH  25  26
ENDBRANCH   5  25
TORSDOF 8
