REMARK  Name = ZINC58372788
REMARK  13 active torsions:
REMARK  status: ('A' for Active; 'I' for Inactive)
REMARK    1  A    between atoms: C_1  and  C_2
REMARK    2  A    between atoms: C_2  and  C_3
REMARK    3  A    between atoms: C_2  and  C_4
REMARK    4  A    between atoms: C_7  and  C_10
REMARK    5  A    between atoms: C_10  and  N_11
REMARK    6  A    between atoms: N_11  and  C_12
REMARK    7  A    between atoms: N_11  and  C_32
REMARK    8  A    between atoms: C_12  and  C_13
REMARK    9  A    between atoms: N_15  and  N_16
REMARK   10  A    between atoms: C_19  and  C_23
REMARK   11  A    between atoms: C_19  and  C_24
REMARK   12  A    between atoms: C_27  and  O_30
REMARK   13  A    between atoms: O_30  and  C_31
REMARK                            x       y       z     vdW  Elec       q    Type
REMARK                         _______ _______ _______ _____ _____    ______ ____
ROOT
ATOM      1  C   UNL     1       3.465  -0.322   7.987  0.00  0.00    +0.213 C 
ATOM      2  O   UNL     1       2.792   0.676   7.835  0.00  0.00    -0.276 OA
ATOM      3  N   UNL     1       4.231  -0.456   9.088  0.00  0.00    -0.225 N 
ATOM      4  H   UNL     1       4.769  -1.254   9.210  0.00  0.00    +0.173 HD
ENDROOT
BRANCH   3   5
ATOM      5  N   UNL     1       4.250   0.557  10.056  0.00  0.00    -0.137 N 
ATOM      6  C   UNL     1       5.265   1.429  10.220  0.00  0.00    +0.267 C 
ATOM      7  O   UNL     1       6.294   1.482   9.582  0.00  0.00    -0.271 OA
ATOM      8  C   UNL     1       4.851   2.329  11.367  0.00  0.00    +0.137 C 
ATOM      9  N   UNL     1       3.526   1.811  11.752  0.00  0.00    -0.280 N 
ATOM     10  C   UNL     1       3.260   0.782  10.928  0.00  0.00    +0.327 C 
ATOM     11  O   UNL     1       2.237   0.129  10.972  0.00  0.00    -0.251 OA
ATOM     12  C   UNL     1       4.746   3.782  10.900  0.00  0.00    +0.047 C 
ATOM     13  H   UNL     1       2.956   2.149  12.461  0.00  0.00    +0.152 HD
BRANCH   8  14
ATOM     14  C   UNL     1       5.822   2.207  12.513  0.00  0.00    -0.015 A 
ATOM     15  C   UNL     1       7.149   1.912  12.264  0.00  0.00    +0.010 A 
ATOM     16  C   UNL     1       8.041   1.800  13.313  0.00  0.00    +0.046 A 
ATOM     17  C   UNL     1       7.604   1.984  14.617  0.00  0.00    +0.120 A 
ATOM     18  C   UNL     1       6.271   2.280  14.864  0.00  0.00    +0.046 A 
ATOM     19  C   UNL     1       5.384   2.396  13.811  0.00  0.00    +0.010 A 
BRANCH  17  20
ATOM     20  O   UNL     1       8.479   1.873  15.651  0.00  0.00    -0.495 OA
ATOM     21  C   UNL     1       7.958   2.075  16.966  0.00  0.00    +0.277 C 
ENDBRANCH  17  20
ENDBRANCH   8  14
ENDBRANCH   3   5
BRANCH   1  22
ATOM     22  C   UNL     1       3.444  -1.411   6.946  0.00  0.00    +0.021 C 
BRANCH  22  23
ATOM     23  N   UNL     1       2.656  -0.967   5.789  0.00  0.00    +0.390 N 
ATOM     24  H   UNL     1       1.746  -0.660   6.099  0.00  0.00    -0.080 HD
BRANCH  23  25
ATOM     25  C   UNL     1       2.500  -2.083   4.846  0.00  0.00    -0.068 C 
ATOM     26  C   UNL     1       1.103  -2.338   4.278  0.00  0.00    -0.017 C 
ATOM     27  C   UNL     1       1.695  -3.296   5.314  0.00  0.00    -0.017 C 
ENDBRANCH  23  25
BRANCH  23  28
ATOM     28  C   UNL     1       3.348   0.144   5.122  0.00  0.00    -0.042 C 
BRANCH  28  32
ATOM     29  C   UNL     1       0.899   1.664   1.970  0.00  0.00    -0.045 A 
ATOM     30  C   UNL     1       0.790   2.189   3.244  0.00  0.00    +0.004 A 
ATOM     31  C   UNL     1       1.583   1.697   4.264  0.00  0.00    +0.002 A 
ATOM     32  C   UNL     1       2.483   0.680   4.010  0.00  0.00    -0.064 A 
ATOM     33  C   UNL     1       2.592   0.154   2.736  0.00  0.00    +0.002 A 
ATOM     34  C   UNL     1       1.796   0.643   1.717  0.00  0.00    +0.004 A 
BRANCH  29  36
ATOM     35  C   UNL     1      -1.439   2.007   1.218  0.00  0.00    +0.012 C 
ATOM     36  C   UNL     1       0.035   2.200   0.858  0.00  0.00    +0.013 C 
ATOM     37  C   UNL     1       0.321   3.691   0.663  0.00  0.00    +0.012 C 
ENDBRANCH  29  36
ENDBRANCH  28  32
ENDBRANCH  23  28
ENDBRANCH  22  23
ENDBRANCH   1  22
TORSDOF 9
