REMARK  Name = ZINC13837605
REMARK  9 active torsions:
REMARK  status: ('A' for Active; 'I' for Inactive)
REMARK    1  A    between atoms: C_1  and  C_2
REMARK    2  A    between atoms: C_2  and  O_3
REMARK    3  A    between atoms: O_3  and  C_4
REMARK    4  A    between atoms: C_9  and  N_12
REMARK    5  A    between atoms: C_15  and  O_16
REMARK    6  A    between atoms: C_17  and  O_18
REMARK    7  A    between atoms: N_19  and  C_20
REMARK    8  A    between atoms: C_23  and  C_27
REMARK    9  A    between atoms: C_24  and  C_26
REMARK                            x       y       z     vdW  Elec       q    Type
REMARK                         _______ _______ _______ _____ _____    ______ ____
ROOT
ATOM      1  N   UNL     1      -6.050  -3.783  -2.128  0.00  0.00    -0.275 NA
ATOM      2  C   UNL     1      -7.220  -4.288  -1.859  0.00  0.00    +0.131 C 
ATOM      3  C   UNL     1      -8.366  -4.784  -2.670  0.00  0.00    +0.114 C 
ATOM      4  C   UNL     1      -9.024  -5.065  -1.381  0.00  0.00    +0.187 C 
ATOM      5  C   UNL     1      -7.960  -4.612  -0.622  0.00  0.00    +0.188 C 
ATOM      6  N   UNL     1      -8.656  -4.912  -3.943  0.00  0.00    -0.350 N 
ATOM      7  H   UNL     1      -8.015  -4.636  -4.617  0.00  0.00    +0.166 HD
ENDROOT
BRANCH   1  13
ATOM      8  C   UNL     1      -1.497  -1.836   0.006  0.00  0.00    +0.403 C 
ATOM      9  O   UNL     1      -0.523  -2.563  -0.007  0.00  0.00    -0.226 OA
ATOM     10  N   UNL     1      -2.735  -2.368   0.015  0.00  0.00    -0.267 N 
ATOM     11  C   UNL     1      -3.922  -1.502   0.025  0.00  0.00    +0.113 C 
ATOM     12  C   UNL     1      -4.836  -1.905  -1.136  0.00  0.00    +0.046 C 
ATOM     13  C   UNL     1      -5.149  -3.400  -1.038  0.00  0.00    +0.109 C 
ATOM     14  C   UNL     1      -3.849  -4.202  -1.145  0.00  0.00    +0.046 C 
ATOM     15  C   UNL     1      -2.924  -3.825   0.009  0.00  0.00    +0.113 C 
BRANCH   8  16
ATOM     16  O   UNL     1      -1.339  -0.499   0.012  0.00  0.00    -0.451 OA
BRANCH  16  18
ATOM     17  C   UNL     1      -0.019   1.526   0.010  0.00  0.00    +0.048 C 
ATOM     18  C   UNL     1       0.002  -0.004   0.002  0.00  0.00    +0.230 C 
ENDBRANCH  16  18
ENDBRANCH   8  16
ENDBRANCH   1  13
BRANCH   6  19
ATOM     19  C   UNL     1      -9.862  -5.433  -4.321  0.00  0.00    +0.040 A 
ATOM     20  C   UNL     1     -10.362  -6.574  -3.688  0.00  0.00    +0.026 A 
ATOM     21  C   UNL     1     -11.580  -7.095  -4.074  0.00  0.00    +0.005 A 
ATOM     22  C   UNL     1     -12.305  -6.490  -5.085  0.00  0.00    -0.047 A 
ATOM     23  C   UNL     1     -11.816  -5.360  -5.716  0.00  0.00    -0.046 A 
ATOM     24  C   UNL     1     -10.603  -4.824  -5.337  0.00  0.00    +0.029 A 
ATOM     25  C   UNL     1     -12.614  -4.709  -6.817  0.00  0.00    +0.044 C 
ATOM     26  C   UNL     1     -13.634  -7.066  -5.502  0.00  0.00    +0.044 C 
ENDBRANCH   6  19
BRANCH   4  27
ATOM     27  O   UNL     1     -10.231  -5.586  -1.058  0.00  0.00    -0.502 OA
ATOM     28  H   UNL     1     -10.389  -5.652  -0.106  0.00  0.00    +0.292 HD
ENDBRANCH   4  27
BRANCH   5  29
ATOM     29  O   UNL     1      -7.704  -4.508   0.704  0.00  0.00    -0.502 OA
ATOM     30  H   UNL     1      -8.424  -4.820   1.269  0.00  0.00    +0.292 HD
ENDBRANCH   5  29
TORSDOF 6
