REMARK  Name = ZINC44713640
REMARK  10 active torsions:
REMARK  status: ('A' for Active; 'I' for Inactive)
REMARK    1  A    between atoms: C_1  and  C_2
REMARK    2  A    between atoms: C_2  and  C_3
REMARK    3  A    between atoms: C_3  and  C_4
REMARK    4  A    between atoms: C_4  and  C_5
REMARK    5  A    between atoms: C_9  and  C_18
REMARK    6  A    between atoms: N_20  and  C_21
REMARK    7  A    between atoms: C_21  and  C_23
REMARK    8  A    between atoms: C_21  and  C_24
REMARK    9  A    between atoms: C_25  and  C_31
REMARK   10  A    between atoms: C_29  and  C_30
REMARK                            x       y       z     vdW  Elec       q    Type
REMARK                         _______ _______ _______ _____ _____    ______ ____
ROOT
ATOM      1  C   UNL     1      -2.776  -2.627  -0.038  0.00  0.00    +0.216 C 
ATOM      2  O   UNL     1      -3.711  -1.854  -0.045  0.00  0.00    -0.276 OA
ATOM      3  N   UNL     1      -3.000  -3.956  -0.035  0.00  0.00    -0.300 N 
ATOM      4  C   UNL     1      -1.996  -5.046  -0.020  0.00  0.00    +0.121 C 
ATOM      5  C   UNL     1      -2.593  -6.113   0.925  0.00  0.00    +0.100 C 
ATOM      6  C   UNL     1      -4.109  -5.854   0.903  0.00  0.00    -0.004 C 
ATOM      7  C   UNL     1      -4.306  -4.657  -0.039  0.00  0.00    +0.115 C 
ATOM      8  C   UNL     1      -4.606  -5.503   2.302  0.00  0.00    -0.010 C 
ATOM      9  C   UNL     1      -6.124  -5.306   2.265  0.00  0.00    -0.082 C 
ATOM     10  N   UNL     1      -6.767  -6.537   1.789  0.00  0.00    +0.379 N 
ATOM     11  C   UNL     1      -6.355  -6.816   0.408  0.00  0.00    -0.082 C 
ATOM     12  C   UNL     1      -4.846  -7.077   0.366  0.00  0.00    -0.010 C 
ATOM     13  H   UNL     1      -6.497  -7.307   2.381  0.00  0.00    -0.086 HD
ATOM     14  H   UNL     1      -7.769  -6.425   1.823  0.00  0.00    -0.086 HD
ENDROOT
BRANCH   5  15
ATOM     15  C   UNL     1      -2.049  -5.941   2.320  0.00  0.00    +0.219 C 
ATOM     16  O   UNL     1      -1.649  -4.856   2.685  0.00  0.00    -0.275 OA
ATOM     17  N   UNL     1      -2.008  -6.993   3.162  0.00  0.00    -0.308 N 
ATOM     18  H   UNL     1      -2.328  -7.861   2.869  0.00  0.00    +0.149 HD
BRANCH  17  19
ATOM     19  C   UNL     1      -1.480  -6.825   4.518  0.00  0.00    +0.104 C 
ATOM     20  C   UNL     1       0.050  -6.841   4.475  0.00  0.00    +0.033 C 
BRANCH  19  21
ATOM     21  C   UNL     1      -1.969  -7.953   5.390  0.00  0.00    +0.015 A 
ATOM     22  C   UNL     1      -2.539  -7.825   6.610  0.00  0.00    +0.038 A 
ATOM     23  N   UNL     1      -2.834  -9.064   7.058  0.00  0.00    -0.281 N 
ATOM     24  H   UNL     1      -3.252  -9.279   7.907  0.00  0.00    +0.189 HD
ATOM     25  N   UNL     1      -2.432  -9.983   6.080  0.00  0.00    -0.179 NA
ATOM     26  C   UNL     1      -1.919  -9.316   5.079  0.00  0.00    +0.065 A 
ATOM     27  C   UNL     1      -1.365  -9.912   3.811  0.00  0.00    +0.068 C 
ATOM     28  C   UNL     1      -2.799  -6.532   7.339  0.00  0.00    +0.065 C 
ENDBRANCH  19  21
ENDBRANCH  17  19
ENDBRANCH   5  15
BRANCH   1  29
ATOM     29  C   UNL     1      -1.364  -2.101  -0.033  0.00  0.00    +0.096 C 
BRANCH  29  30
ATOM     30  C   UNL     1      -1.389  -0.571  -0.037  0.00  0.00    +0.009 C 
BRANCH  30  32
ATOM     31  C   UNL     1       0.019   1.493  -0.037  0.00  0.00    +0.004 C 
ATOM     32  C   UNL     1       0.044  -0.037  -0.032  0.00  0.00    -0.003 C 
ENDBRANCH  30  32
ENDBRANCH  29  30
ENDBRANCH   1  29
TORSDOF 6
