REMARK  Name = ZINC64541586
REMARK  7 active torsions:
REMARK  status: ('A' for Active; 'I' for Inactive)
REMARK    1  A    between atoms: C_1  and  C_2
REMARK    2  A    between atoms: C_2  and  C_3
REMARK    3  A    between atoms: C_3  and  N_4
REMARK    4  A    between atoms: C_5  and  C_7
REMARK    5  A    between atoms: C_9  and  N_18
REMARK    6  A    between atoms: C_12  and  C_17
REMARK    7  A    between atoms: C_19  and  C_21
REMARK                            x       y       z     vdW  Elec       q    Type
REMARK                         _______ _______ _______ _____ _____    ______ ____
ROOT
ATOM      1  C   UNL     1       1.223  -4.594  -2.236  0.00  0.00    +0.211 C 
ATOM      2  C   UNL     1       2.499  -4.589  -1.423  0.00  0.00    +0.051 C 
ATOM      3  C   UNL     1       3.525  -4.776  -2.334  0.00  0.00    +0.018 A 
ATOM      4  C   UNL     1       4.930  -4.861  -2.186  0.00  0.00    +0.015 A 
ATOM      5  C   UNL     1       5.711  -5.052  -3.278  0.00  0.00    -0.050 A 
ATOM      6  C   UNL     1       5.164  -5.168  -4.558  0.00  0.00    +0.005 A 
ATOM      7  C   UNL     1       3.828  -5.096  -4.776  0.00  0.00    +0.026 A 
ATOM      8  C   UNL     1       2.945  -4.898  -3.683  0.00  0.00    +0.045 A 
ATOM      9  N   UNL     1       1.631  -4.795  -3.630  0.00  0.00    -0.369 N 
ATOM     10  C   UNL     1       7.205  -5.141  -3.106  0.00  0.00    +0.044 C 
ATOM     11  H   UNL     1       1.030  -4.844  -4.390  0.00  0.00    +0.161 HD
ENDROOT
BRANCH   1  13
ATOM     12  N   UNL     1      -0.255  -3.038  -1.004  0.00  0.00    -0.313 N 
ATOM     13  C   UNL     1       0.509  -3.275  -2.089  0.00  0.00    +0.241 C 
ATOM     14  O   UNL     1       0.622  -2.425  -2.948  0.00  0.00    -0.273 OA
ATOM     15  H   UNL     1      -0.345  -3.718  -0.317  0.00  0.00    +0.149 HD
BRANCH  12  16
ATOM     16  C   UNL     1      -0.949  -1.756  -0.861  0.00  0.00    +0.104 C 
BRANCH  16  18
ATOM     17  C   UNL     1      -2.464  -0.408   0.597  0.00  0.00    +0.005 C 
ATOM     18  C   UNL     1      -1.739  -1.747   0.448  0.00  0.00    +0.015 C 
ENDBRANCH  16  18
ENDBRANCH  12  16
ENDBRANCH   1  13
BRANCH   2  19
ATOM     19  N   UNL     1       2.614  -4.432  -0.077  0.00  0.00    -0.282 N 
ATOM     20  C   UNL     1       3.616  -5.040   0.589  0.00  0.00    +0.248 C 
ATOM     21  O   UNL     1       4.436  -5.700  -0.018  0.00  0.00    -0.270 OA
ATOM     22  H   UNL     1       1.975  -3.883   0.404  0.00  0.00    +0.155 HD
BRANCH  20  23
ATOM     23  C   UNL     1       3.718  -4.902   2.056  0.00  0.00    +0.037 A 
ATOM     24  C   UNL     1       2.774  -4.149   2.757  0.00  0.00    +0.014 A 
ATOM     25  C   UNL     1       2.875  -4.024   4.127  0.00  0.00    +0.021 A 
ATOM     26  C   UNL     1       3.909  -4.645   4.807  0.00  0.00    +0.041 A 
ATOM     27  C   UNL     1       4.849  -5.394   4.117  0.00  0.00    +0.021 A 
ATOM     28  C   UNL     1       4.755  -5.531   2.749  0.00  0.00    +0.014 A 
ATOM     29 CL   UNL     1       4.029  -4.484   6.532  0.00  0.00    -0.084 Cl
ENDBRANCH  20  23
ENDBRANCH   2  19
TORSDOF 5
