REMARK  Name = ZINC12035799
REMARK  11 active torsions:
REMARK  status: ('A' for Active; 'I' for Inactive)
REMARK    1  A    between atoms: C_1  and  O_2
REMARK    2  A    between atoms: O_2  and  C_3
REMARK    3  A    between atoms: C_6  and  C_9
REMARK    4  A    between atoms: C_10  and  C_11
REMARK    5  A    between atoms: C_11  and  N_65
REMARK    6  A    between atoms: C_17  and  C_21
REMARK    7  A    between atoms: C_21  and  C_22
REMARK    8  A    between atoms: C_22  and  N_23
REMARK    9  A    between atoms: C_24  and  C_26
REMARK   10  A    between atoms: C_29  and  O_32
REMARK   11  A    between atoms: O_32  and  C_33
REMARK                            x       y       z     vdW  Elec       q    Type
REMARK                         _______ _______ _______ _____ _____    ______ ____
ROOT
ATOM      1  C   UNL     1       3.047  -9.465   2.532  0.00  0.00    -0.071 C 
ATOM      2  C   UNL     1       4.057  -9.587   1.395  0.00  0.00    +0.058 C 
ATOM      3  C   UNL     1       3.985  -8.348   0.539  0.00  0.00    +0.132 A 
ATOM      4  N   UNL     1       3.961  -8.278  -0.759  0.00  0.00    -0.134 NA
ATOM      5  N   UNL     1       3.929  -7.043  -1.123  0.00  0.00    -0.134 NA
ATOM      6  C   UNL     1       3.925  -6.272  -0.068  0.00  0.00    +0.135 A 
ATOM      7  N   UNL     1       3.955  -7.079   1.014  0.00  0.00    -0.317 N 
ATOM      8  C   UNL     1       3.937  -6.688   2.424  0.00  0.00    +0.106 C 
ATOM      9  C   UNL     1       4.635  -7.768   3.255  0.00  0.00    -0.056 C 
ATOM     10  N   UNL     1       3.675  -8.806   3.698  0.00  0.00    +0.383 N 
ATOM     11  H   UNL     1       4.181  -9.512   4.244  0.00  0.00    -0.081 HD
ENDROOT
BRANCH  10  12
ATOM     12  C   UNL     1       2.636  -8.198   4.549  0.00  0.00    -0.051 C 
BRANCH  12  14
ATOM     13  C   UNL     1       1.673  -9.386   6.469  0.00  0.00    +0.002 C 
ATOM     14  C   UNL     1       1.804  -9.299   5.153  0.00  0.00    -0.045 C 
BRANCH  13  18
ATOM     15  C   UNL     1      -0.674 -12.492   8.171  0.00  0.00    +0.120 A 
ATOM     16  C   UNL     1      -0.045 -11.568   8.995  0.00  0.00    +0.046 A 
ATOM     17  C   UNL     1       0.718 -10.559   8.447  0.00  0.00    +0.011 A 
ATOM     18  C   UNL     1       0.857 -10.466   7.061  0.00  0.00    -0.025 A 
ATOM     19  C   UNL     1       0.217 -11.393   6.236  0.00  0.00    +0.011 A 
ATOM     20  C   UNL     1      -0.538 -12.402   6.792  0.00  0.00    +0.046 A 
BRANCH  15  22
ATOM     21  C   UNL     1      -2.044 -14.400   7.809  0.00  0.00    +0.277 C 
ATOM     22  O   UNL     1      -1.425 -13.485   8.715  0.00  0.00    -0.495 OA
ENDBRANCH  15  22
ENDBRANCH  13  18
ENDBRANCH  12  14
ENDBRANCH  10  12
BRANCH   6  23
ATOM     23  C   UNL     1       3.900  -4.765  -0.060  0.00  0.00    +0.095 C 
BRANCH  23  24
ATOM     24  C   UNL     1       2.450  -4.279  -0.043  0.00  0.00    +0.112 C 
BRANCH  24  25
ATOM     25  N   UNL     1       2.425  -2.814  -0.036  0.00  0.00    -0.311 N 
ATOM     26  C   UNL     1       1.247  -2.160  -0.021  0.00  0.00    +0.244 C 
ATOM     27  O   UNL     1       0.204  -2.785  -0.014  0.00  0.00    -0.270 OA
ATOM     28  H   UNL     1       3.257  -2.316  -0.041  0.00  0.00    +0.149 HD
BRANCH  26  29
ATOM     29  C   UNL     1       1.223  -0.684  -0.013  0.00  0.00    +0.037 A 
ATOM     30  C   UNL     1       0.002  -0.004   0.002  0.00  0.00    +0.016 A 
ATOM     31  C   UNL     1      -0.017   1.373   0.010  0.00  0.00    +0.046 A 
ATOM     32  C   UNL     1       1.177   2.086   0.002  0.00  0.00    +0.120 A 
ATOM     33  C   UNL     1       2.393   1.413  -0.013  0.00  0.00    +0.046 A 
ATOM     34  C   UNL     1       2.420   0.036  -0.021  0.00  0.00    +0.016 A 
BRANCH  32  35
ATOM     35  O   UNL     1       1.154   3.443   0.009  0.00  0.00    -0.495 OA
ATOM     36  C   UNL     1       2.416   4.113   0.001  0.00  0.00    +0.277 C 
ENDBRANCH  32  35
ENDBRANCH  26  29
ENDBRANCH  24  25
ENDBRANCH  23  24
ENDBRANCH   6  23
TORSDOF 9
