REMARK  Name = ZINC12007807
REMARK  8 active torsions:
REMARK  status: ('A' for Active; 'I' for Inactive)
REMARK    1  A    between atoms: C_1  and  C_2
REMARK    2  A    between atoms: C_2  and  C_3
REMARK    3  A    between atoms: C_2  and  C_4
REMARK    4  A    between atoms: C_13  and  N_22
REMARK    5  A    between atoms: C_15  and  C_17
REMARK    6  A    between atoms: C_23  and  C_25
REMARK    7  A    between atoms: C_25  and  O_26
REMARK    8  A    between atoms: O_26  and  C_27
REMARK                            x       y       z     vdW  Elec       q    Type
REMARK                         _______ _______ _______ _____ _____    ______ ____
ROOT
ATOM      1  C   UNL     1       5.972   4.953   0.231  0.00  0.00    +0.053 A 
ATOM      2  C   UNL     1       6.865   5.966   0.423  0.00  0.00    +0.093 A 
ATOM      3  C   UNL     1       6.386   7.286   0.516  0.00  0.00    +0.253 A 
ATOM      4  O   UNL     1       7.156   8.217   0.688  0.00  0.00    -0.268 OA
ATOM      5  N   UNL     1       5.058   7.503   0.406  0.00  0.00    -0.291 N 
ATOM      6  H   UNL     1       4.706   8.405   0.463  0.00  0.00    +0.172 HD
ATOM      7  C   UNL     1       4.216   6.452   0.219  0.00  0.00    +0.234 A 
ATOM      8  N   UNL     1       4.671   5.221   0.133  0.00  0.00    -0.217 NA
ATOM      9  N   UNL     1       2.858   6.682   0.112  0.00  0.00    -0.184 N 
ATOM     10  C   UNL     1       1.886   5.726   0.019  0.00  0.00    +0.132 A 
ATOM     11  C   UNL     1       0.690   6.361  -0.062  0.00  0.00    +0.077 A 
ATOM     12  C   UNL     1       0.935   7.750  -0.025  0.00  0.00    +0.130 A 
ATOM     13  N   UNL     1       2.236   7.936   0.076  0.00  0.00    -0.159 NA
ENDROOT
BRANCH  12  14
ATOM     14  C   UNL     1      -0.090   8.813  -0.088  0.00  0.00    +0.155 A 
ATOM     15  C   UNL     1       0.145  10.152  -0.047  0.00  0.00    +0.051 A 
ATOM     16  C   UNL     1      -1.110  10.787  -0.139  0.00  0.00    +0.042 A 
ATOM     17  C   UNL     1      -2.039   9.815  -0.223  0.00  0.00    +0.196 A 
ATOM     18  O   UNL     1      -1.419   8.624  -0.192  0.00  0.00    -0.461 OA
ENDBRANCH  12  14
BRANCH  10  19
ATOM     19  N   UNL     1       2.087   4.348   0.016  0.00  0.00    -0.267 N 
ATOM     20  C   UNL     1       1.030   3.512   0.054  0.00  0.00    +0.256 C 
ATOM     21  O   UNL     1      -0.096   3.961   0.091  0.00  0.00    -0.272 OA
ATOM     22  H   UNL     1       2.988   3.989  -0.014  0.00  0.00    +0.156 HD
BRANCH  20  23
ATOM     23  C   UNL     1       1.247   2.021   0.050  0.00  0.00    +0.324 C 
BRANCH  23  24
ATOM     24  O   UNL     1      -0.017   1.356   0.095  0.00  0.00    -0.483 OA
BRANCH  24  25
ATOM     25  C   UNL     1       0.001  -0.004   0.097  0.00  0.00    +0.121 A 
ATOM     26  C   UNL     1       1.210  -0.682   0.051  0.00  0.00    +0.047 A 
ATOM     27  C   UNL     1       1.227  -2.063   0.059  0.00  0.00    +0.023 A 
ATOM     28  C   UNL     1       0.038  -2.770   0.101  0.00  0.00    +0.041 A 
ATOM     29  C   UNL     1      -1.169  -2.095   0.142  0.00  0.00    +0.023 A 
ATOM     30  C   UNL     1      -1.190  -0.714   0.140  0.00  0.00    +0.047 A 
ATOM     31 CL   UNL     1       0.061  -4.506   0.104  0.00  0.00    -0.084 Cl
ENDBRANCH  24  25
ENDBRANCH  23  24
ENDBRANCH  20  23
ENDBRANCH  10  19
BRANCH   1  33
ATOM     32  C   UNL     1       5.823   2.693   1.240  0.00  0.00    +0.014 C 
ATOM     33  C   UNL     1       6.458   3.530   0.127  0.00  0.00    +0.032 C 
ATOM     34  C   UNL     1       6.062   2.954  -1.234  0.00  0.00    +0.014 C 
ENDBRANCH   1  33
TORSDOF 6
