REMARK  Name = ZINC64491997
REMARK  14 active torsions:
REMARK  status: ('A' for Active; 'I' for Inactive)
REMARK    1  A    between atoms: C_1  and  C_2
REMARK    2  A    between atoms: C_2  and  N_3
REMARK    3  A    between atoms: N_6  and  C_9
REMARK    4  A    between atoms: C_9  and  C_10
REMARK    5  A    between atoms: C_10  and  C_11
REMARK    6  A    between atoms: C_11  and  N_12
REMARK    7  A    between atoms: C_13  and  C_15
REMARK    8  A    between atoms: C_22  and  C_24
REMARK    9  A    between atoms: C_26  and  C_36
REMARK   10  A    between atoms: C_27  and  C_31
REMARK   11  A    between atoms: C_28  and  C_30
REMARK   12  A    between atoms: C_31  and  O_33
REMARK   13  A    between atoms: O_33  and  C_34
REMARK   14  A    between atoms: C_34  and  C_35
REMARK                            x       y       z     vdW  Elec       q    Type
REMARK                         _______ _______ _______ _____ _____    ______ ____
ROOT
ATOM      1  C   UNL     1       2.090  -8.335   6.998  0.00  0.00    +0.092 C 
ATOM      2  C   UNL     1       2.477  -8.898   8.367  0.00  0.00    +0.016 C 
ATOM      3  C   UNL     1       2.349 -10.422   8.349  0.00  0.00    +0.020 C 
ATOM      4  C   UNL     1       3.306 -10.999   7.301  0.00  0.00    +0.108 C 
ATOM      5  N   UNL     1       3.035 -10.355   6.008  0.00  0.00    -0.296 N 
ATOM      6  C   UNL     1       3.043  -8.888   5.934  0.00  0.00    +0.120 C 
ATOM      7  C   UNL     1       2.784 -11.097   4.911  0.00  0.00    +0.261 C 
ATOM      8  O   UNL     1       2.445 -10.556   3.877  0.00  0.00    -0.269 OA
ENDROOT
BRANCH   7   9
ATOM      9  C   UNL     1       2.921 -12.568   4.966  0.00  0.00    +0.111 C 
ATOM     10  N   UNL     1       3.392 -13.270   5.954  0.00  0.00    -0.250 NA
ATOM     11  C   UNL     1       3.397 -14.586   5.725  0.00  0.00    +0.049 C 
ATOM     12  C   UNL     1       2.905 -14.893   4.501  0.00  0.00    +0.066 C 
ATOM     13  C   UNL     1       2.534 -13.557   3.883  0.00  0.00    +0.078 C 
ATOM     14  C   UNL     1       1.033 -13.487   3.596  0.00  0.00    +0.019 C 
ATOM     15  C   UNL     1       3.893 -15.610   6.713  0.00  0.00    +0.066 C 
BRANCH  12  16
ATOM     16  C   UNL     1       2.758 -16.224   3.906  0.00  0.00    +0.338 C 
ATOM     17  O   UNL     1       3.097 -17.210   4.531  0.00  0.00    -0.245 OA
BRANCH  16  18
ATOM     18  O   UNL     1       2.245 -16.355   2.665  0.00  0.00    -0.462 OA
BRANCH  18  19
ATOM     19  C   UNL     1       2.130 -17.682   2.147  0.00  0.00    +0.229 C 
ATOM     20  C   UNL     1       1.534 -17.631   0.740  0.00  0.00    +0.048 C 
ENDBRANCH  18  19
ENDBRANCH  16  18
ENDBRANCH  12  16
ENDBRANCH   7   9
BRANCH   1  22
ATOM     21  N   UNL     1       1.890  -6.116   5.923  0.00  0.00    -0.315 N 
ATOM     22  C   UNL     1       2.186  -6.831   7.026  0.00  0.00    +0.218 C 
ATOM     23  O   UNL     1       2.529  -6.265   8.042  0.00  0.00    -0.275 OA
ATOM     24  H   UNL     1       1.616  -6.569   5.110  0.00  0.00    +0.149 HD
BRANCH  21  25
ATOM     25  C   UNL     1       1.983  -4.654   5.951  0.00  0.00    +0.105 C 
BRANCH  25  26
ATOM     26  C   UNL     1       1.597  -4.093   4.581  0.00  0.00    +0.034 C 
BRANCH  26  27
ATOM     27  C   UNL     1       1.695  -2.566   4.610  0.00  0.00    +0.086 C 
BRANCH  27  31
ATOM     28  N   UNL     1       1.732  -0.422   0.967  0.00  0.00    +0.381 N 
ATOM     29  C   UNL     1       0.732  -0.051   1.976  0.00  0.00    -0.063 C 
ATOM     30  C   UNL     1       1.175  -0.565   3.348  0.00  0.00    +0.066 C 
ATOM     31  N   UNL     1       1.324  -2.026   3.295  0.00  0.00    -0.306 NA
ATOM     32  C   UNL     1       2.305  -2.415   2.271  0.00  0.00    +0.066 C 
ATOM     33  C   UNL     1       1.852  -1.885   0.909  0.00  0.00    -0.063 C 
ATOM     34  H   UNL     1       2.625  -0.022   1.215  0.00  0.00    -0.082 HD
BRANCH  28  36
ATOM     35  C   UNL     1       1.311   1.617  -0.322  0.00  0.00    -0.017 C 
ATOM     36  C   UNL     1       1.315   0.088  -0.346  0.00  0.00    -0.082 C 
ENDBRANCH  28  36
ENDBRANCH  27  31
ENDBRANCH  26  27
ENDBRANCH  25  26
ENDBRANCH  21  25
ENDBRANCH   1  22
TORSDOF 10
