REMARK  Name = ZINC09914535
REMARK  11 active torsions:
REMARK  status: ('A' for Active; 'I' for Inactive)
REMARK    1  A    between atoms: C_1  and  C_2
REMARK    2  A    between atoms: C_2  and  N_56
REMARK    3  A    between atoms: C_8  and  N_14
REMARK    4  A    between atoms: C_9  and  C_10
REMARK    5  A    between atoms: C_10  and  O_12
REMARK    6  A    between atoms: O_12  and  C_13
REMARK    7  A    between atoms: C_15  and  C_17
REMARK    8  A    between atoms: C_17  and  C_18
REMARK    9  A    between atoms: C_18  and  C_19
REMARK   10  A    between atoms: C_19  and  S_20
REMARK   11  A    between atoms: S_20  and  C_23
REMARK                            x       y       z     vdW  Elec       q    Type
REMARK                         _______ _______ _______ _____ _____    ______ ____
ROOT
ATOM      1  N   UNL     1      -1.582   2.281  -6.215  0.00  0.00    -0.279 N 
ATOM      2  C   UNL     1      -0.919   1.915  -5.101  0.00  0.00    +0.218 C 
ATOM      3  O   UNL     1       0.140   1.330  -5.189  0.00  0.00    -0.275 OA
ATOM      4  H   UNL     1      -2.429   2.748  -6.145  0.00  0.00    +0.155 HD
ENDROOT
BRANCH   1  10
ATOM      5  C   UNL     1      -0.016   1.920 -12.216  0.00  0.00    -0.074 C 
ATOM      6  C   UNL     1      -1.246   2.098 -11.321  0.00  0.00    +0.018 C 
ATOM      7  C   UNL     1      -0.821   1.861  -9.876  0.00  0.00    -0.025 A 
ATOM      8  C   UNL     1       0.339   1.220  -9.607  0.00  0.00    -0.021 A 
ATOM      9  S   UNL     1       0.427   1.171  -7.841  0.00  0.00    -0.079 S 
ATOM     10  C   UNL     1      -1.053   1.989  -7.463  0.00  0.00    +0.086 A 
ATOM     11  C   UNL     1      -1.585   2.276  -8.715  0.00  0.00    +0.091 A 
ATOM     12  C   UNL     1       1.310   0.681 -10.610  0.00  0.00    -0.035 C 
ATOM     13  N   UNL     1       0.620   0.619 -11.921  0.00  0.00    +0.383 N 
ATOM     14  H   UNL     1      -0.105  -0.107 -11.883  0.00  0.00    -0.081 HD
BRANCH  13  16
ATOM     15  C   UNL     1       2.625   1.390 -13.143  0.00  0.00    -0.017 C 
ATOM     16  C   UNL     1       1.588   0.277 -12.986  0.00  0.00    -0.082 C 
ENDBRANCH  13  16
BRANCH  11  17
ATOM     17  C   UNL     1      -2.865   2.974  -8.855  0.00  0.00    +0.342 C 
ATOM     18  O   UNL     1      -2.892   4.189  -8.916  0.00  0.00    -0.245 OA
BRANCH  17  19
ATOM     19  O   UNL     1      -4.013   2.270  -8.917  0.00  0.00    -0.464 OA
ATOM     20  C   UNL     1      -5.244   3.028  -9.057  0.00  0.00    +0.280 C 
ENDBRANCH  17  19
ENDBRANCH  11  17
ENDBRANCH   1  10
BRANCH   2  21
ATOM     21  C   UNL     1      -1.493   2.232  -3.744  0.00  0.00    +0.098 C 
BRANCH  21  22
ATOM     22  C   UNL     1      -0.551   1.712  -2.657  0.00  0.00    +0.032 C 
BRANCH  22  23
ATOM     23  C   UNL     1      -1.135   2.034  -1.279  0.00  0.00    +0.172 C 
BRANCH  23  24
ATOM     24  S   UNL     1      -0.017   1.417   0.010  0.00  0.00    -0.003 S 
ATOM     25  O   UNL     1       0.002  -0.004   0.002  0.00  0.00    -0.169 OA
ATOM     26  O   UNL     1       1.195   2.158   0.002  0.00  0.00    -0.169 OA
BRANCH  24  27
ATOM     27  C   UNL     1      -0.798   1.847   1.530  0.00  0.00    +0.088 A 
ATOM     28  C   UNL     1      -0.521   3.062   2.129  0.00  0.00    +0.028 A 
ATOM     29  C   UNL     1      -1.137   3.403   3.318  0.00  0.00    +0.022 A 
ATOM     30  C   UNL     1      -2.023   2.523   3.915  0.00  0.00    +0.041 A 
ATOM     31  C   UNL     1      -2.295   1.305   3.318  0.00  0.00    +0.022 A 
ATOM     32  C   UNL     1      -1.683   0.968   2.126  0.00  0.00    +0.028 A 
ATOM     33 CL   UNL     1      -2.792   2.948   5.412  0.00  0.00    -0.084 Cl
ENDBRANCH  24  27
ENDBRANCH  23  24
ENDBRANCH  22  23
ENDBRANCH  21  22
ENDBRANCH   2  21
TORSDOF 9
