REMARK  Name = ZINC48917366
REMARK  6 active torsions:
REMARK  status: ('A' for Active; 'I' for Inactive)
REMARK    1  A    between atoms: C_1  and  C_2
REMARK    2  A    between atoms: C_2  and  C_3
REMARK    3  A    between atoms: C_7  and  C_21
REMARK    4  A    between atoms: N_10  and  C_11
REMARK    5  A    between atoms: C_14  and  N_20
REMARK    6  A    between atoms: C_16  and  C_17
REMARK                            x       y       z     vdW  Elec       q    Type
REMARK                         _______ _______ _______ _____ _____    ______ ____
ROOT
ATOM      1  C   UNL     1      -3.049   0.861   1.314  0.00  0.00    +0.042 A 
ATOM      2  C   UNL     1      -2.760   2.219   1.263  0.00  0.00    +0.026 A 
ATOM      3  C   UNL     1      -3.771   3.148   1.393  0.00  0.00    +0.024 A 
ATOM      4  C   UNL     1      -5.087   2.733   1.574  0.00  0.00    +0.025 A 
ATOM      5  C   UNL     1      -5.391   1.385   1.626  0.00  0.00    +0.037 A 
ATOM      6  C   UNL     1      -4.374   0.436   1.490  0.00  0.00    +0.059 A 
ENDROOT
BRANCH   1  12
ATOM      7  C   UNL     1      -1.650  -0.606  -0.136  0.00  0.00    +0.099 C 
ATOM      8  C   UNL     1      -1.623  -2.137  -0.052  0.00  0.00    +0.182 C 
ATOM      9  O   UNL     1      -0.802  -2.533   1.050  0.00  0.00    -0.373 OA
ATOM     10  C   UNL     1      -1.282  -2.096   2.324  0.00  0.00    +0.132 C 
ATOM     11  C   UNL     1      -1.291  -0.564   2.361  0.00  0.00    +0.136 C 
ATOM     12  N   UNL     1      -2.027  -0.075   1.183  0.00  0.00    -0.322 N 
ATOM     13  C   UNL     1      -0.364  -2.630   3.426  0.00  0.00    +0.039 C 
BRANCH   7  15
ATOM     14  C   UNL     1      -0.322   1.431  -0.711  0.00  0.00    +0.006 C 
ATOM     15  C   UNL     1      -0.264  -0.087  -0.524  0.00  0.00    +0.021 C 
ENDBRANCH   7  15
ENDBRANCH   1  12
BRANCH   6  16
ATOM     16  C   UNL     1      -4.690  -1.003   1.538  0.00  0.00    +0.243 C 
ATOM     17  O   UNL     1      -3.801  -1.825   1.431  0.00  0.00    -0.270 OA
ATOM     18  N   UNL     1      -5.966  -1.407   1.700  0.00  0.00    -0.325 N 
ATOM     19  H   UNL     1      -6.675  -0.751   1.786  0.00  0.00    +0.145 HD
ATOM     20  H   UNL     1      -6.174  -2.354   1.732  0.00  0.00    +0.145 HD
ENDBRANCH   6  16
BRANCH   4  21
ATOM     21  N   UNL     1      -6.107   3.684   1.705  0.00  0.00    -0.358 N 
ATOM     22  H   UNL     1      -5.896   4.630   1.669  0.00  0.00    +0.142 HD
ATOM     23  H   UNL     1      -7.025   3.397   1.831  0.00  0.00    +0.142 HD
ENDBRANCH   4  21
TORSDOF 4
