REMARK  Name = ZINC67103673
REMARK  6 active torsions:
REMARK  status: ('A' for Active; 'I' for Inactive)
REMARK    1  A    between atoms: C_3  and  C_6
REMARK    2  A    between atoms: C_6  and  C_8
REMARK    3  A    between atoms: C_6  and  N_15
REMARK    4  A    between atoms: N_18  and  N_19
REMARK    5  A    between atoms: C_20  and  C_22
REMARK    6  A    between atoms: C_22  and  C_23
REMARK                            x       y       z     vdW  Elec       q    Type
REMARK                         _______ _______ _______ _____ _____    ______ ____
ROOT
ATOM      1  N   UNL     1       4.587   1.010   0.851  0.00  0.00    -0.287 N 
ATOM      2  C   UNL     1       4.641   1.268   2.173  0.00  0.00    +0.317 C 
ATOM      3  O   UNL     1       4.005   2.194   2.639  0.00  0.00    -0.251 OA
ATOM      4  N   UNL     1       5.401   0.500   2.979  0.00  0.00    -0.218 N 
ATOM      5  H   UNL     1       5.094   0.272   0.480  0.00  0.00    +0.151 HD
ATOM      6  H   UNL     1       5.441   0.685   3.930  0.00  0.00    +0.174 HD
ENDROOT
BRANCH   4   7
ATOM      7  N   UNL     1       6.134  -0.567   2.442  0.00  0.00    -0.233 N 
ATOM      8  C   UNL     1       6.894  -1.335   3.248  0.00  0.00    +0.229 C 
ATOM      9  O   UNL     1       6.943  -1.103   4.437  0.00  0.00    -0.274 OA
ATOM     10  H   UNL     1       6.095  -0.752   1.491  0.00  0.00    +0.173 HD
BRANCH   8  11
ATOM     11  C   UNL     1       7.683  -2.482   2.670  0.00  0.00    +0.101 C 
BRANCH  11  12
ATOM     12  C   UNL     1       8.453  -3.186   3.789  0.00  0.00    -0.002 C 
ATOM     13  C   UNL     1       9.496  -2.229   4.370  0.00  0.00    +0.004 C 
ATOM     14  C   UNL     1      10.266  -2.933   5.489  0.00  0.00    +0.000 C 
ATOM     15  C   UNL     1      10.967  -4.171   4.926  0.00  0.00    +0.000 C 
ATOM     16  C   UNL     1       9.924  -5.127   4.345  0.00  0.00    +0.000 C 
ATOM     17  C   UNL     1       9.154  -4.424   3.226  0.00  0.00    +0.004 C 
ENDBRANCH  11  12
ENDBRANCH   8  11
ENDBRANCH   4   7
BRANCH   1  18
ATOM     18  C   UNL     1       3.761   1.845  -0.024  0.00  0.00    +0.142 C 
BRANCH  18  19
ATOM     19  C   UNL     1       4.303   1.790  -1.429  0.00  0.00    -0.022 A 
ATOM     20  C   UNL     1       4.760   0.592  -1.947  0.00  0.00    +0.008 A 
ATOM     21  C   UNL     1       5.258   0.540  -3.235  0.00  0.00    +0.038 A 
ATOM     22  C   UNL     1       5.298   1.689  -4.008  0.00  0.00    +0.123 A 
ATOM     23  C   UNL     1       4.840   2.888  -3.488  0.00  0.00    +0.038 A 
ATOM     24  C   UNL     1       4.338   2.936  -2.202  0.00  0.00    +0.008 A 
ATOM     25  F   UNL     1       5.784   1.639  -5.267  0.00  0.00    -0.205 F 
ENDBRANCH  18  19
BRANCH  18  28
ATOM     26  C   UNL     1      -0.016   1.351   0.009  0.00  0.00    +0.008 A 
ATOM     27  C   UNL     1       1.183   2.038   0.002  0.00  0.00    +0.013 A 
ATOM     28  C   UNL     1       2.343   1.336  -0.013  0.00  0.00    +0.014 A 
ATOM     29  S   UNL     1       1.754  -0.349  -0.017  0.00  0.00    -0.099 S 
ATOM     30  C   UNL     1       0.002  -0.004   0.002  0.00  0.00    +0.045 A 
ENDBRANCH  18  28
ENDBRANCH   1  18
TORSDOF 6
