REMARK  Name = ZINC36029061
REMARK  11 active torsions:
REMARK  status: ('A' for Active; 'I' for Inactive)
REMARK    1  A    between atoms: C_1  and  C_2
REMARK    2  A    between atoms: C_2  and  C_3
REMARK    3  A    between atoms: C_2  and  C_4
REMARK    4  A    between atoms: C_4  and  C_5
REMARK    5  A    between atoms: N_9  and  C_27
REMARK    6  A    between atoms: N_14  and  C_17
REMARK    7  A    between atoms: C_17  and  N_19
REMARK    8  A    between atoms: N_19  and  C_20
REMARK    9  A    between atoms: C_27  and  C_28
REMARK   10  A    between atoms: C_28  and  C_29
REMARK   11  A    between atoms: C_28  and  C_30
REMARK                            x       y       z     vdW  Elec       q    Type
REMARK                         _______ _______ _______ _____ _____    ______ ____
ROOT
ATOM      1  C   UNL     1      -0.195  -0.018   2.151  0.00  0.00    +0.019 C 
ATOM      2  C   UNL     1       0.599  -0.795   3.179  0.00  0.00    +0.200 C 
ATOM      3  O   UNL     1       1.097  -1.888   3.012  0.00  0.00    -0.277 OA
ATOM      4  N   UNL     1       0.659  -0.065   4.312  0.00  0.00    -0.313 N 
ATOM      5  C   UNL     1      -0.068   1.193   4.124  0.00  0.00    +0.006 C 
ATOM      6  N   UNL     1      -0.225   1.373   2.664  0.00  0.00    +0.401 N 
ATOM      7  C   UNL     1      -1.443   1.112   4.783  0.00  0.00    +0.025 C 
ATOM      8  C   UNL     1      -1.272   0.886   6.289  0.00  0.00    +0.107 C 
ATOM      9  N   UNL     1      -0.395   1.935   6.828  0.00  0.00    -0.312 N 
ATOM     10  C   UNL     1       0.922   2.142   6.210  0.00  0.00    +0.107 C 
ATOM     11  C   UNL     1       0.732   2.357   4.705  0.00  0.00    +0.025 C 
ATOM     12  H   UNL     1       0.542   1.908   2.286  0.00  0.00    -0.082 HD
ATOM     13  H   UNL     1      -1.108   1.812   2.450  0.00  0.00    -0.082 HD
ENDROOT
BRANCH   9  14
ATOM     14  C   UNL     1      -0.792   2.693   7.869  0.00  0.00    +0.137 C 
ATOM     15  S   UNL     1      -2.277   2.361   8.653  0.00  0.00    -0.018 S 
BRANCH  14  16
ATOM     16  N   UNL     1      -0.019   3.712   8.293  0.00  0.00    -0.295 N 
ATOM     17  H   UNL     1      -0.289   4.629   8.124  0.00  0.00    +0.154 HD
BRANCH  16  18
ATOM     18  C   UNL     1       1.173   3.449   8.978  0.00  0.00    +0.068 A 
ATOM     19  C   UNL     1       1.596   2.140   9.161  0.00  0.00    +0.026 A 
ATOM     20  C   UNL     1       2.773   1.883   9.837  0.00  0.00    +0.002 A 
ATOM     21  C   UNL     1       3.531   2.929  10.332  0.00  0.00    +0.003 A 
ATOM     22  C   UNL     1       3.114   4.235  10.152  0.00  0.00    +0.040 A 
ATOM     23  C   UNL     1       1.940   4.499   9.472  0.00  0.00    +0.144 A 
ATOM     24  F   UNL     1       1.534   5.776   9.292  0.00  0.00    -0.204 F 
ENDBRANCH  16  18
ENDBRANCH  14  16
ENDBRANCH   9  14
BRANCH   1  25
ATOM     25  C   UNL     1       0.502  -0.069   0.790  0.00  0.00    -0.004 C 
BRANCH  25  27
ATOM     26  C   UNL     1       0.473   0.826  -1.543  0.00  0.00    +0.007 C 
ATOM     27  C   UNL     1      -0.300   0.749  -0.225  0.00  0.00    -0.018 C 
ATOM     28  C   UNL     1      -1.653   0.078  -0.466  0.00  0.00    +0.007 C 
ENDBRANCH  25  27
ENDBRANCH   1  25
BRANCH   4  29
ATOM     29  C   UNL     1       1.346  -0.469   5.542  0.00  0.00    +0.109 C 
BRANCH  29  30
ATOM     30  C   UNL     1       2.807  -0.020   5.482  0.00  0.00    +0.000 C 
ATOM     31  C   UNL     1       3.495  -0.343   6.809  0.00  0.00    +0.009 C 
ATOM     32  C   UNL     1       3.520  -0.756   4.346  0.00  0.00    +0.009 C 
ENDBRANCH  29  30
ENDBRANCH   4  29
TORSDOF 7
