REMARK  Name = ZINC29189983
REMARK  11 active torsions:
REMARK  status: ('A' for Active; 'I' for Inactive)
REMARK    1  A    between atoms: C_1  and  C_2
REMARK    2  A    between atoms: C_2  and  C_3
REMARK    3  A    between atoms: C_2  and  C_4
REMARK    4  A    between atoms: C_4  and  C_6
REMARK    5  A    between atoms: C_4  and  N_11
REMARK    6  A    between atoms: N_11  and  C_12
REMARK    7  A    between atoms: C_12  and  C_13
REMARK    8  A    between atoms: C_16  and  C_29
REMARK    9  A    between atoms: C_19  and  C_21
REMARK   10  A    between atoms: C_24  and  O_27
REMARK   11  A    between atoms: O_27  and  C_28
REMARK                            x       y       z     vdW  Elec       q    Type
REMARK                         _______ _______ _______ _____ _____    ______ ____
ROOT
ATOM      1  C   UNL     1      -2.934   3.045  -1.229  0.00  0.00    +0.218 C 
ATOM      2  O   UNL     1      -3.026   2.957  -2.436  0.00  0.00    -0.276 OA
ATOM      3  N   UNL     1      -1.872   2.512  -0.594  0.00  0.00    -0.184 N 
ATOM      4  C   UNL     1      -0.757   1.801  -1.239  0.00  0.00    +0.172 C 
ATOM      5  C   UNL     1       0.158   1.416  -0.060  0.00  0.00    +0.090 C 
ATOM      6  C   UNL     1      -0.556   1.967   1.154  0.00  0.00    +0.069 C 
ATOM      7  N   UNL     1      -1.649   2.545   0.781  0.00  0.00    -0.181 NA
ENDROOT
BRANCH   6   8
ATOM      8  C   UNL     1      -0.079   1.857   2.545  0.00  0.00    -0.002 A 
ATOM      9  C   UNL     1       1.121   1.198   2.824  0.00  0.00    +0.013 A 
ATOM     10  C   UNL     1       1.566   1.103   4.124  0.00  0.00    +0.046 A 
ATOM     11  C   UNL     1       0.818   1.651   5.158  0.00  0.00    +0.120 A 
ATOM     12  C   UNL     1      -0.378   2.303   4.886  0.00  0.00    +0.046 A 
ATOM     13  C   UNL     1      -0.828   2.408   3.588  0.00  0.00    +0.013 A 
BRANCH  11  14
ATOM     14  O   UNL     1       1.258   1.550   6.440  0.00  0.00    -0.495 OA
ATOM     15  C   UNL     1       2.496   0.867   6.649  0.00  0.00    +0.277 C 
ENDBRANCH  11  14
ENDBRANCH   6   8
BRANCH   4  16
ATOM     16  C   UNL     1      -0.030   2.707  -2.200  0.00  0.00    +0.128 A 
ATOM     17  C   UNL     1       0.540   2.330  -3.358  0.00  0.00    +0.046 A 
ATOM     18  C   UNL     1       1.104   3.492  -3.934  0.00  0.00    +0.041 A 
ATOM     19  C   UNL     1       0.845   4.509  -3.093  0.00  0.00    +0.195 A 
ATOM     20  O   UNL     1       0.152   4.029  -2.047  0.00  0.00    -0.466 OA
ENDBRANCH   4  16
BRANCH   1  21
ATOM     21  C   UNL     1      -4.008   3.749  -0.441  0.00  0.00    +0.018 C 
BRANCH  21  22
ATOM     22  N   UNL     1      -5.048   4.236  -1.357  0.00  0.00    +0.390 N 
ATOM     23  H   UNL     1      -5.539   3.371  -1.825  0.00  0.00    -0.084 HD
ATOM     24  H   UNL     1      -4.573   4.853  -2.134  0.00  0.00    -0.084 HD
BRANCH  22  25
ATOM     25  C   UNL     1      -6.049   5.037  -0.639  0.00  0.00    -0.031 C 
BRANCH  25  26
ATOM     26  C   UNL     1      -7.107   4.128  -0.070  0.00  0.00    -0.024 A 
ATOM     27  C   UNL     1      -7.725   4.186   1.135  0.00  0.00    +0.009 A 
ATOM     28  C   UNL     1      -8.679   3.236   1.445  0.00  0.00    +0.008 A 
ATOM     29  C   UNL     1      -8.961   2.267   0.540  0.00  0.00    +0.045 A 
ATOM     30  S   UNL     1      -7.866   2.689  -0.805  0.00  0.00    -0.103 S 
ENDBRANCH  25  26
BRANCH  25  32
ATOM     31  C   UNL     1      -5.648   7.041  -2.078  0.00  0.00    +0.006 C 
ATOM     32  C   UNL     1      -6.696   6.030  -1.606  0.00  0.00    -0.027 C 
ATOM     33  C   UNL     1      -7.256   5.276  -2.814  0.00  0.00    +0.006 C 
ENDBRANCH  25  32
ENDBRANCH  22  25
ENDBRANCH  21  22
ENDBRANCH   1  21
TORSDOF 8
