REMARK  Name = ZINC24505100
REMARK  11 active torsions:
REMARK  status: ('A' for Active; 'I' for Inactive)
REMARK    1  A    between atoms: C_1  and  C_2
REMARK    2  A    between atoms: C_2  and  C_3
REMARK    3  A    between atoms: C_2  and  C_4
REMARK    4  A    between atoms: C_2  and  C_5
REMARK    5  A    between atoms: C_8  and  O_11
REMARK    6  A    between atoms: O_11  and  C_12
REMARK    7  A    between atoms: C_12  and  C_13
REMARK    8  A    between atoms: C_16  and  S_19
REMARK    9  A    between atoms: N_17  and  N_18
REMARK   10  A    between atoms: S_19  and  C_20
REMARK   11  A    between atoms: C_20  and  C_21
REMARK                            x       y       z     vdW  Elec       q    Type
REMARK                         _______ _______ _______ _____ _____    ______ ____
ROOT
ATOM      1  C   UNL     1       0.523   0.967   7.723  0.00  0.00    +0.189 A 
ATOM      2  N   UNL     1       0.230   2.160   7.289  0.00  0.00    -0.128 NA
ATOM      3  N   UNL     1      -0.431   2.080   6.190  0.00  0.00    -0.121 NA
ATOM      4  C   UNL     1      -0.604   0.819   5.865  0.00  0.00    +0.209 A 
ATOM      5  N   UNL     1       0.002   0.070   6.832  0.00  0.00    -0.225 N 
ENDROOT
BRANCH   5   6
ATOM      6  N   UNL     1       0.073  -1.292   6.896  0.00  0.00    -0.295 N 
ATOM      7  H   UNL     1      -0.391  -1.905   6.109  0.00  0.00    +0.163 HD
ATOM      8  H   UNL     1       0.595  -1.777   7.735  0.00  0.00    +0.163 HD
ENDBRANCH   5   6
BRANCH   1   9
ATOM      9  C   UNL     1       1.293   0.637   8.976  0.00  0.00    +0.306 C 
BRANCH   9  10
ATOM     10  O   UNL     1       2.687   0.560   8.672  0.00  0.00    -0.484 OA
BRANCH  10  14
ATOM     11  C   UNL     1       5.239  -0.326  11.790  0.00  0.00    -0.042 A 
ATOM     12  C   UNL     1       5.746  -0.119  10.521  0.00  0.00    +0.008 A 
ATOM     13  C   UNL     1       4.894   0.178   9.475  0.00  0.00    +0.046 A 
ATOM     14  C   UNL     1       3.528   0.268   9.699  0.00  0.00    +0.121 A 
ATOM     15  C   UNL     1       3.022   0.066  10.975  0.00  0.00    +0.046 A 
ATOM     16  C   UNL     1       3.878  -0.236  12.016  0.00  0.00    +0.008 A 
BRANCH  11  18
ATOM     17  C   UNL     1       7.170   0.495  13.111  0.00  0.00    +0.015 C 
ATOM     18  C   UNL     1       6.171  -0.649  12.929  0.00  0.00    -0.013 C 
ATOM     19  C   UNL     1       5.362  -0.829  14.215  0.00  0.00    +0.015 C 
ATOM     20  C   UNL     1       6.928  -1.942  12.618  0.00  0.00    +0.015 C 
ENDBRANCH  11  18
ENDBRANCH  10  14
ENDBRANCH   9  10
ENDBRANCH   1   9
BRANCH   4  21
ATOM     21  S   UNL     1      -1.452   0.210   4.446  0.00  0.00    -0.080 S 
BRANCH  21  22
ATOM     22  C   UNL     1      -1.954   1.774   3.684  0.00  0.00    +0.116 C 
BRANCH  22  23
ATOM     23  C   UNL     1      -2.718   1.493   2.416  0.00  0.00    +0.008 A 
ATOM     24  C   UNL     1      -4.090   1.339   2.457  0.00  0.00    +0.046 A 
ATOM     25  C   UNL     1      -4.793   1.081   1.292  0.00  0.00    +0.124 A 
ATOM     26  C   UNL     1      -4.120   0.975   0.086  0.00  0.00    +0.047 A 
ATOM     27  C   UNL     1      -2.747   1.129   0.043  0.00  0.00    +0.023 A 
ATOM     28  C   UNL     1      -2.043   1.390   1.208  0.00  0.00    +0.133 A 
ATOM     29  O   UNL     1      -0.689   1.550   1.180  0.00  0.00    -0.466 OA
ATOM     30  C   UNL     1      -0.013   1.086   0.008  0.00  0.00    +0.394 C 
ATOM     31  O   UNL     1      -0.712   1.564  -1.147  0.00  0.00    -0.339 OA
ATOM     32  C   UNL     1      -2.025   1.010  -1.276  0.00  0.00    +0.202 C 
ATOM     33  F   UNL     1      -6.135   0.931   1.332  0.00  0.00    -0.205 F 
ENDBRANCH  22  23
ENDBRANCH  21  22
ENDBRANCH   4  21
TORSDOF 8
