REMARK  Name = ZINC35789974
REMARK  4 active torsions:
REMARK  status: ('A' for Active; 'I' for Inactive)
REMARK    1  A    between atoms: C_5  and  C_7
REMARK    2  A    between atoms: C_7  and  N_8
REMARK    3  A    between atoms: C_17  and  C_19
REMARK    4  A    between atoms: C_23  and  N_25
REMARK                            x       y       z     vdW  Elec       q    Type
REMARK                         _______ _______ _______ _____ _____    ______ ____
ROOT
ATOM      1  N   UNL     1       1.629  -2.686   1.389  0.00  0.00    +0.391 N 
ATOM      2  C   UNL     1       0.599  -2.135   2.272  0.00  0.00    -0.075 C 
ATOM      3  C   UNL     1       0.773  -2.640   3.699  0.00  0.00    +0.003 C 
ATOM      4  C   UNL     1       2.263  -2.823   4.005  0.00  0.00    +0.119 C 
ATOM      5  N   UNL     1       2.668  -4.176   3.606  0.00  0.00    -0.352 N 
ATOM      6  C   UNL     1       3.418  -5.045   4.339  0.00  0.00    +0.086 A 
ATOM      7  C   UNL     1       3.586  -6.171   3.616  0.00  0.00    +0.019 A 
ATOM      8  C   UNL     1       2.909  -5.992   2.393  0.00  0.00    +0.021 A 
ATOM      9  C   UNL     1       2.351  -4.766   2.416  0.00  0.00    +0.009 A 
ATOM     10  C   UNL     1       1.509  -4.149   1.326  0.00  0.00    +0.011 C 
ATOM     11  H   UNL     1       2.541  -2.441   1.746  0.00  0.00    -0.080 HD
ENDROOT
BRANCH  10  12
ATOM     12  C   UNL     1       1.989  -4.636  -0.017  0.00  0.00    -0.053 A 
ATOM     13  C   UNL     1       3.284  -4.375  -0.425  0.00  0.00    +0.002 A 
ATOM     14  C   UNL     1       3.724  -4.821  -1.656  0.00  0.00    +0.002 A 
ATOM     15  C   UNL     1       2.870  -5.530  -2.481  0.00  0.00    +0.033 A 
ATOM     16  C   UNL     1       1.575  -5.792  -2.073  0.00  0.00    +0.126 A 
ATOM     17  C   UNL     1       1.136  -5.349  -0.839  0.00  0.00    +0.035 A 
BRANCH  16  18
ATOM     18  N   UNL     1       0.660  -6.550  -2.955  0.00  0.00    +0.056 N 
ATOM     19  O   UNL     1       1.045  -6.940  -4.033  0.00  0.00    -0.126 OA
ATOM     20  O   UNL     1      -0.472  -6.779  -2.599  0.00  0.00    -0.126 OA
ENDBRANCH  16  18
ENDBRANCH  10  12
BRANCH   1  21
ATOM     21  C   UNL     1       1.467  -2.125   0.041  0.00  0.00    -0.040 C 
BRANCH  21  26
ATOM     22  C   UNL     1       0.748   1.579   0.155  0.00  0.00    +0.000 A 
ATOM     23  C   UNL     1       2.025   2.108   0.183  0.00  0.00    +0.001 A 
ATOM     24  C   UNL     1       3.122   1.268   0.166  0.00  0.00    +0.020 A 
ATOM     25  C   UNL     1       2.942  -0.103   0.120  0.00  0.00    +0.042 A 
ATOM     26  C   UNL     1       1.664  -0.632   0.092  0.00  0.00    -0.046 A 
ATOM     27  C   UNL     1       0.567   0.210   0.109  0.00  0.00    +0.003 A 
ATOM     28 CL   UNL     1       4.319  -1.160   0.097  0.00  0.00    -0.083 Cl
ENDBRANCH  21  26
ENDBRANCH   1  21
TORSDOF 4
