REMARK  Name = ZINC10256842
REMARK  8 active torsions:
REMARK  status: ('A' for Active; 'I' for Inactive)
REMARK    1  A    between atoms: C_1  and  C_2
REMARK    2  A    between atoms: C_2  and  N_3
REMARK    3  A    between atoms: N_3  and  C_4
REMARK    4  A    between atoms: C_4  and  C_5
REMARK    5  A    between atoms: C_6  and  C_8
REMARK    6  A    between atoms: C_8  and  N_9
REMARK    7  A    between atoms: C_11  and  C_18
REMARK    8  A    between atoms: C_18  and  C_20
REMARK                            x       y       z     vdW  Elec       q    Type
REMARK                         _______ _______ _______ _____ _____    ______ ____
ROOT
ATOM      1  C   UNL     1      -0.186   0.132   3.782  0.00  0.00    +0.249 C 
ATOM      2  O   UNL     1      -1.085   0.794   3.301  0.00  0.00    -0.282 OA
ENDROOT
BRANCH   1   3
ATOM      3  C   UNL     1       0.101  -1.232   3.252  0.00  0.00    +0.287 C 
ATOM      4  O   UNL     1       1.085  -1.835   3.629  0.00  0.00    -0.266 OA
ATOM      5  N   UNL     1      -0.733  -1.797   2.357  0.00  0.00    -0.294 N 
ATOM      6  C   UNL     1      -2.004  -1.152   2.005  0.00  0.00    +0.113 C 
ATOM      7  C   UNL     1      -3.148  -2.150   2.116  0.00  0.00    +0.027 C 
ATOM      8  C   UNL     1      -2.826  -3.442   1.364  0.00  0.00    +0.018 C 
ATOM      9  C   UNL     1      -1.554  -4.046   1.964  0.00  0.00    +0.054 C 
ATOM     10  C   UNL     1      -0.390  -3.073   1.709  0.00  0.00    +0.117 C 
ATOM     11  C   UNL     1      -1.715  -4.189   3.460  0.00  0.00    +0.027 A 
ATOM     12  C   UNL     1      -0.982  -5.153   4.078  0.00  0.00    +0.022 A 
ATOM     13  C   UNL     1      -1.027  -5.299   5.469  0.00  0.00    +0.007 A 
ATOM     14  C   UNL     1      -1.792  -4.436   6.197  0.00  0.00    +0.070 A 
ATOM     15  C   UNL     1      -2.526  -3.446   5.530  0.00  0.00    +0.251 A 
ATOM     16  O   UNL     1      -3.160  -2.626   6.175  0.00  0.00    -0.268 OA
ATOM     17  N   UNL     1      -2.538  -3.388   4.175  0.00  0.00    -0.312 N 
ATOM     18  C   UNL     1      -3.492  -2.466   3.560  0.00  0.00    +0.130 C 
ENDBRANCH   1   3
BRANCH   1  21
ATOM     19  N   UNL     1       2.149   0.864   6.483  0.00  0.00    -0.337 N 
ATOM     20  C   UNL     1       1.659   0.049   5.532  0.00  0.00    +0.099 A 
ATOM     21  C   UNL     1       0.614   0.674   4.879  0.00  0.00    +0.052 A 
ATOM     22  C   UNL     1       0.464   1.997   5.516  0.00  0.00    +0.011 A 
ATOM     23  C   UNL     1       1.453   2.056   6.512  0.00  0.00    +0.050 A 
ATOM     24  C   UNL     1       1.562   3.200   7.294  0.00  0.00    +0.026 A 
ATOM     25  C   UNL     1       0.705   4.260   7.088  0.00  0.00    +0.002 A 
ATOM     26  C   UNL     1      -0.270   4.199   6.104  0.00  0.00    +0.001 A 
ATOM     27  C   UNL     1      -0.395   3.073   5.319  0.00  0.00    +0.011 A 
BRANCH  19  28
ATOM     28  C   UNL     1       3.266   0.531   7.370  0.00  0.00    +0.217 C 
BRANCH  28  30
ATOM     29  N   UNL     1       3.582  -0.404   9.639  0.00  0.00    -0.301 N 
ATOM     30  C   UNL     1       2.731  -0.026   8.664  0.00  0.00    +0.235 C 
ATOM     31  O   UNL     1       1.534  -0.134   8.829  0.00  0.00    -0.274 OA
BRANCH  29  33
ATOM     32  C   UNL     1       5.487   1.103   9.926  0.00  0.00    +0.024 C 
ATOM     33  C   UNL     1       5.027  -0.273   9.440  0.00  0.00    +0.104 C 
ENDBRANCH  29  33
BRANCH  29  34
ATOM     34  C   UNL     1       3.061  -0.945  10.897  0.00  0.00    +0.104 C 
ATOM     35  C   UNL     1       2.924  -2.464  10.780  0.00  0.00    +0.024 C 
ENDBRANCH  29  34
ENDBRANCH  28  30
ENDBRANCH  19  28
ENDBRANCH   1  21
TORSDOF 6
