REMARK  Name = ZINC23308158
REMARK  8 active torsions:
REMARK  status: ('A' for Active; 'I' for Inactive)
REMARK    1  A    between atoms: C_1  and  C_2
REMARK    2  A    between atoms: C_2  and  C_4
REMARK    3  A    between atoms: C_2  and  S_6
REMARK    4  A    between atoms: S_6  and  C_7
REMARK    5  A    between atoms: C_11  and  S_23
REMARK    6  A    between atoms: N_15  and  C_16
REMARK    7  A    between atoms: C_16  and  C_17
REMARK    8  A    between atoms: S_23  and  N_26
REMARK                            x       y       z     vdW  Elec       q    Type
REMARK                         _______ _______ _______ _____ _____    ______ ____
ROOT
ATOM      1  C   UNL     1      -0.505   3.519   0.026  0.00  0.00    +0.171 A 
ATOM      2  N   UNL     1      -1.017   2.313   0.019  0.00  0.00    -0.222 NA
ATOM      3  C   UNL     1      -0.017   1.393   0.010  0.00  0.00    +0.092 A 
ATOM      4  C   UNL     1       0.002  -0.004   0.002  0.00  0.00    +0.058 A 
ATOM      5  C   UNL     1       1.206  -0.672  -0.013  0.00  0.00    +0.108 A 
ATOM      6  C   UNL     1       2.401   0.033  -0.021  0.00  0.00    +0.030 A 
ATOM      7  C   UNL     1       2.400   1.412  -0.014  0.00  0.00    +0.030 A 
ATOM      8  C   UNL     1       1.196   2.101   0.002  0.00  0.00    +0.070 A 
ATOM      9  N   UNL     1       0.859   3.445   0.012  0.00  0.00    -0.316 N 
ENDROOT
BRANCH   5  10
ATOM     10  S   UNL     1       1.229  -2.433  -0.023  0.00  0.00    +0.061 S 
ATOM     11  O   UNL     1       2.485  -2.826   0.514  0.00  0.00    -0.153 OA
ATOM     12  O   UNL     1      -0.005  -2.859   0.538  0.00  0.00    -0.153 OA
BRANCH  10  13
ATOM     13  N   UNL     1       1.221  -2.914  -1.607  0.00  0.00    -0.172 NA
ATOM     14  C   UNL     1      -0.045  -3.157  -2.318  0.00  0.00    +0.137 C 
ATOM     15  C   UNL     1      -0.006  -2.379  -3.644  0.00  0.00    +0.177 C 
ATOM     16  O   UNL     1       1.192  -2.713  -4.349  0.00  0.00    -0.377 OA
ATOM     17  C   UNL     1       2.394  -2.347  -3.667  0.00  0.00    +0.177 C 
ATOM     18  C   UNL     1       2.478  -3.118  -2.344  0.00  0.00    +0.137 C 
ENDBRANCH  10  13
ENDBRANCH   5  10
BRANCH   1  19
ATOM     19  S   UNL     1      -1.438   5.014   0.044  0.00  0.00    -0.070 S 
BRANCH  19  21
ATOM     20  C   UNL     1      -3.374   3.590  -1.254  0.00  0.00    +0.035 C 
ATOM     21  C   UNL     1      -3.116   4.338   0.056  0.00  0.00    +0.153 C 
BRANCH  21  22
ATOM     22  C   UNL     1      -4.087   5.436   0.192  0.00  0.00    +0.077 C 
ATOM     23  N   UNL     1      -4.836   6.284   0.298  0.00  0.00    -0.195 NA
ENDBRANCH  21  22
ENDBRANCH  19  21
ENDBRANCH   1  19
BRANCH   9  24
ATOM     24  C   UNL     1       1.791   4.575   0.009  0.00  0.00    +0.156 C 
BRANCH  24  25
ATOM     25  C   UNL     1       2.101   4.976  -1.434  0.00  0.00    +0.138 C 
ATOM     26  C   UNL     1       3.044   6.205  -1.460  0.00  0.00    +0.035 C 
ATOM     27  C   UNL     1       3.715   6.033  -2.850  0.00  0.00    +0.031 C 
ATOM     28  C   UNL     1       3.801   4.497  -2.984  0.00  0.00    +0.160 C 
ATOM     29  O   UNL     1       2.830   3.930  -2.097  0.00  0.00    -0.375 OA
ENDBRANCH  24  25
ENDBRANCH   9  24
TORSDOF 7
