REMARK  Name = ZINC64450875
REMARK  8 active torsions:
REMARK  status: ('A' for Active; 'I' for Inactive)
REMARK    1  A    between atoms: C_1  and  C_2
REMARK    2  A    between atoms: C_2  and  C_3
REMARK    3  A    between atoms: C_2  and  C_4
REMARK    4  A    between atoms: C_2  and  N_5
REMARK    5  A    between atoms: N_5  and  C_6
REMARK    6  A    between atoms: C_7  and  C_33
REMARK    7  A    between atoms: C_12  and  N_15
REMARK    8  A    between atoms: C_21  and  C_23
REMARK                            x       y       z     vdW  Elec       q    Type
REMARK                         _______ _______ _______ _____ _____    ______ ____
ROOT
ATOM      1  C   UNL     1       2.007   0.521  -1.334  0.00  0.00    +0.143 A 
ATOM      2  C   UNL     1       2.859   0.452  -2.392  0.00  0.00    +0.088 A 
ATOM      3  N   UNL     1       3.971   1.171  -2.080  0.00  0.00    -0.331 N 
ATOM      4  C   UNL     1       3.835   1.652  -0.883  0.00  0.00    +0.169 A 
ATOM      5  N   UNL     1       2.608   1.316  -0.363  0.00  0.00    -0.226 N 
ATOM      6  N   UNL     1       2.257   1.798   0.867  0.00  0.00    -0.254 N 
ATOM      7  C   UNL     1       3.395   2.211   1.729  0.00  0.00    +0.224 C 
ATOM      8  S   UNL     1       4.614   2.607   0.405  0.00  0.00    -0.048 S 
ATOM      9  H   UNL     1       1.578   2.539   0.784  0.00  0.00    +0.169 HD
ATOM     10  H   UNL     1       4.739   1.302  -2.657  0.00  0.00    +0.168 HD
ENDROOT
BRANCH   7  11
ATOM     11  N   UNL     1       3.863   1.103   2.573  0.00  0.00    -0.272 NA
ATOM     12  C   UNL     1       4.832   1.575   3.571  0.00  0.00    +0.106 C 
ATOM     13  C   UNL     1       5.157   0.435   4.542  0.00  0.00    +0.123 C 
ATOM     14  N   UNL     1       5.588  -0.735   3.761  0.00  0.00    -0.297 N 
ATOM     15  C   UNL     1       4.733  -1.185   2.652  0.00  0.00    +0.123 C 
ATOM     16  C   UNL     1       4.425   0.020   1.756  0.00  0.00    +0.106 C 
ATOM     17  C   UNL     1       6.736  -1.377   4.054  0.00  0.00    +0.242 C 
ATOM     18  O   UNL     1       7.428  -0.993   4.973  0.00  0.00    -0.273 OA
BRANCH  17  19
ATOM     19  C   UNL     1       7.159  -2.574   3.241  0.00  0.00    +0.190 C 
ATOM     20  C   UNL     1       6.140  -3.683   3.378  0.00  0.00    +0.016 C 
ATOM     21  C   UNL     1       6.799  -4.731   3.923  0.00  0.00    -0.004 A 
ATOM     22  C   UNL     1       6.374  -6.085   4.300  0.00  0.00    +0.010 A 
ATOM     23  C   UNL     1       7.282  -6.931   4.837  0.00  0.00    +0.001 A 
ATOM     24  C   UNL     1       8.615  -6.549   5.042  0.00  0.00    +0.002 A 
ATOM     25  C   UNL     1       9.080  -5.323   4.721  0.00  0.00    +0.026 A 
ATOM     26  C   UNL     1       8.211  -4.352   4.149  0.00  0.00    +0.043 A 
ATOM     27  N   UNL     1       8.419  -3.117   3.759  0.00  0.00    -0.370 N 
ATOM     28  H   UNL     1       9.264  -2.642   3.804  0.00  0.00    +0.161 HD
ENDBRANCH  17  19
ENDBRANCH   7  11
BRANCH   2  29
ATOM     29  C   UNL     1       2.619  -0.277  -3.658  0.00  0.00    +0.002 A 
ATOM     30  C   UNL     1       2.096  -1.571  -3.634  0.00  0.00    +0.010 A 
ATOM     31  C   UNL     1       1.875  -2.244  -4.817  0.00  0.00    +0.001 A 
ATOM     32  C   UNL     1       2.169  -1.640  -6.027  0.00  0.00    +0.000 A 
ATOM     33  C   UNL     1       2.688  -0.357  -6.058  0.00  0.00    +0.001 A 
ATOM     34  C   UNL     1       2.909   0.329  -4.881  0.00  0.00    +0.010 A 
ENDBRANCH   2  29
BRANCH   1  35
ATOM     35  N   UNL     1       0.757  -0.088  -1.242  0.00  0.00    -0.323 N 
ATOM     36  H   UNL     1       0.402  -0.583  -1.997  0.00  0.00    +0.148 HD
BRANCH  35  38
ATOM     37  C   UNL     1      -0.442   1.475   0.207  0.00  0.00    +0.031 C 
ATOM     38  C   UNL     1      -0.020   0.020  -0.005  0.00  0.00    +0.025 C 
ATOM     39  C   UNL     1       0.835  -0.441   1.177  0.00  0.00    +0.031 C 
ATOM     40  C   UNL     1      -1.266  -0.863  -0.107  0.00  0.00    +0.031 C 
ENDBRANCH  35  38
ENDBRANCH   1  35
TORSDOF 5
