REMARK  Name = ZINC39695368
REMARK  9 active torsions:
REMARK  status: ('A' for Active; 'I' for Inactive)
REMARK    1  A    between atoms: C_1  and  C_2
REMARK    2  A    between atoms: C_2  and  C_3
REMARK    3  A    between atoms: C_3  and  C_5
REMARK    4  A    between atoms: C_3  and  N_11
REMARK    5  A    between atoms: C_12  and  C_14
REMARK    6  A    between atoms: C_25  and  C_27
REMARK    7  A    between atoms: C_27  and  O_28
REMARK    8  A    between atoms: O_28  and  C_29
REMARK    9  A    between atoms: C_39  and  C_40
REMARK                            x       y       z     vdW  Elec       q    Type
REMARK                         _______ _______ _______ _____ _____    ______ ____
ROOT
ATOM      1  C   UNL     1      -3.446   1.411   2.700  0.00  0.00    +0.100 C 
ATOM      2  C   UNL     1      -4.449   0.297   3.075  0.00  0.00    +0.121 C 
ATOM      3  N   UNL     1      -5.615   1.017   3.638  0.00  0.00    -0.297 N 
ATOM      4  C   UNL     1      -5.757   2.218   2.779  0.00  0.00    +0.115 C 
ATOM      5  C   UNL     1      -4.308   2.670   2.506  0.00  0.00    -0.004 C 
ATOM      6  C   UNL     1      -4.178   3.185   1.076  0.00  0.00    -0.010 C 
ATOM      7  C   UNL     1      -4.998   4.469   0.924  0.00  0.00    -0.082 C 
ATOM      8  N   UNL     1      -4.513   5.477   1.874  0.00  0.00    +0.379 N 
ATOM      9  C   UNL     1      -4.727   5.012   3.250  0.00  0.00    -0.082 C 
ATOM     10  C   UNL     1      -3.896   3.751   3.500  0.00  0.00    -0.010 C 
ATOM     11  C   UNL     1      -6.376   0.661   4.692  0.00  0.00    +0.253 C 
ATOM     12  O   UNL     1      -7.305   1.361   5.034  0.00  0.00    -0.272 OA
ATOM     13  H   UNL     1      -3.527   5.633   1.723  0.00  0.00    -0.086 HD
ATOM     14  H   UNL     1      -5.013   6.341   1.730  0.00  0.00    -0.086 HD
ENDROOT
BRANCH   1  16
ATOM     15  N   UNL     1      -1.511   1.581   1.168  0.00  0.00    -0.308 N 
ATOM     16  C   UNL     1      -2.730   1.064   1.420  0.00  0.00    +0.219 C 
ATOM     17  O   UNL     1      -3.250   0.319   0.617  0.00  0.00    -0.275 OA
ATOM     18  H   UNL     1      -1.130   2.240   1.769  0.00  0.00    +0.149 HD
BRANCH  15  19
ATOM     19  C   UNL     1      -0.761   1.148  -0.013  0.00  0.00    +0.103 C 
BRANCH  19  20
ATOM     20  C   UNL     1       0.673   0.887   0.369  0.00  0.00    -0.027 A 
ATOM     21  C   UNL     1       1.315   1.728   1.259  0.00  0.00    +0.005 A 
ATOM     22  C   UNL     1       2.630   1.489   1.610  0.00  0.00    +0.000 A 
ATOM     23  C   UNL     1       3.304   0.408   1.072  0.00  0.00    +0.000 A 
ATOM     24  C   UNL     1       2.661  -0.434   0.183  0.00  0.00    +0.000 A 
ATOM     25  C   UNL     1       1.345  -0.197  -0.165  0.00  0.00    +0.005 A 
ENDBRANCH  19  20
BRANCH  19  27
ATOM     26  C   UNL     1      -2.252   2.405  -1.575  0.00  0.00    +0.006 C 
ATOM     27  C   UNL     1      -0.813   2.243  -1.080  0.00  0.00    +0.024 C 
ENDBRANCH  19  27
ENDBRANCH  15  19
ENDBRANCH   1  16
BRANCH  11  28
ATOM     28  C   UNL     1      -6.071  -0.608   5.446  0.00  0.00    +0.324 C 
BRANCH  28  29
ATOM     29  O   UNL     1      -7.010  -0.765   6.512  0.00  0.00    -0.479 OA
BRANCH  29  30
ATOM     30  C   UNL     1      -6.875  -1.867   7.296  0.00  0.00    +0.164 A 
ATOM     31  C   UNL     1      -5.859  -2.773   7.049  0.00  0.00    +0.049 A 
ATOM     32  C   UNL     1      -5.710  -3.902   7.842  0.00  0.00    +0.004 A 
ATOM     33  C   UNL     1      -6.573  -4.137   8.888  0.00  0.00    +0.012 A 
ATOM     34  C   UNL     1      -7.606  -3.231   9.152  0.00  0.00    +0.024 A 
ATOM     35  C   UNL     1      -7.755  -2.084   8.354  0.00  0.00    +0.181 A 
ATOM     36  O   UNL     1      -8.750  -1.208   8.614  0.00  0.00    -0.418 OA
ATOM     37  C   UNL     1      -9.606  -1.402   9.629  0.00  0.00    +0.338 A 
ATOM     38  O   UNL     1     -10.488  -0.585   9.825  0.00  0.00    -0.245 OA
ATOM     39  C   UNL     1      -9.511  -2.529  10.474  0.00  0.00    +0.096 A 
ATOM     40  C   UNL     1      -8.541  -3.453  10.259  0.00  0.00    -0.033 A 
ATOM     41  C   UNL     1      -8.417  -4.665  11.146  0.00  0.00    +0.045 C 
ENDBRANCH  29  30
ENDBRANCH  28  29
ENDBRANCH  11  28
TORSDOF 7
