REMARK  Name = ZINC54681406
REMARK  3 active torsions:
REMARK  status: ('A' for Active; 'I' for Inactive)
REMARK    1  A    between atoms: C_10  and  C_16
REMARK    2  A    between atoms: C_20  and  O_22
REMARK    3  A    between atoms: O_22  and  C_23
REMARK                            x       y       z     vdW  Elec       q    Type
REMARK                         _______ _______ _______ _____ _____    ______ ____
ROOT
ATOM      1  C   UNL     1      -0.429   1.164  -1.095  0.00  0.00    +0.002 A 
ATOM      2  C   UNL     1       0.707   1.941  -0.918  0.00  0.00    +0.002 A 
ATOM      3  C   UNL     1       1.931   1.349  -0.690  0.00  0.00    +0.028 A 
ATOM      4  C   UNL     1       2.033  -0.034  -0.637  0.00  0.00    +0.072 A 
ATOM      5  C   UNL     1       0.883  -0.826  -0.814  0.00  0.00    +0.091 A 
ATOM      6  C   UNL     1      -0.348  -0.209  -1.045  0.00  0.00    +0.030 A 
ATOM      7  N   UNL     1       1.269  -2.127  -0.708  0.00  0.00    -0.214 NA
ATOM      8  C   UNL     1       2.549  -2.184  -0.483  0.00  0.00    +0.205 A 
ATOM      9  N   UNL     1       3.072  -0.915  -0.438  0.00  0.00    -0.288 N 
ATOM     10  C   UNL     1       4.494  -0.628  -0.222  0.00  0.00    +0.209 C 
ATOM     11  N   UNL     1       5.131  -1.866   0.267  0.00  0.00    -0.294 N 
ATOM     12  C   UNL     1       4.720  -3.069  -0.287  0.00  0.00    +0.159 C 
ATOM     13  N   UNL     1       3.346  -3.312  -0.300  0.00  0.00    -0.259 N 
ATOM     14  N   UNL     1       5.573  -3.928  -0.770  0.00  0.00    -0.375 N 
ATOM     15  H   UNL     1       5.816  -1.839   0.954  0.00  0.00    +0.151 HD
ATOM     16  H   UNL     1       6.523  -3.733  -0.748  0.00  0.00    +0.158 HD
ATOM     17  H   UNL     1       2.973  -4.201  -0.190  0.00  0.00    +0.158 HD
ATOM     18  H   UNL     1       5.257  -4.762  -1.152  0.00  0.00    +0.158 HD
ENDROOT
BRANCH  10  19
ATOM     19  C   UNL     1       5.132  -0.202  -1.518  0.00  0.00    -0.003 A 
ATOM     20  C   UNL     1       5.500  -1.152  -2.453  0.00  0.00    +0.007 A 
ATOM     21  C   UNL     1       6.085  -0.764  -3.643  0.00  0.00    +0.004 A 
ATOM     22  C   UNL     1       6.305   0.576  -3.902  0.00  0.00    +0.045 A 
ATOM     23  C   UNL     1       5.937   1.531  -2.966  0.00  0.00    +0.121 A 
ATOM     24  C   UNL     1       5.344   1.139  -1.775  0.00  0.00    +0.053 A 
BRANCH  23  25
ATOM     25  O   UNL     1       6.152   2.849  -3.218  0.00  0.00    -0.489 OA
BRANCH  25  26
ATOM     26  C   UNL     1       6.648   3.189  -4.514  0.00  0.00    +0.173 C 
ATOM     27  C   UNL     1       8.189   3.112  -4.527  0.00  0.00    +0.044 C 
ATOM     28  C   UNL     1       8.620   4.289  -5.437  0.00  0.00    +0.004 C 
ATOM     29  C   UNL     1       7.606   5.399  -5.064  0.00  0.00    +0.004 C 
ATOM     30  C   UNL     1       6.278   4.643  -4.856  0.00  0.00    +0.044 C 
ENDBRANCH  25  26
ENDBRANCH  23  25
ENDBRANCH  10  19
TORSDOF 3
