REMARK  Name = ZINC40372524
REMARK  5 active torsions:
REMARK  status: ('A' for Active; 'I' for Inactive)
REMARK    1  A    between atoms: C_1  and  C_2
REMARK    2  A    between atoms: C_5  and  C_8
REMARK    3  A    between atoms: C_5  and  N_12
REMARK    4  A    between atoms: N_9  and  O_10
REMARK    5  A    between atoms: C_13  and  C_15
REMARK                            x       y       z     vdW  Elec       q    Type
REMARK                         _______ _______ _______ _____ _____    ______ ____
ROOT
ATOM      1  C   UNL     1       0.021   1.563   0.056  0.00  0.00    +0.007 C 
ATOM      2  C   UNL     1       0.060   0.034   0.033  0.00  0.00    -0.014 C 
ATOM      3  C   UNL     1      -1.368  -0.513  -0.001  0.00  0.00    +0.006 C 
ATOM      4  C   UNL     1      -2.125  -0.041   1.243  0.00  0.00    +0.034 C 
ATOM      5  C   UNL     1      -1.413  -0.552   2.497  0.00  0.00    +0.093 C 
ATOM      6  C   UNL     1       0.016  -0.005   2.531  0.00  0.00    +0.034 C 
ATOM      7  C   UNL     1       0.772  -0.477   1.287  0.00  0.00    +0.006 C 
ENDROOT
BRANCH   5   8
ATOM      8  C   UNL     1      -2.158  -0.087   3.722  0.00  0.00    +0.155 C 
ATOM      9  N   UNL     1      -3.166   0.711   3.600  0.00  0.00    -0.075 NA
ATOM     10  N   UNL     1      -1.763  -0.513   4.971  0.00  0.00    -0.342 N 
ATOM     11  H   UNL     1      -0.963  -1.052   5.069  0.00  0.00    +0.144 HD
ATOM     12  H   UNL     1      -2.285  -0.273   5.752  0.00  0.00    +0.144 HD
BRANCH   9  13
ATOM     13  O   UNL     1      -3.866   1.148   4.751  0.00  0.00    -0.408 OA
ATOM     14  H   UNL     1      -4.605   1.742   4.560  0.00  0.00    +0.328 HD
ENDBRANCH   9  13
ENDBRANCH   5   8
BRANCH   5  15
ATOM     15  N   UNL     1      -1.375  -2.016   2.475  0.00  0.00    -0.299 N 
ATOM     16  C   UNL     1      -2.520  -2.718   2.361  0.00  0.00    +0.246 C 
ATOM     17  O   UNL     1      -3.590  -2.142   2.378  0.00  0.00    -0.270 OA
ATOM     18  H   UNL     1      -0.526  -2.480   2.542  0.00  0.00    +0.150 HD
BRANCH  16  19
ATOM     19  C   UNL     1      -2.474  -4.188   2.215  0.00  0.00    +0.050 A 
ATOM     20  C   UNL     1      -1.247  -4.853   2.201  0.00  0.00    +0.014 A 
ATOM     21  C   UNL     1      -1.211  -6.225   2.065  0.00  0.00    +0.001 A 
ATOM     22  C   UNL     1      -2.388  -6.943   1.942  0.00  0.00    +0.001 A 
ATOM     23  C   UNL     1      -3.607  -6.291   1.956  0.00  0.00    +0.015 A 
ATOM     24  C   UNL     1      -3.658  -4.918   2.097  0.00  0.00    +0.025 A 
ATOM     25  I   UNL     1      -5.507  -3.933   2.125  0.00  0.00    -0.043 I 
ENDBRANCH  16  19
ENDBRANCH   5  15
TORSDOF 4
