REMARK  Name = ZINC17085084
REMARK  8 active torsions:
REMARK  status: ('A' for Active; 'I' for Inactive)
REMARK    1  A    between atoms: C_1  and  C_2
REMARK    2  A    between atoms: C_5  and  N_11
REMARK    3  A    between atoms: C_6  and  N_8
REMARK    4  A    between atoms: C_12  and  C_14
REMARK    5  A    between atoms: C_14  and  C_15
REMARK    6  A    between atoms: N_19  and  C_31
REMARK    7  A    between atoms: N_21  and  C_22
REMARK    8  A    between atoms: C_31  and  C_32
REMARK                            x       y       z     vdW  Elec       q    Type
REMARK                         _______ _______ _______ _____ _____    ______ ____
ROOT
ATOM      1  C   UNL     1      -1.662   0.638   3.724  0.00  0.00    +0.149 C 
ATOM      2  C   UNL     1      -1.188   0.348   2.309  0.00  0.00    +0.235 C 
ATOM      3  O   UNL     1      -1.487  -0.673   1.726  0.00  0.00    -0.274 OA
ATOM      4  N   UNL     1      -0.430   1.278   1.754  0.00  0.00    -0.246 N 
ATOM      5  C   UNL     1      -0.082   2.437   2.414  0.00  0.00    +0.164 C 
ATOM      6  N   UNL     1       0.662   3.426   1.978  0.00  0.00    -0.224 NA
ATOM      7  S   UNL     1      -0.886   2.279   4.002  0.00  0.00    -0.077 S 
ENDROOT
BRANCH   6   8
ATOM      8  C   UNL     1       0.836   4.544   2.749  0.00  0.00    +0.086 A 
ATOM      9  C   UNL     1      -0.270   5.198   3.295  0.00  0.00    +0.049 A 
ATOM     10  C   UNL     1      -0.088   6.323   4.074  0.00  0.00    +0.043 A 
ATOM     11  C   UNL     1       1.188   6.808   4.308  0.00  0.00    +0.021 A 
ATOM     12  C   UNL     1       2.288   6.167   3.767  0.00  0.00    +0.023 A 
ATOM     13  C   UNL     1       2.120   5.039   2.989  0.00  0.00    +0.066 A 
ATOM     14 CL   UNL     1       3.502   4.237   2.310  0.00  0.00    -0.081 Cl
ATOM     15 CL   UNL     1      -1.461   7.135   4.758  0.00  0.00    -0.083 Cl
ENDBRANCH   6   8
BRANCH   1  16
ATOM     16  C   UNL     1      -1.128  -0.402   4.711  0.00  0.00    +0.120 C 
BRANCH  16  18
ATOM     17  N   UNL     1      -1.389  -0.947   7.110  0.00  0.00    -0.284 N 
ATOM     18  C   UNL     1      -1.718  -0.150   6.075  0.00  0.00    +0.219 C 
ATOM     19  O   UNL     1      -2.490   0.771   6.240  0.00  0.00    -0.275 OA
ATOM     20  H   UNL     1      -0.828  -1.725   6.963  0.00  0.00    +0.155 HD
BRANCH  17  25
ATOM     21  C   UNL     1      -3.278   0.248  12.324  0.00  0.00    +0.044 C 
ATOM     22  C   UNL     1      -2.776  -0.070  10.939  0.00  0.00    -0.048 A 
ATOM     23  C   UNL     1      -3.626   0.045   9.854  0.00  0.00    +0.005 A 
ATOM     24  C   UNL     1      -3.168  -0.241   8.583  0.00  0.00    +0.026 A 
ATOM     25  C   UNL     1      -1.855  -0.653   8.396  0.00  0.00    +0.064 A 
ATOM     26  C   UNL     1      -1.004  -0.768   9.487  0.00  0.00    +0.148 A 
ATOM     27  C   UNL     1      -1.468  -0.476  10.756  0.00  0.00    +0.038 A 
BRANCH  26  28
ATOM     28  N   UNL     1       0.397  -1.202   9.292  0.00  0.00    +0.058 N 
ATOM     29  O   UNL     1       1.113  -1.403  10.257  0.00  0.00    -0.126 OA
ATOM     30  O   UNL     1       0.835  -1.359   8.166  0.00  0.00    -0.126 OA
ENDBRANCH  26  28
ENDBRANCH  17  25
ENDBRANCH  16  18
ENDBRANCH   1  16
BRANCH   4  31
ATOM     31  C   UNL     1       0.063   1.066   0.391  0.00  0.00    +0.142 C 
BRANCH  31  32
ATOM     32  C   UNL     1      -0.927   1.629  -0.595  0.00  0.00    -0.015 C 
ATOM     33  C   UNL     1      -0.538   2.508  -1.485  0.00  0.00    +0.005 C 
ENDBRANCH  31  32
ENDBRANCH   4  31
TORSDOF 7
