REMARK  Name = ZINC63393537
REMARK  11 active torsions:
REMARK  status: ('A' for Active; 'I' for Inactive)
REMARK    1  A    between atoms: C_1  and  C_2
REMARK    2  A    between atoms: C_2  and  N_3
REMARK    3  A    between atoms: N_3  and  S_4
REMARK    4  A    between atoms: S_4  and  C_7
REMARK    5  A    between atoms: C_10  and  N_13
REMARK    6  A    between atoms: C_14  and  C_16
REMARK    7  A    between atoms: N_21  and  C_23
REMARK    8  A    between atoms: C_23  and  C_24
REMARK    9  A    between atoms: C_24  and  C_25
REMARK   10  A    between atoms: C_28  and  O_34
REMARK   11  A    between atoms: O_34  and  C_35
REMARK                            x       y       z     vdW  Elec       q    Type
REMARK                         _______ _______ _______ _____ _____    ______ ____
ROOT
ATOM      1  C   UNL     1       0.876  -6.415   6.109  0.00  0.00    +0.101 C 
ATOM      2  C   UNL     1       2.064  -5.601   6.673  0.00  0.00    +0.110 C 
ATOM      3  C   UNL     1       2.033  -5.881   8.160  0.00  0.00    +0.216 C 
ATOM      4  O   UNL     1       2.947  -5.665   8.927  0.00  0.00    -0.276 OA
ATOM      5  N   UNL     1       0.844  -6.404   8.507  0.00  0.00    -0.300 N 
ATOM      6  C   UNL     1      -0.044  -6.528   7.344  0.00  0.00    +0.121 C 
ENDROOT
BRANCH   1   8
ATOM      7  N   UNL     1       0.857  -5.410   3.849  0.00  0.00    -0.285 N 
ATOM      8  C   UNL     1       0.193  -5.668   4.993  0.00  0.00    +0.222 C 
ATOM      9  O   UNL     1      -0.955  -5.299   5.124  0.00  0.00    -0.275 OA
ATOM     10  H   UNL     1       1.751  -5.763   3.717  0.00  0.00    +0.155 HD
BRANCH   7  14
ATOM     11  C   UNL     1      -0.930  -3.098   0.880  0.00  0.00    +0.105 A 
ATOM     12  C   UNL     1      -1.701  -3.953   1.646  0.00  0.00    +0.030 A 
ATOM     13  C   UNL     1      -1.112  -4.721   2.631  0.00  0.00    +0.025 A 
ATOM     14  C   UNL     1       0.257  -4.634   2.851  0.00  0.00    +0.034 A 
ATOM     15  C   UNL     1       1.028  -3.775   2.080  0.00  0.00    +0.025 A 
ATOM     16  C   UNL     1       0.433  -3.013   1.093  0.00  0.00    +0.030 A 
BRANCH  11  17
ATOM     17  S   UNL     1      -1.686  -2.120  -0.376  0.00  0.00    +0.058 S 
ATOM     18  O   UNL     1      -0.833  -1.004  -0.590  0.00  0.00    -0.153 OA
ATOM     19  O   UNL     1      -3.052  -1.976  -0.012  0.00  0.00    -0.153 OA
BRANCH  17  20
ATOM     20  N   UNL     1      -1.660  -3.010  -1.772  0.00  0.00    -0.190 NA
ATOM     21  H   UNL     1      -1.135  -2.708  -2.530  0.00  0.00    +0.148 HD
BRANCH  20  23
ATOM     22  C   UNL     1      -2.543  -4.677  -3.328  0.00  0.00    +0.022 C 
ATOM     23  C   UNL     1      -2.429  -4.253  -1.863  0.00  0.00    +0.102 C 
ENDBRANCH  20  23
ENDBRANCH  17  20
ENDBRANCH  11  17
ENDBRANCH   7  14
ENDBRANCH   1   8
BRANCH   5  24
ATOM     24  C   UNL     1       0.481  -6.799   9.870  0.00  0.00    +0.112 C 
BRANCH  24  25
ATOM     25  C   UNL     1      -0.156  -5.610  10.593  0.00  0.00    +0.052 C 
BRANCH  25  26
ATOM     26  C   UNL     1      -0.530  -6.017  11.995  0.00  0.00    -0.040 C 
ATOM     27  C   UNL     1       0.204  -5.837  13.117  0.00  0.00    +0.002 A 
ATOM     28  C   UNL     1       1.518  -5.232  13.360  0.00  0.00    +0.055 A 
ATOM     29  C   UNL     1       2.012  -5.192  14.621  0.00  0.00    +0.121 A 
ATOM     30  C   UNL     1       1.306  -5.713  15.719  0.00  0.00    +0.047 A 
ATOM     31  C   UNL     1       0.091  -6.289  15.596  0.00  0.00    +0.029 A 
ATOM     32  C   UNL     1      -0.538  -6.385  14.275  0.00  0.00    +0.043 A 
ATOM     33  N   UNL     1      -1.685  -6.885  13.885  0.00  0.00    -0.380 N 
ATOM     34  C   UNL     1      -1.804  -6.704  12.434  0.00  0.00    +0.144 C 
ATOM     35  H   UNL     1      -2.346  -7.301  14.460  0.00  0.00    +0.160 HD
BRANCH  29  36
ATOM     36  O   UNL     1       3.231  -4.630  14.831  0.00  0.00    -0.495 OA
ATOM     37  C   UNL     1       3.713  -4.609  16.176  0.00  0.00    +0.277 C 
ENDBRANCH  29  36
ENDBRANCH  25  26
ENDBRANCH  24  25
ENDBRANCH   5  24
TORSDOF 9
