REMARK  Name = ZINC12384066
REMARK  9 active torsions:
REMARK  status: ('A' for Active; 'I' for Inactive)
REMARK    1  A    between atoms: C_1  and  C_2
REMARK    2  A    between atoms: C_2  and  C_27
REMARK    3  A    between atoms: N_5  and  C_9
REMARK    4  A    between atoms: C_9  and  C_10
REMARK    5  A    between atoms: C_10  and  C_12
REMARK    6  A    between atoms: C_10  and  O_26
REMARK    7  A    between atoms: C_12  and  N_13
REMARK    8  A    between atoms: N_13  and  C_14
REMARK    9  A    between atoms: N_13  and  C_20
REMARK                            x       y       z     vdW  Elec       q    Type
REMARK                         _______ _______ _______ _____ _____    ______ ____
ROOT
ATOM      1  C   UNL     1       2.087   1.253  -1.226  0.00  0.00    -0.045 C 
ENDROOT
BRANCH   1   2
ATOM      2  N   UNL     1       1.334   1.636  -0.025  0.00  0.00    +0.385 N 
ATOM      3  H   UNL     1       1.372   2.732   0.063  0.00  0.00    -0.081 HD
BRANCH   2   4
ATOM      4  C   UNL     1      -0.076   1.241  -0.139  0.00  0.00    -0.068 C 
ATOM      5  C   UNL     1      -0.856   1.779   1.063  0.00  0.00    -0.015 C 
ATOM      6  C   UNL     1      -2.325   1.368   0.944  0.00  0.00    -0.002 C 
ATOM      7  C   UNL     1      -2.913   1.946  -0.345  0.00  0.00    -0.000 C 
ATOM      8  C   UNL     1      -2.134   1.408  -1.547  0.00  0.00    -0.002 C 
ATOM      9  C   UNL     1      -0.665   1.819  -1.428  0.00  0.00    -0.015 C 
ENDBRANCH   2   4
BRANCH   2  10
ATOM     10  C   UNL     1       1.944   1.065   1.183  0.00  0.00    -0.068 C 
ATOM     11  C   UNL     1       1.274  -0.271   1.511  0.00  0.00    -0.015 C 
ATOM     12  C   UNL     1       1.909  -0.866   2.769  0.00  0.00    -0.002 C 
ATOM     13  C   UNL     1       1.721   0.100   3.941  0.00  0.00    -0.000 C 
ATOM     14  C   UNL     1       2.391   1.435   3.614  0.00  0.00    -0.002 C 
ATOM     15  C   UNL     1       1.756   2.030   2.355  0.00  0.00    -0.015 C 
ENDBRANCH   2  10
ENDBRANCH   1   2
BRANCH   1  16
ATOM     16  C   UNL     1       3.434   1.978  -1.237  0.00  0.00    +0.116 C 
BRANCH  16  17
ATOM     17  O   UNL     1       3.215   3.388  -1.307  0.00  0.00    -0.392 OA
ATOM     18  H   UNL     1       2.646   3.897  -0.514  0.00  0.00    +0.210 HD
ENDBRANCH  16  17
BRANCH  16  19
ATOM     19  C   UNL     1       4.246   1.527  -2.453  0.00  0.00    +0.147 C 
BRANCH  19  24
ATOM     20  C   UNL     1       8.312   3.031  -0.642  0.00  0.00    +0.041 C 
ATOM     21  C   UNL     1       7.792   2.532  -1.992  0.00  0.00    +0.107 C 
ATOM     22  C   UNL     1       6.644   1.562  -1.796  0.00  0.00    +0.246 C 
ATOM     23  O   UNL     1       6.675   0.497  -1.217  0.00  0.00    -0.273 OA
ATOM     24  N   UNL     1       5.581   2.130  -2.399  0.00  0.00    -0.222 N 
ATOM     25  C   UNL     1       5.896   3.308  -2.948  0.00  0.00    +0.309 C 
ATOM     26  O   UNL     1       5.104   4.006  -3.551  0.00  0.00    -0.252 OA
ATOM     27  N   UNL     1       7.186   3.637  -2.755  0.00  0.00    -0.285 N 
ATOM     28  C   UNL     1       8.918   1.877  -2.795  0.00  0.00    +0.041 C 
ATOM     29  H   UNL     1       7.796   4.505  -3.044  0.00  0.00    +0.151 HD
ENDBRANCH  19  24
ENDBRANCH  16  19
ENDBRANCH   1  16
TORSDOF 7
