REMARK  Name = ZINC19500481
REMARK  9 active torsions:
REMARK  status: ('A' for Active; 'I' for Inactive)
REMARK    1  A    between atoms: C_1  and  C_2
REMARK    2  A    between atoms: C_2  and  C_3
REMARK    3  A    between atoms: C_3  and  C_5
REMARK    4  A    between atoms: C_3  and  N_13
REMARK    5  A    between atoms: C_8  and  O_11
REMARK    6  A    between atoms: O_11  and  C_12
REMARK    7  A    between atoms: C_14  and  C_16
REMARK    8  A    between atoms: C_16  and  N_17
REMARK    9  A    between atoms: C_25  and  C_27
REMARK                            x       y       z     vdW  Elec       q    Type
REMARK                         _______ _______ _______ _____ _____    ______ ____
ROOT
ATOM      1  N   UNL     1      -3.409   0.315   6.847  0.00  0.00    -0.307 N 
ATOM      2  C   UNL     1      -2.969   0.347   5.573  0.00  0.00    +0.231 C 
ATOM      3  O   UNL     1      -1.778   0.378   5.343  0.00  0.00    -0.274 OA
ATOM      4  H   UNL     1      -4.488   0.287   7.055  0.00  0.00    +0.149 HD
ENDROOT
BRANCH   1   5
ATOM      5  C   UNL     1      -2.449   0.319   7.953  0.00  0.00    +0.103 C 
BRANCH   5   6
ATOM      6  C   UNL     1      -3.106   0.883   9.186  0.00  0.00    -0.027 A 
ATOM      7  C   UNL     1      -4.417   0.559   9.480  0.00  0.00    +0.009 A 
ATOM      8  C   UNL     1      -5.020   1.071  10.612  0.00  0.00    +0.046 A 
ATOM      9  C   UNL     1      -4.312   1.921  11.450  0.00  0.00    +0.120 A 
ATOM     10  C   UNL     1      -2.998   2.249  11.150  0.00  0.00    +0.046 A 
ATOM     11  C   UNL     1      -2.397   1.730  10.020  0.00  0.00    +0.009 A 
BRANCH   9  12
ATOM     12  O   UNL     1      -4.905   2.430  12.561  0.00  0.00    -0.495 OA
ATOM     13  C   UNL     1      -6.260   2.049  12.807  0.00  0.00    +0.277 C 
ENDBRANCH   9  12
ENDBRANCH   5   6
BRANCH   5  15
ATOM     14  C   UNL     1      -1.210  -1.642   7.025  0.00  0.00    +0.006 C 
ATOM     15  C   UNL     1      -1.986  -1.113   8.232  0.00  0.00    +0.024 C 
ENDBRANCH   5  15
ENDBRANCH   1   5
BRANCH   2  16
ATOM     16  C   UNL     1      -3.956   0.343   4.435  0.00  0.00    +0.213 C 
BRANCH  16  17
ATOM     17  N   UNL     1      -3.233   0.381   3.161  0.00  0.00    -0.215 N 
ATOM     18  C   UNL     1      -2.885   1.517   2.521  0.00  0.00    +0.247 C 
ATOM     19  O   UNL     1      -3.102   2.655   2.875  0.00  0.00    -0.273 OA
ATOM     20  C   UNL     1      -2.167   1.069   1.268  0.00  0.00    +0.115 C 
ATOM     21  C   UNL     1      -2.911   1.550   0.027  0.00  0.00    +0.035 C 
ATOM     22  C   UNL     1      -2.186   1.056  -1.227  0.00  0.00    +0.003 C 
ATOM     23  C   UNL     1      -0.753   1.593  -1.231  0.00  0.00    +0.000 C 
ATOM     24  C   UNL     1      -0.013   1.086   0.008  0.00  0.00    +0.006 C 
ATOM     25  C   UNL     1      -0.730   1.580   1.267  0.00  0.00    +0.018 C 
ATOM     26  C   UNL     1      -0.002   1.056   2.507  0.00  0.00    +0.010 C 
ATOM     27  N   UNL     1      -2.191  -0.397   1.347  0.00  0.00    -0.285 N 
ATOM     28  C   UNL     1      -2.836  -0.706   2.489  0.00  0.00    +0.310 C 
ATOM     29  O   UNL     1      -3.035  -1.844   2.866  0.00  0.00    -0.252 OA
ATOM     30  H   UNL     1      -1.730  -0.998   0.550  0.00  0.00    +0.151 HD
ENDBRANCH  16  17
ENDBRANCH   2  16
TORSDOF 6
