REMARK  Name = ZINC12364237
REMARK  9 active torsions:
REMARK  status: ('A' for Active; 'I' for Inactive)
REMARK    1  A    between atoms: C_1  and  C_2
REMARK    2  A    between atoms: C_2  and  O_3
REMARK    3  A    between atoms: O_3  and  C_4
REMARK    4  A    between atoms: C_6  and  C_14
REMARK    5  A    between atoms: C_8  and  N_11
REMARK    6  A    between atoms: C_9  and  O_10
REMARK    7  A    between atoms: N_18  and  N_22
REMARK    8  A    between atoms: C_23  and  C_25
REMARK    9  A    between atoms: C_28  and  C_32
REMARK                            x       y       z     vdW  Elec       q    Type
REMARK                         _______ _______ _______ _____ _____    ______ ____
ROOT
ATOM      1  C   UNL     1      -0.196  -4.958  -0.499  0.00  0.00    +0.028 C 
ATOM      2  C   UNL     1       0.003  -6.297  -0.402  0.00  0.00    +0.079 C 
ATOM      3  C   UNL     1      -0.378  -7.375  -1.336  0.00  0.00    +0.275 C 
ATOM      4  O   UNL     1      -0.960  -7.142  -2.378  0.00  0.00    -0.267 OA
ATOM      5  N   UNL     1      -0.052  -8.607  -0.983  0.00  0.00    -0.169 N 
ATOM      6  C   UNL     1       0.594  -8.862   0.173  0.00  0.00    +0.138 C 
ATOM      7  S   UNL     1       1.095 -10.373   0.801  0.00  0.00    -0.026 S 
ATOM      8  S   UNL     1       0.805  -7.239   0.888  0.00  0.00    -0.059 S 
ENDROOT
BRANCH   1  11
ATOM      9  C   UNL     1       0.566  -1.885   1.511  0.00  0.00    +0.165 A 
ATOM     10  C   UNL     1       0.259  -2.702   0.441  0.00  0.00    +0.057 A 
ATOM     11  C   UNL     1       0.131  -4.083   0.634  0.00  0.00    -0.018 A 
ATOM     12  C   UNL     1       0.314  -4.627   1.912  0.00  0.00    +0.044 A 
ATOM     13  C   UNL     1       0.620  -3.803   2.973  0.00  0.00    +0.172 A 
ATOM     14  C   UNL     1       0.753  -2.435   2.779  0.00  0.00    +0.189 A 
BRANCH  13  15
ATOM     15  N   UNL     1       0.814  -4.380   4.322  0.00  0.00    +0.060 N 
ATOM     16  O   UNL     1       0.703  -5.572   4.492  0.00  0.00    -0.126 OA
ATOM     17  O   UNL     1       1.083  -3.659   5.255  0.00  0.00    -0.126 OA
ENDBRANCH  13  15
BRANCH  14  18
ATOM     18  O   UNL     1       1.060  -1.629   3.828  0.00  0.00    -0.502 OA
ATOM     19  H   UNL     1       0.289  -1.291   4.304  0.00  0.00    +0.292 HD
ENDBRANCH  14  18
BRANCH   9  20
ATOM     20  O   UNL     1       0.692  -0.543   1.327  0.00  0.00    -0.488 OA
BRANCH  20  22
ATOM     21  C   UNL     1       0.670   1.472  -0.007  0.00  0.00    +0.048 C 
ATOM     22  C   UNL     1       0.488  -0.048   0.003  0.00  0.00    +0.226 C 
ENDBRANCH  20  22
ENDBRANCH   9  20
ENDBRANCH   1  11
BRANCH   5  23
ATOM     23  N   UNL     1      -0.387  -9.673  -1.829  0.00  0.00    -0.222 N 
ATOM     24  C   UNL     1       0.567 -10.270  -2.570  0.00  0.00    +0.262 C 
ATOM     25  O   UNL     1       1.718  -9.884  -2.505  0.00  0.00    -0.269 OA
ATOM     26  H   UNL     1      -1.305  -9.981  -1.881  0.00  0.00    +0.174 HD
BRANCH  24  27
ATOM     27  C   UNL     1       0.214 -11.394  -3.462  0.00  0.00    +0.056 A 
ATOM     28  C   UNL     1      -1.107 -11.836  -3.544  0.00  0.00    +0.015 A 
ATOM     29  C   UNL     1      -1.430 -12.885  -4.379  0.00  0.00    +0.004 A 
ATOM     30  C   UNL     1      -0.447 -13.501  -5.135  0.00  0.00    -0.049 A 
ATOM     31  C   UNL     1       0.864 -13.069  -5.060  0.00  0.00    +0.024 A 
ATOM     32  C   UNL     1       1.201 -12.015  -4.232  0.00  0.00    +0.053 A 
ATOM     33 CL   UNL     1       2.846 -11.469  -4.144  0.00  0.00    -0.083 Cl
ATOM     34  C   UNL     1      -0.808 -14.647  -6.044  0.00  0.00    +0.044 C 
ENDBRANCH  24  27
ENDBRANCH   5  23
TORSDOF 7
