REMARK  Name = ZINC08737895
REMARK  6 active torsions:
REMARK  status: ('A' for Active; 'I' for Inactive)
REMARK    1  A    between atoms: C_1  and  C_2
REMARK    2  A    between atoms: C_5  and  N_8
REMARK    3  A    between atoms: C_16  and  C_34
REMARK    4  A    between atoms: C_19  and  C_25
REMARK    5  A    between atoms: C_25  and  C_27
REMARK    6  A    between atoms: C_34  and  C_36
REMARK                            x       y       z     vdW  Elec       q    Type
REMARK                         _______ _______ _______ _____ _____    ______ ____
ROOT
ATOM      1  N   UNL     1       1.305   5.020   2.709  0.00  0.00    -0.210 N 
ATOM      2  C   UNL     1       0.972   5.424   1.474  0.00  0.00    +0.232 C 
ATOM      3  O   UNL     1      -0.157   5.585   1.062  0.00  0.00    -0.274 OA
ATOM      4  C   UNL     1       2.255   5.664   0.670  0.00  0.00    +0.113 C 
ATOM      5  C   UNL     1       2.606   4.387  -0.100  0.00  0.00    +0.093 C 
ATOM      6  C   UNL     1       1.550   3.327   0.096  0.00  0.00    +0.006 C 
ATOM      7  C   UNL     1       1.928   2.032   0.158  0.00  0.00    +0.021 C 
ATOM      8  C   UNL     1       3.345   1.641   0.033  0.00  0.00    +0.025 C 
ATOM      9  C   UNL     1       4.308   2.569   0.190  0.00  0.00    +0.054 C 
ATOM     10  C   UNL     1       4.473   4.871   1.309  0.00  0.00    +0.141 C 
ATOM     11  C   UNL     1       3.313   5.754   1.808  0.00  0.00    +0.116 C 
ATOM     12  C   UNL     1       2.620   5.070   2.969  0.00  0.00    +0.232 C 
ATOM     13  O   UNL     1       3.163   4.641   3.964  0.00  0.00    -0.274 OA
ATOM     14  N   UNL     1       3.978   4.046   0.167  0.00  0.00    -0.384 NA
ATOM     15  H   UNL     1       4.494   4.394  -0.649  0.00  0.00    +0.127 HD
ENDROOT
BRANCH   1  20
ATOM     16  C   UNL     1      -2.521   3.254   6.512  0.00  0.00    +0.044 C 
ATOM     17  C   UNL     1      -1.506   3.723   5.502  0.00  0.00    -0.050 A 
ATOM     18  C   UNL     1      -1.485   5.048   5.108  0.00  0.00    +0.005 A 
ATOM     19  C   UNL     1      -0.555   5.481   4.183  0.00  0.00    +0.024 A 
ATOM     20  C   UNL     1       0.359   4.584   3.648  0.00  0.00    +0.044 A 
ATOM     21  C   UNL     1       0.332   3.252   4.041  0.00  0.00    +0.024 A 
ATOM     22  C   UNL     1      -0.596   2.827   4.971  0.00  0.00    +0.005 A 
ENDBRANCH   1  20
BRANCH  10  23
ATOM     23  C   UNL     1       5.165   4.215   2.476  0.00  0.00    +0.183 C 
ATOM     24  O   UNL     1       4.955   3.047   2.727  0.00  0.00    -0.290 OA
BRANCH  23  25
ATOM     25  C   UNL     1       6.094   4.991   3.311  0.00  0.00    +0.019 A 
ATOM     26  C   UNL     1       6.343   6.337   3.022  0.00  0.00    +0.013 A 
ATOM     27  C   UNL     1       7.212   7.059   3.811  0.00  0.00    +0.020 A 
ATOM     28  C   UNL     1       7.846   6.452   4.883  0.00  0.00    +0.041 A 
ATOM     29  C   UNL     1       7.608   5.118   5.173  0.00  0.00    +0.020 A 
ATOM     30  C   UNL     1       6.738   4.385   4.395  0.00  0.00    +0.013 A 
ATOM     31 CL   UNL     1       8.944   7.368   5.868  0.00  0.00    -0.084 Cl
ENDBRANCH  23  25
ENDBRANCH  10  23
BRANCH   7  32
ATOM     32  C   UNL     1       0.903   0.988   0.361  0.00  0.00    +0.193 C 
ATOM     33  O   UNL     1      -0.276   1.284   0.355  0.00  0.00    -0.287 OA
BRANCH  32  34
ATOM     34  C   UNL     1       1.310  -0.417   0.565  0.00  0.00    +0.022 A 
ATOM     35  C   UNL     1       0.496  -1.457   0.109  0.00  0.00    +0.012 A 
ATOM     36  C   UNL     1       0.886  -2.767   0.298  0.00  0.00    +0.001 A 
ATOM     37  C   UNL     1       2.074  -3.052   0.947  0.00  0.00    +0.000 A 
ATOM     38  C   UNL     1       2.883  -2.027   1.405  0.00  0.00    +0.001 A 
ATOM     39  C   UNL     1       2.509  -0.713   1.219  0.00  0.00    +0.012 A 
ENDBRANCH  32  34
ENDBRANCH   7  32
TORSDOF 5
