REMARK  Name = ZINC11934562
REMARK  7 active torsions:
REMARK  status: ('A' for Active; 'I' for Inactive)
REMARK    1  A    between atoms: C_3  and  C_9
REMARK    2  A    between atoms: C_9  and  N_10
REMARK    3  A    between atoms: C_14  and  C_17
REMARK    4  A    between atoms: C_14  and  O_28
REMARK    5  A    between atoms: C_17  and  N_48
REMARK    6  A    between atoms: C_18  and  C_19
REMARK    7  A    between atoms: C_18  and  N_48
REMARK                            x       y       z     vdW  Elec       q    Type
REMARK                         _______ _______ _______ _____ _____    ______ ____
ROOT
ATOM      1  N   UNL     1       1.364   2.070  -0.004  0.00  0.00    -0.295 N 
ATOM      2  C   UNL     1      -0.005   1.570   0.030  0.00  0.00    +0.108 C 
ATOM      3  C   UNL     1      -0.016   0.041   0.041  0.00  0.00    +0.022 C 
ATOM      4  C   UNL     1       0.924  -0.450   1.149  0.00  0.00    +0.044 C 
ATOM      5  C   UNL     1       2.360  -0.092   0.757  0.00  0.00    +0.127 C 
ATOM      6  C   UNL     1       2.432   1.348   0.337  0.00  0.00    +0.246 C 
ATOM      7  O   UNL     1       3.520   1.884   0.308  0.00  0.00    -0.273 OA
ENDROOT
BRANCH   5   8
ATOM      8  O   UNL     1       2.777  -0.924  -0.328  0.00  0.00    -0.381 OA
ATOM      9  H   UNL     1       3.680  -0.753  -0.630  0.00  0.00    +0.211 HD
ENDBRANCH   5   8
BRANCH   1  10
ATOM     10  C   UNL     1       1.579   3.451  -0.442  0.00  0.00    +0.146 C 
BRANCH  10  13
ATOM     11  C   UNL     1       0.322   5.931   2.113  0.00  0.00    +0.003 A 
ATOM     12  C   UNL     1       0.376   5.091   1.016  0.00  0.00    +0.008 A 
ATOM     13  C   UNL     1       1.524   4.370   0.751  0.00  0.00    +0.008 A 
ATOM     14  C   UNL     1       2.627   4.497   1.579  0.00  0.00    +0.163 A 
ATOM     15  C   UNL     1       2.575   5.343   2.676  0.00  0.00    +0.159 A 
ATOM     16  C   UNL     1       1.421   6.060   2.941  0.00  0.00    +0.041 A 
ATOM     17  F   UNL     1       3.650   5.468   3.485  0.00  0.00    -0.202 F 
ATOM     18  F   UNL     1       3.752   3.796   1.317  0.00  0.00    -0.202 F 
ENDBRANCH  10  13
ENDBRANCH   1  10
BRANCH   5  19
ATOM     19  C   UNL     1       3.285  -0.319   1.954  0.00  0.00    -0.037 C 
BRANCH  19  20
ATOM     20  N   UNL     1       3.152  -1.716   2.410  0.00  0.00    +0.384 N 
ATOM     21  H   UNL     1       3.499  -2.346   1.678  0.00  0.00    -0.085 HD
ATOM     22  H   UNL     1       2.162  -1.919   2.595  0.00  0.00    -0.085 HD
BRANCH  20  23
ATOM     23  C   UNL     1       3.930  -1.928   3.645  0.00  0.00    -0.047 C 
BRANCH  23  24
ATOM     24  C   UNL     1       3.775  -3.361   4.086  0.00  0.00    -0.062 A 
ATOM     25  C   UNL     1       2.732  -3.694   4.960  0.00  0.00    +0.004 A 
ATOM     26  C   UNL     1       2.535  -4.964   5.390  0.00  0.00    +0.033 A 
ATOM     27  C   UNL     1       3.406  -5.983   4.960  0.00  0.00    +0.134 A 
ATOM     28  C   UNL     1       4.515  -5.629   4.038  0.00  0.00    +0.134 A 
ATOM     29  C   UNL     1       4.653  -4.288   3.630  0.00  0.00    +0.035 A 
ATOM     30  N   UNL     1       5.111  -6.780   3.847  0.00  0.00    -0.049 NA
ATOM     31  O   UNL     1       4.531  -7.638   4.482  0.00  0.00    -0.242 OA
ATOM     32  N   UNL     1       3.570  -7.272   5.128  0.00  0.00    -0.049 NA
ENDBRANCH  23  24
ENDBRANCH  20  23
ENDBRANCH  19  20
ENDBRANCH   5  19
TORSDOF 7
