REMARK  Name = ZINC39974337
REMARK  10 active torsions:
REMARK  status: ('A' for Active; 'I' for Inactive)
REMARK    1  A    between atoms: C_1  and  C_2
REMARK    2  A    between atoms: C_7  and  C_36
REMARK    3  A    between atoms: N_9  and  S_10
REMARK    4  A    between atoms: S_10  and  C_13
REMARK    5  A    between atoms: C_16  and  N_19
REMARK    6  A    between atoms: N_19  and  C_20
REMARK    7  A    between atoms: C_20  and  N_22
REMARK    8  A    between atoms: N_22  and  C_23
REMARK    9  A    between atoms: C_23  and  C_25
REMARK   10  A    between atoms: C_23  and  C_26
REMARK                            x       y       z     vdW  Elec       q    Type
REMARK                         _______ _______ _______ _____ _____    ______ ____
ROOT
ATOM      1  N   UNL     1      -0.476  -6.924  -1.198  0.00  0.00    -0.297 N 
ATOM      2  H   UNL     1      -0.559  -7.755  -0.704  0.00  0.00    +0.154 HD
ENDROOT
BRANCH   1   6
ATOM      3  C   UNL     1      -0.364  -3.291   0.837  0.00  0.00    +0.106 A 
ATOM      4  C   UNL     1      -1.036  -3.387  -0.368  0.00  0.00    +0.030 A 
ATOM      5  C   UNL     1      -1.075  -4.590  -1.045  0.00  0.00    +0.025 A 
ATOM      6  C   UNL     1      -0.438  -5.704  -0.515  0.00  0.00    +0.033 A 
ATOM      7  C   UNL     1       0.236  -5.605   0.695  0.00  0.00    +0.025 A 
ATOM      8  C   UNL     1       0.276  -4.397   1.365  0.00  0.00    +0.030 A 
BRANCH   3   9
ATOM      9  S   UNL     1      -0.317  -1.754   1.698  0.00  0.00    +0.061 S 
ATOM     10  O   UNL     1      -0.244  -2.066   3.082  0.00  0.00    -0.153 OA
ATOM     11  O   UNL     1      -1.353  -0.951   1.151  0.00  0.00    -0.153 OA
BRANCH   9  18
ATOM     12  C   UNL     1       3.387  -1.891   1.564  0.00  0.00    +0.026 C 
ATOM     13  C   UNL     1       2.264  -1.080   2.214  0.00  0.00    +0.077 C 
ATOM     14  C   UNL     1       2.754   0.344   2.494  0.00  0.00    +0.020 C 
ATOM     15  C   UNL     1       3.044   1.050   1.167  0.00  0.00    +0.003 C 
ATOM     16  C   UNL     1       1.758   1.135   0.341  0.00  0.00    +0.020 C 
ATOM     17  C   UNL     1       1.257  -0.280   0.037  0.00  0.00    +0.077 C 
ATOM     18  N   UNL     1       1.113  -1.016   1.303  0.00  0.00    -0.171 NA
ATOM     19  C   UNL     1      -0.098  -0.203  -0.671  0.00  0.00    +0.026 C 
ENDBRANCH   9  18
ENDBRANCH   3   9
ENDBRANCH   1   6
BRANCH   1  20
ATOM     20  C   UNL     1      -0.396  -6.946  -2.543  0.00  0.00    +0.135 C 
ATOM     21  S   UNL     1      -0.090  -5.500  -3.406  0.00  0.00    -0.019 S 
BRANCH  20  22
ATOM     22  N   UNL     1      -0.556  -8.107  -3.209  0.00  0.00    -0.320 N 
ATOM     23  H   UNL     1      -0.729  -8.927  -2.720  0.00  0.00    +0.148 HD
BRANCH  22  24
ATOM     24  C   UNL     1      -0.469  -8.131  -4.671  0.00  0.00    +0.099 C 
ATOM     25  C   UNL     1       0.996  -8.261  -5.093  0.00  0.00    +0.033 C 
BRANCH  24  26
ATOM     26  C   UNL     1      -1.251  -9.305  -5.202  0.00  0.00    -0.024 A 
ATOM     27  C   UNL     1      -1.209 -10.518  -4.540  0.00  0.00    +0.009 A 
ATOM     28  C   UNL     1      -1.924 -11.597  -5.024  0.00  0.00    +0.050 A 
ATOM     29  C   UNL     1      -2.685 -11.466  -6.176  0.00  0.00    +0.162 A 
ATOM     30  C   UNL     1      -2.729 -10.246  -6.840  0.00  0.00    +0.162 A 
ATOM     31  C   UNL     1      -2.013  -9.166  -6.346  0.00  0.00    +0.055 A 
ATOM     32  O   UNL     1      -3.476 -10.093  -7.968  0.00  0.00    -0.485 OA
ATOM     33  C   UNL     1      -3.885 -11.292  -8.636  0.00  0.00    +0.270 C 
ATOM     34  C   UNL     1      -4.426 -12.268  -7.582  0.00  0.00    +0.270 C 
ATOM     35  O   UNL     1      -3.380 -12.539  -6.643  0.00  0.00    -0.485 OA
ENDBRANCH  24  26
ENDBRANCH  22  24
ENDBRANCH  20  22
ENDBRANCH   1  20
TORSDOF 7
