REMARK  Name = ZINC09712657
REMARK  6 active torsions:
REMARK  status: ('A' for Active; 'I' for Inactive)
REMARK    1  A    between atoms: C_1  and  C_2
REMARK    2  A    between atoms: C_2  and  C_4
REMARK    3  A    between atoms: C_9  and  N_10
REMARK    4  A    between atoms: C_11  and  C_13
REMARK    5  A    between atoms: C_13  and  N_50
REMARK    6  A    between atoms: C_21  and  C_23
REMARK                            x       y       z     vdW  Elec       q    Type
REMARK                         _______ _______ _______ _____ _____    ______ ____
ROOT
ATOM      1  N   UNL     1      -2.688   3.776  -0.015  0.00  0.00    -0.286 N 
ATOM      2  C   UNL     1      -2.834   5.114   0.056  0.00  0.00    +0.201 C 
ATOM      3  O   UNL     1      -1.857   5.832   0.047  0.00  0.00    -0.278 OA
ATOM      4  H   UNL     1      -3.469   3.205  -0.089  0.00  0.00    +0.155 HD
ENDROOT
BRANCH   1  10
ATOM      5  C   UNL     1      -1.184   1.954  -0.568  0.00  0.00    +0.042 A 
ATOM      6  C   UNL     1       0.101   1.393  -0.523  0.00  0.00    +0.062 A 
ATOM      7  C   UNL     1       1.131   2.078   0.084  0.00  0.00    +0.167 A 
ATOM      8  C   UNL     1       0.898   3.330   0.662  0.00  0.00    +0.168 A 
ATOM      9  C   UNL     1      -0.370   3.890   0.627  0.00  0.00    +0.073 A 
ATOM     10  C   UNL     1      -1.415   3.212   0.019  0.00  0.00    +0.048 A 
ATOM     11  O   UNL     1       2.068   3.789   1.189  0.00  0.00    -0.453 OA
ATOM     12  C   UNL     1       2.922   2.635   1.295  0.00  0.00    +0.466 C 
ATOM     13  O   UNL     1       2.448   1.760   0.254  0.00  0.00    -0.453 OA
BRANCH   5  15
ATOM     14  C   UNL     1      -2.060  -0.165  -1.735  0.00  0.00    +0.091 C 
ATOM     15  C   UNL     1      -2.280   1.233  -1.218  0.00  0.00    +0.162 C 
ATOM     16  O   UNL     1      -3.366   1.761  -1.339  0.00  0.00    -0.292 OA
ENDBRANCH   5  15
ENDBRANCH   1  10
BRANCH   2  17
ATOM     17  C   UNL     1      -4.212   5.717   0.147  0.00  0.00    +0.020 C 
BRANCH  17  26
ATOM     18  C   UNL     1      -3.564   7.725  -1.042  0.00  0.00    -0.072 C 
ATOM     19  C   UNL     1      -3.086   9.165  -0.792  0.00  0.00    +0.024 C 
ATOM     20  C   UNL     1      -4.158   9.876  -0.033  0.00  0.00    -0.010 A 
ATOM     21  C   UNL     1      -5.222   9.305   0.600  0.00  0.00    -0.046 A 
ATOM     22  C   UNL     1      -6.100  10.172   1.246  0.00  0.00    +0.010 A 
ATOM     23  C   UNL     1      -5.872  11.506   1.224  0.00  0.00    +0.045 A 
ATOM     24  S   UNL     1      -4.367  11.608   0.266  0.00  0.00    -0.101 S 
ATOM     25  C   UNL     1      -5.390   7.789   0.571  0.00  0.00    +0.002 C 
ATOM     26  N   UNL     1      -4.079   7.184   0.239  0.00  0.00    +0.393 N 
ATOM     27  H   UNL     1      -3.411   7.411   0.985  0.00  0.00    -0.080 HD
BRANCH  25  28
ATOM     28  C   UNL     1      -5.819   7.301   1.931  0.00  0.00    -0.019 A 
ATOM     29  C   UNL     1      -7.057   6.954   2.362  0.00  0.00    +0.010 A 
ATOM     30  C   UNL     1      -7.217   6.530   3.667  0.00  0.00    +0.008 A 
ATOM     31  C   UNL     1      -6.132   6.473   4.478  0.00  0.00    +0.045 A 
ATOM     32  S   UNL     1      -4.828   7.024   3.389  0.00  0.00    -0.103 S 
ENDBRANCH  25  28
ENDBRANCH  17  26
ENDBRANCH   2  17
TORSDOF 5
