REMARK  Name = ZINC14477479
REMARK  6 active torsions:
REMARK  status: ('A' for Active; 'I' for Inactive)
REMARK    1  A    between atoms: C_1  and  C_2
REMARK    2  A    between atoms: C_2  and  C_3
REMARK    3  A    between atoms: C_3  and  O_4
REMARK    4  A    between atoms: O_4  and  C_5
REMARK    5  A    between atoms: C_5  and  C_7
REMARK    6  A    between atoms: C_20  and  C_23
REMARK                            x       y       z     vdW  Elec       q    Type
REMARK                         _______ _______ _______ _____ _____    ______ ____
ROOT
ATOM      1  C   UNL     1      -0.884  -2.146  -0.623  0.00  0.00    +0.059 A 
ATOM      2  C   UNL     1       0.141  -2.777   0.089  0.00  0.00    +0.017 A 
ATOM      3  C   UNL     1       1.081  -2.033   0.741  0.00  0.00    +0.024 A 
ATOM      4  C   UNL     1       1.035  -0.641   0.706  0.00  0.00    +0.031 A 
ATOM      5  C   UNL     1       0.002  -0.004   0.002  0.00  0.00    -0.019 A 
ATOM      6  C   UNL     1      -0.943  -0.749  -0.659  0.00  0.00    +0.021 A 
ATOM      7  C   UNL     1      -0.018   1.475   0.010  0.00  0.00    +0.049 C 
ATOM      8  C   UNL     1      -0.645   2.257  -1.086  0.00  0.00    -0.023 C 
ATOM      9  C   UNL     1       0.012   3.403  -1.219  0.00  0.00    -0.030 C 
ATOM     10  C   UNL     1       1.172   3.460  -0.224  0.00  0.00    +0.033 C 
ATOM     11  C   UNL     1       1.460   1.969  -0.001  0.00  0.00    +0.029 C 
ATOM     12  C   UNL     1       2.031   1.566   1.346  0.00  0.00    +0.106 C 
ATOM     13  N   UNL     1       2.033   0.087   1.352  0.00  0.00    -0.336 N 
ATOM     14  H   UNL     1       2.742  -0.386   1.815  0.00  0.00    +0.147 HD
ENDROOT
BRANCH  12  15
ATOM     15  C   UNL     1       3.437   2.088   1.492  0.00  0.00    -0.009 A 
ATOM     16  C   UNL     1       4.509   1.308   1.101  0.00  0.00    +0.008 A 
ATOM     17  C   UNL     1       5.798   1.786   1.235  0.00  0.00    +0.020 A 
ATOM     18  C   UNL     1       6.018   3.047   1.761  0.00  0.00    +0.042 A 
ATOM     19  C   UNL     1       4.946   3.829   2.154  0.00  0.00    +0.040 A 
ATOM     20  C   UNL     1       3.655   3.351   2.014  0.00  0.00    +0.047 A 
ATOM     21 CL   UNL     1       2.308   4.334   2.499  0.00  0.00    -0.083 Cl
ATOM     22 CL   UNL     1       7.637   3.649   1.929  0.00  0.00    -0.083 Cl
ENDBRANCH  12  15
BRANCH   1  23
ATOM     23  C   UNL     1      -1.896  -2.949  -1.333  0.00  0.00    +0.339 C 
ATOM     24  O   UNL     1      -2.785  -2.397  -1.950  0.00  0.00    -0.245 OA
BRANCH  23  25
ATOM     25  O   UNL     1      -1.835  -4.295  -1.296  0.00  0.00    -0.461 OA
BRANCH  25  26
ATOM     26  C   UNL     1      -2.865  -5.021  -2.018  0.00  0.00    +0.232 C 
BRANCH  26  28
ATOM     27  C   UNL     1      -3.718  -7.290  -2.622  0.00  0.00    +0.007 C 
ATOM     28  C   UNL     1      -2.633  -6.525  -1.862  0.00  0.00    +0.038 C 
ENDBRANCH  26  28
ENDBRANCH  25  26
ENDBRANCH  23  25
ENDBRANCH   1  23
TORSDOF 5
