REMARK  Name = ZINC52538481
REMARK  6 active torsions:
REMARK  status: ('A' for Active; 'I' for Inactive)
REMARK    1  A    between atoms: C_1  and  C_2
REMARK    2  A    between atoms: C_5  and  C_8
REMARK    3  A    between atoms: C_11  and  C_16
REMARK    4  A    between atoms: C_21  and  C_23
REMARK    5  A    between atoms: C_23  and  O_25
REMARK    6  A    between atoms: O_25  and  C_26
REMARK                            x       y       z     vdW  Elec       q    Type
REMARK                         _______ _______ _______ _____ _____    ______ ____
ROOT
ATOM      1  C   UNL     1       0.334  -4.948   0.165  0.00  0.00    +0.138 C 
ATOM      2  C   UNL     1      -1.142  -5.195   0.410  0.00  0.00    +0.055 C 
ATOM      3  C   UNL     1      -1.628  -4.992   1.789  0.00  0.00    +0.078 C 
ATOM      4  N   UNL     1      -0.757  -5.150   2.783  0.00  0.00    -0.192 NA
ATOM      5  C   UNL     1       0.516  -5.462   2.550  0.00  0.00    +0.155 C 
ATOM      6  S   UNL     1       1.496  -5.906   3.881  0.00  0.00    -0.017 S 
ATOM      7  N   UNL     1       1.073  -5.450   1.329  0.00  0.00    -0.314 N 
ATOM      8  C   UNL     1      -1.972  -5.582  -0.587  0.00  0.00    +0.269 C 
ATOM      9  O   UNL     1      -3.253  -5.925  -0.307  0.00  0.00    -0.280 OA
ATOM     10  H   UNL     1       1.978  -5.778   1.214  0.00  0.00    +0.149 HD
ENDROOT
BRANCH   1  15
ATOM     11  C   UNL     1       1.288   0.716  -0.468  0.00  0.00    +0.044 C 
ATOM     12  C   UNL     1       1.039  -0.761  -0.303  0.00  0.00    -0.050 A 
ATOM     13  C   UNL     1       0.969  -1.579  -1.415  0.00  0.00    +0.004 A 
ATOM     14  C   UNL     1       0.741  -2.934  -1.264  0.00  0.00    +0.006 A 
ATOM     15  C   UNL     1       0.583  -3.471   0.000  0.00  0.00    -0.023 A 
ATOM     16  C   UNL     1       0.654  -2.654   1.112  0.00  0.00    +0.006 A 
ATOM     17  C   UNL     1       0.886  -1.299   0.961  0.00  0.00    +0.004 A 
ENDBRANCH   1  15
BRANCH   3  18
ATOM     18  C   UNL     1      -3.022  -4.630   2.054  0.00  0.00    +0.036 A 
ATOM     19  C   UNL     1      -3.824  -4.967   3.138  0.00  0.00    +0.017 A 
ATOM     20  C   UNL     1      -5.105  -4.473   3.108  0.00  0.00    +0.008 A 
ATOM     21  C   UNL     1      -5.494  -3.711   2.054  0.00  0.00    +0.046 A 
ATOM     22  S   UNL     1      -4.130  -3.634   1.075  0.00  0.00    -0.095 S 
ENDBRANCH   3  18
BRANCH   8  23
ATOM     23  C   UNL     1      -1.482  -5.631  -1.980  0.00  0.00    +0.379 C 
ATOM     24  O   UNL     1      -0.369  -5.226  -2.246  0.00  0.00    -0.241 OA
BRANCH  23  25
ATOM     25  O   UNL     1      -2.271  -6.126  -2.954  0.00  0.00    -0.462 OA
ATOM     26  C   UNL     1      -1.733  -6.143  -4.278  0.00  0.00    +0.280 C 
ENDBRANCH  23  25
ENDBRANCH   8  23
TORSDOF 4
