REMARK  Name = ZINC14745964
REMARK  8 active torsions:
REMARK  status: ('A' for Active; 'I' for Inactive)
REMARK    1  A    between atoms: C_1  and  O_2
REMARK    2  A    between atoms: O_2  and  C_3
REMARK    3  A    between atoms: C_3  and  C_4
REMARK    4  A    between atoms: C_4  and  N_5
REMARK    5  A    between atoms: N_8  and  C_28
REMARK    6  A    between atoms: C_16  and  C_17
REMARK    7  A    between atoms: C_16  and  N_70
REMARK    8  A    between atoms: C_22  and  C_23
REMARK                            x       y       z     vdW  Elec       q    Type
REMARK                         _______ _______ _______ _____ _____    ______ ____
ROOT
ATOM      1  N   UNL     1      -3.788  -0.293   3.806  0.00  0.00    -0.269 N 
ATOM      2  C   UNL     1      -4.396  -0.447   4.998  0.00  0.00    +0.312 C 
ATOM      3  O   UNL     1      -5.408   0.143   5.322  0.00  0.00    -0.252 OA
ATOM      4  N   UNL     1      -3.761  -1.324   5.786  0.00  0.00    -0.220 N 
ATOM      5  C   UNL     1      -2.667  -1.832   5.182  0.00  0.00    +0.247 C 
ATOM      6  O   UNL     1      -1.889  -2.645   5.634  0.00  0.00    -0.273 OA
ATOM      7  C   UNL     1      -2.616  -1.177   3.821  0.00  0.00    +0.112 C 
ATOM      8  C   UNL     1      -2.721  -2.225   2.719  0.00  0.00    +0.017 C 
ATOM      9  C   UNL     1      -2.639  -1.535   1.354  0.00  0.00    -0.076 C 
ATOM     10  C   UNL     1      -1.296   0.263   2.271  0.00  0.00    -0.076 C 
ATOM     11  C   UNL     1      -1.333  -0.366   3.667  0.00  0.00    +0.017 C 
ATOM     12  N   UNL     1      -1.351  -0.814   1.260  0.00  0.00    +0.383 N 
ATOM     13  H   UNL     1      -0.586  -1.475   1.435  0.00  0.00    -0.081 HD
ENDROOT
BRANCH   4  14
ATOM     14  C   UNL     1      -4.199  -1.686   7.136  0.00  0.00    +0.094 C 
ATOM     15  C   UNL     1      -5.654  -2.203   7.120  0.00  0.00    +0.058 C 
ATOM     16  C   UNL     1      -6.262  -1.704   8.416  0.00  0.00    -0.042 A 
ATOM     17  C   UNL     1      -7.407  -2.108   9.083  0.00  0.00    +0.004 A 
ATOM     18  C   UNL     1      -7.771  -1.503  10.270  0.00  0.00    +0.000 A 
ATOM     19  C   UNL     1      -6.990  -0.490  10.795  0.00  0.00    +0.000 A 
ATOM     20  C   UNL     1      -5.849  -0.085  10.132  0.00  0.00    +0.004 A 
ATOM     21  C   UNL     1      -5.482  -0.691   8.942  0.00  0.00    -0.042 A 
ATOM     22  C   UNL     1      -4.297  -0.435   8.035  0.00  0.00    +0.058 C 
ENDBRANCH   4  14
BRANCH   1  23
ATOM     23  C   UNL     1      -4.213   0.582   2.711  0.00  0.00    +0.138 C 
BRANCH  23  24
ATOM     24  C   UNL     1      -4.155   2.040   3.171  0.00  0.00    +0.178 C 
BRANCH  24  26
ATOM     25  C   UNL     1      -2.636   3.740   3.913  0.00  0.00    +0.194 C 
ATOM     26  O   UNL     1      -2.803   2.391   3.471  0.00  0.00    -0.381 OA
ENDBRANCH  24  26
ENDBRANCH  23  24
ENDBRANCH   1  23
BRANCH  12  27
ATOM     27  C   UNL     1      -1.191  -0.243  -0.094  0.00  0.00    -0.042 C 
BRANCH  27  28
ATOM     28  C   UNL     1      -0.021   0.707  -0.093  0.00  0.00    -0.053 A 
ATOM     29  C   UNL     1      -0.236   2.068  -0.030  0.00  0.00    +0.002 A 
ATOM     30  C   UNL     1       0.836   2.942  -0.030  0.00  0.00    +0.000 A 
ATOM     31  C   UNL     1       2.131   2.457  -0.094  0.00  0.00    +0.001 A 
ATOM     32  C   UNL     1       2.360   1.099  -0.157  0.00  0.00    +0.012 A 
ATOM     33  C   UNL     1       1.282   0.211  -0.157  0.00  0.00    +0.019 A 
BRANCH  33  34
ATOM     34  C   UNL     1       1.520  -1.246  -0.225  0.00  0.00    +0.135 A 
ATOM     35  C   UNL     1       2.317  -1.883  -1.122  0.00  0.00    +0.050 A 
ATOM     36  C   UNL     1       2.250  -3.258  -0.820  0.00  0.00    +0.042 A 
ATOM     37  C   UNL     1       1.423  -3.390   0.235  0.00  0.00    +0.196 A 
ATOM     38  O   UNL     1       0.988  -2.172   0.596  0.00  0.00    -0.463 OA
ENDBRANCH  33  34
ENDBRANCH  27  28
ENDBRANCH  12  27
TORSDOF 7
