REMARK  Name = ZINC41585825
REMARK  7 active torsions:
REMARK  status: ('A' for Active; 'I' for Inactive)
REMARK    1  A    between atoms: C_1  and  C_2
REMARK    2  A    between atoms: C_4  and  O_34
REMARK    3  A    between atoms: C_5  and  C_21
REMARK    4  A    between atoms: C_11  and  C_12
REMARK    5  A    between atoms: C_17  and  O_18
REMARK    6  A    between atoms: O_18  and  C_19
REMARK    7  A    between atoms: C_21  and  N_22
REMARK                            x       y       z     vdW  Elec       q    Type
REMARK                         _______ _______ _______ _____ _____    ______ ____
ROOT
ATOM      1  C   UNL     1       0.437   0.312  -1.438  0.00  0.00    +0.045 C 
ATOM      2  C   UNL     1       0.944  -1.101  -1.306  0.00  0.00    -0.033 A 
ATOM      3  C   UNL     1       1.566  -1.706  -2.362  0.00  0.00    +0.050 A 
ATOM      4  C   UNL     1       2.035  -3.011  -2.242  0.00  0.00    +0.125 A 
ATOM      5  C   UNL     1       1.877  -3.711  -1.057  0.00  0.00    +0.051 A 
ATOM      6  C   UNL     1       1.246  -3.111   0.025  0.00  0.00    +0.148 A 
ATOM      7  C   UNL     1       0.783  -1.792  -0.105  0.00  0.00    +0.071 A 
ATOM      8  C   UNL     1       0.177  -1.434   1.191  0.00  0.00    +0.232 C 
ATOM      9  O   UNL     1      -0.348  -0.379   1.503  0.00  0.00    -0.283 OA
ATOM     10  C   UNL     1       0.349  -2.634   2.022  0.00  0.00    +0.176 C 
ATOM     11  C   UNL     1      -0.056  -2.783   3.309  0.00  0.00    +0.061 C 
ATOM     12  O   UNL     1       0.972  -3.569   1.266  0.00  0.00    -0.451 OA
ENDROOT
BRANCH  11  13
ATOM     13  C   UNL     1       0.125  -4.069   3.992  0.00  0.00    +0.020 A 
ATOM     14  C   UNL     1       0.514  -5.202   3.267  0.00  0.00    +0.011 A 
ATOM     15  C   UNL     1       0.681  -6.406   3.914  0.00  0.00    +0.001 A 
ATOM     16  C   UNL     1       0.468  -6.502   5.280  0.00  0.00    +0.004 A 
ATOM     17  C   UNL     1       0.084  -5.393   6.009  0.00  0.00    +0.046 A 
ATOM     18  C   UNL     1      -0.085  -4.171   5.377  0.00  0.00    +0.127 A 
BRANCH  18  19
ATOM     19  O   UNL     1      -0.456  -3.079   6.092  0.00  0.00    -0.495 OA
ATOM     20  C   UNL     1      -0.651  -3.259   7.497  0.00  0.00    +0.277 C 
ENDBRANCH  18  19
ENDBRANCH  11  13
BRANCH   4  21
ATOM     21  O   UNL     1       2.652  -3.603  -3.296  0.00  0.00    -0.506 OA
ATOM     22  H   UNL     1       3.610  -3.469  -3.317  0.00  0.00    +0.292 HD
ENDBRANCH   4  21
BRANCH   5  23
ATOM     23  C   UNL     1       2.388  -5.124  -0.943  0.00  0.00    +0.127 C 
BRANCH  23  24
ATOM     24  N   UNL     1       3.775  -5.105  -0.460  0.00  0.00    -0.295 NA
ATOM     25  C   UNL     1       3.848  -4.587   0.913  0.00  0.00    +0.103 C 
ATOM     26  C   UNL     1       5.317  -4.413   1.313  0.00  0.00    +0.122 C 
ATOM     27  N   UNL     1       6.016  -5.688   1.092  0.00  0.00    -0.314 N 
ATOM     28  C   UNL     1       5.877  -6.339  -0.220  0.00  0.00    +0.122 C 
ATOM     29  C   UNL     1       4.386  -6.437  -0.559  0.00  0.00    +0.103 C 
ATOM     30  C   UNL     1       6.786  -6.263   2.096  0.00  0.00    +0.099 A 
ATOM     31  C   UNL     1       7.321  -7.534   1.912  0.00  0.00    +0.042 A 
ATOM     32  C   UNL     1       8.086  -8.094   2.919  0.00  0.00    +0.005 A 
ATOM     33  C   UNL     1       8.291  -7.361   4.081  0.00  0.00    +0.018 A 
ATOM     34  C   UNL     1       7.730  -6.106   4.196  0.00  0.00    +0.084 A 
ATOM     35  N   UNL     1       7.009  -5.594   3.216  0.00  0.00    -0.350 N 
ATOM     36  H   UNL     1       6.629  -4.707   3.321  0.00  0.00    +0.166 HD
ENDBRANCH  23  24
ENDBRANCH   5  23
TORSDOF 5
