REMARK  Name = ZINC25584662
REMARK  13 active torsions:
REMARK  status: ('A' for Active; 'I' for Inactive)
REMARK    1  A    between atoms: C_1  and  N_2
REMARK    2  A    between atoms: N_2  and  C_3
REMARK    3  A    between atoms: N_2  and  C_23
REMARK    4  A    between atoms: C_3  and  C_4
REMARK    5  A    between atoms: C_4  and  C_5
REMARK    6  A    between atoms: C_5  and  C_6
REMARK    7  A    between atoms: C_6  and  C_21
REMARK    8  A    between atoms: C_23  and  C_24
REMARK    9  A    between atoms: C_24  and  C_25
REMARK   10  A    between atoms: C_28  and  O_33
REMARK   11  A    between atoms: C_29  and  O_31
REMARK   12  A    between atoms: O_31  and  C_32
REMARK   13  A    between atoms: O_33  and  C_34
REMARK                            x       y       z     vdW  Elec       q    Type
REMARK                         _______ _______ _______ _____ _____    ______ ____
ROOT
ATOM      1  C   UNL     1      -2.021   4.981   1.275  0.00  0.00    +0.029 C 
ENDROOT
BRANCH   1   2
ATOM      2  C   UNL     1      -2.417   3.982   0.185  0.00  0.00    +0.108 C 
ATOM      3  C   UNL     1      -1.738   2.728   0.536  0.00  0.00    -0.019 A 
ATOM      4  C   UNL     1      -2.202   2.199   1.763  0.00  0.00    +0.006 A 
ATOM      5  C   UNL     1      -1.797   0.967   2.210  0.00  0.00    +0.000 A 
ATOM      6  C   UNL     1      -0.908   0.248   1.430  0.00  0.00    +0.000 A 
ATOM      7  C   UNL     1      -0.442   0.799   0.270  0.00  0.00    +0.005 A 
ATOM      8  C   UNL     1      -0.846   2.088  -0.181  0.00  0.00    -0.032 A 
ATOM      9  C   UNL     1      -0.065   2.380  -1.449  0.00  0.00    +0.109 C 
ATOM     10  S   UNL     1      -1.087   2.971  -2.797  0.00  0.00    -0.120 S 
ATOM     11  C   UNL     1      -1.877   4.455  -2.234  0.00  0.00    +0.013 A 
ATOM     12  C   UNL     1      -2.417   4.758  -1.057  0.00  0.00    -0.010 A 
ATOM     13  C   UNL     1      -3.074   6.000  -0.892  0.00  0.00    +0.006 A 
ATOM     14  C   UNL     1      -3.138   6.928  -1.899  0.00  0.00    +0.000 A 
ATOM     15  C   UNL     1      -2.540   6.637  -3.113  0.00  0.00    +0.001 A 
ATOM     16  C   UNL     1      -1.922   5.427  -3.272  0.00  0.00    +0.015 A 
BRANCH   2  17
ATOM     17  C   UNL     1      -3.837   3.722   0.473  0.00  0.00    +0.079 C 
ATOM     18  N   UNL     1      -4.933   3.522   0.695  0.00  0.00    -0.195 NA
ENDBRANCH   2  17
ENDBRANCH   1   2
BRANCH   1  19
ATOM     19  C   UNL     1      -0.684   5.629   0.912  0.00  0.00    -0.016 C 
BRANCH  19  20
ATOM     20  C   UNL     1      -0.225   6.530   2.060  0.00  0.00    -0.079 C 
BRANCH  20  22
ATOM     21  C   UNL     1       2.123   6.145   1.611  0.00  0.00    -0.096 C 
ATOM     22  N   UNL     1       1.058   7.153   1.711  0.00  0.00    +0.378 N 
ATOM     23  H   UNL     1       0.947   7.626   0.725  0.00  0.00    -0.082 HD
BRANCH  22  24
ATOM     24  C   UNL     1       1.415   8.200   2.677  0.00  0.00    -0.075 C 
BRANCH  24  25
ATOM     25  C   UNL     1       2.616   8.990   2.153  0.00  0.00    +0.017 C 
BRANCH  25  26
ATOM     26  C   UNL     1       2.982  10.065   3.144  0.00  0.00    -0.045 A 
ATOM     27  C   UNL     1       2.412  11.320   3.042  0.00  0.00    +0.007 A 
ATOM     28  C   UNL     1       2.740  12.308   3.952  0.00  0.00    +0.049 A 
ATOM     29  C   UNL     1       3.651  12.044   4.963  0.00  0.00    +0.161 A 
ATOM     30  C   UNL     1       4.229  10.782   5.062  0.00  0.00    +0.162 A 
ATOM     31  C   UNL     1       3.891   9.795   4.150  0.00  0.00    +0.053 A 
BRANCH  30  32
ATOM     32  O   UNL     1       5.123  10.518   6.052  0.00  0.00    -0.491 OA
ATOM     33  C   UNL     1       5.676   9.201   6.093  0.00  0.00    +0.277 C 
ENDBRANCH  30  32
BRANCH  29  34
ATOM     34  O   UNL     1       3.979  13.016   5.855  0.00  0.00    -0.491 OA
ATOM     35  C   UNL     1       3.346  14.287   5.692  0.00  0.00    +0.277 C 
ENDBRANCH  29  34
ENDBRANCH  25  26
ENDBRANCH  24  25
ENDBRANCH  22  24
ENDBRANCH  20  22
ENDBRANCH  19  20
ENDBRANCH   1  19
TORSDOF 10
