REMARK  Name = ZINC05642776
REMARK  9 active torsions:
REMARK  status: ('A' for Active; 'I' for Inactive)
REMARK    1  A    between atoms: C_1  and  C_2
REMARK    2  A    between atoms: C_2  and  C_3
REMARK    3  A    between atoms: C_3  and  C_4
REMARK    4  A    between atoms: C_10  and  C_13
REMARK    5  A    between atoms: C_17  and  O_19
REMARK    6  A    between atoms: N_22  and  C_23
REMARK    7  A    between atoms: C_23  and  C_24
REMARK    8  A    between atoms: C_26  and  C_31
REMARK    9  A    between atoms: C_29  and  C_30
REMARK                            x       y       z     vdW  Elec       q    Type
REMARK                         _______ _______ _______ _____ _____    ______ ____
ROOT
ATOM      1  C   UNL     1      -3.232  -0.790  -4.858  0.00  0.00    +0.140 A 
ATOM      2  N   UNL     1      -2.189  -1.253  -4.204  0.00  0.00    -0.211 NA
ATOM      3  C   UNL     1      -2.238  -2.438  -3.603  0.00  0.00    +0.186 A 
ATOM      4  C   UNL     1      -3.422  -3.194  -3.675  0.00  0.00    +0.192 A 
ATOM      5  C   UNL     1      -4.508  -2.653  -4.388  0.00  0.00    +0.246 A 
ATOM      6  N   UNL     1      -4.365  -1.463  -4.954  0.00  0.00    -0.196 NA
ATOM      7  N   UNL     1      -3.221  -4.338  -2.998  0.00  0.00    -0.122 NA
ATOM      8  N   UNL     1      -2.027  -4.366  -2.519  0.00  0.00    -0.063 NA
ATOM      9  N   UNL     1      -1.358  -3.182  -2.867  0.00  0.00    -0.222 N 
ENDROOT
BRANCH   1  16
ATOM     10  C   UNL     1      -2.594   2.034  -8.685  0.00  0.00    +0.216 C 
ATOM     11  O   UNL     1      -1.841   1.192  -9.127  0.00  0.00    -0.276 OA
ATOM     12  N   UNL     1      -3.395   1.740  -7.642  0.00  0.00    -0.301 N 
ATOM     13  C   UNL     1      -4.312   2.750  -7.096  0.00  0.00    +0.108 C 
ATOM     14  C   UNL     1      -4.065   2.877  -5.589  0.00  0.00    +0.020 C 
ATOM     15  C   UNL     1      -4.188   1.498  -4.938  0.00  0.00    +0.014 C 
ATOM     16  C   UNL     1      -3.131   0.559  -5.524  0.00  0.00    +0.074 C 
ATOM     17  C   UNL     1      -3.368   0.405  -7.029  0.00  0.00    +0.119 C 
BRANCH  10  18
ATOM     18  C   UNL     1      -2.634   3.408  -9.303  0.00  0.00    +0.096 C 
BRANCH  18  20
ATOM     19  C   UNL     1      -1.676   4.870 -11.088  0.00  0.00    +0.004 C 
ATOM     20  C   UNL     1      -1.635   3.476 -10.460  0.00  0.00    +0.006 C 
ENDBRANCH  18  20
ENDBRANCH  10  18
ENDBRANCH   1  16
BRANCH   5  21
ATOM     21  O   UNL     1      -5.675  -3.333  -4.492  0.00  0.00    -0.491 OA
ATOM     22  H   UNL     1      -6.305  -3.143  -3.784  0.00  0.00    +0.294 HD
ENDBRANCH   5  21
BRANCH   9  23
ATOM     23  C   UNL     1       0.016  -2.817  -2.515  0.00  0.00    +0.183 C 
BRANCH  23  24
ATOM     24  C   UNL     1       0.018  -2.071  -1.206  0.00  0.00    -0.023 A 
ATOM     25  C   UNL     1      -0.006  -0.689  -1.199  0.00  0.00    +0.009 A 
ATOM     26  C   UNL     1       0.002  -0.004   0.002  0.00  0.00    -0.050 A 
ATOM     27  C   UNL     1       0.023  -0.702   1.196  0.00  0.00    +0.003 A 
ATOM     28  C   UNL     1       0.041  -2.084   1.188  0.00  0.00    +0.004 A 
ATOM     29  C   UNL     1       0.039  -2.768  -0.013  0.00  0.00    -0.046 A 
ATOM     30  C   UNL     1       0.059  -4.275  -0.021  0.00  0.00    +0.044 C 
ATOM     31  C   UNL     1      -0.018   1.503   0.010  0.00  0.00    +0.044 C 
ENDBRANCH  23  24
ENDBRANCH   9  23
TORSDOF 6
