REMARK  Name = ZINC34755358
REMARK  7 active torsions:
REMARK  status: ('A' for Active; 'I' for Inactive)
REMARK    1  A    between atoms: C_1  and  N_2
REMARK    2  A    between atoms: N_2  and  C_3
REMARK    3  A    between atoms: C_3  and  C_4
REMARK    4  A    between atoms: C_9  and  C_11
REMARK    5  A    between atoms: C_15  and  C_26
REMARK    6  A    between atoms: N_17  and  C_19
REMARK    7  A    between atoms: C_19  and  C_20
REMARK                            x       y       z     vdW  Elec       q    Type
REMARK                         _______ _______ _______ _____ _____    ______ ____
ROOT
ATOM      1  C   UNL     1      -0.023   0.089  -2.470  0.00  0.00    +0.059 C 
ATOM      2  C   UNL     1       1.216   0.985  -2.560  0.00  0.00    +0.009 C 
ATOM      3  C   UNL     1       1.224   1.694  -3.917  0.00  0.00    -0.010 C 
ATOM      4  C   UNL     1       1.183   0.647  -5.033  0.00  0.00    -0.037 C 
ATOM      5  N   UNL     1      -0.036  -0.160  -4.907  0.00  0.00    +0.387 N 
ATOM      6  C   UNL     1      -0.018  -0.898  -3.639  0.00  0.00    -0.065 C 
ATOM      7  H   UNL     1      -0.843   0.445  -4.931  0.00  0.00    -0.080 HD
ENDROOT
BRANCH   4   8
ATOM      8  C   UNL     1       1.190   1.339  -6.371  0.00  0.00    -0.061 A 
ATOM      9  C   UNL     1       0.022   1.880  -6.875  0.00  0.00    +0.005 A 
ATOM     10  C   UNL     1       0.027   2.516  -8.102  0.00  0.00    +0.038 A 
ATOM     11  C   UNL     1       1.203   2.611  -8.827  0.00  0.00    +0.123 A 
ATOM     12  C   UNL     1       2.372   2.070  -8.321  0.00  0.00    +0.038 A 
ATOM     13  C   UNL     1       2.366   1.439  -7.091  0.00  0.00    +0.005 A 
ATOM     14  F   UNL     1       1.209   3.232 -10.027  0.00  0.00    -0.205 F 
ENDBRANCH   4   8
BRANCH   1  17
ATOM     15  C   UNL     1      -0.018   1.461   0.010  0.00  0.00    +0.132 C 
ATOM     16  N   UNL     1       0.002  -0.004   0.002  0.00  0.00    -0.297 N 
ATOM     17  C   UNL     1       0.000  -0.672  -1.169  0.00  0.00    +0.217 C 
ATOM     18  O   UNL     1       0.017  -1.884  -1.175  0.00  0.00    -0.275 OA
BRANCH  16  19
ATOM     19  C   UNL     1       0.024  -0.743   1.267  0.00  0.00    +0.181 C 
BRANCH  19  20
ATOM     20  C   UNL     1      -1.389  -1.016   1.714  0.00  0.00    +0.122 A 
ATOM     21  C   UNL     1      -2.117  -2.103   1.401  0.00  0.00    +0.046 A 
ATOM     22  C   UNL     1      -3.375  -1.948   2.027  0.00  0.00    +0.041 A 
ATOM     23  C   UNL     1      -3.340  -0.775   2.686  0.00  0.00    +0.195 A 
ATOM     24  O   UNL     1      -2.133  -0.218   2.497  0.00  0.00    -0.466 OA
ENDBRANCH  19  20
ENDBRANCH  16  19
ENDBRANCH   1  17
BRANCH   5  25
ATOM     25  C   UNL     1      -0.110  -1.111  -6.024  0.00  0.00    -0.042 C 
BRANCH  25  26
ATOM     26  C   UNL     1      -1.419  -1.855  -5.966  0.00  0.00    -0.064 A 
ATOM     27  C   UNL     1      -1.512  -3.035  -5.252  0.00  0.00    +0.002 A 
ATOM     28  C   UNL     1      -2.713  -3.718  -5.198  0.00  0.00    +0.000 A 
ATOM     29  C   UNL     1      -3.821  -3.220  -5.858  0.00  0.00    +0.000 A 
ATOM     30  C   UNL     1      -3.728  -2.040  -6.572  0.00  0.00    +0.000 A 
ATOM     31  C   UNL     1      -2.528  -1.355  -6.622  0.00  0.00    +0.002 A 
ENDBRANCH  25  26
ENDBRANCH   5  25
TORSDOF 6
