REMARK  Name = ZINC51186565
REMARK  7 active torsions:
REMARK  status: ('A' for Active; 'I' for Inactive)
REMARK    1  A    between atoms: C_1  and  C_2
REMARK    2  A    between atoms: C_4  and  N_22
REMARK    3  A    between atoms: C_7  and  N_8
REMARK    4  A    between atoms: N_8  and  C_9
REMARK    5  A    between atoms: C_9  and  C_11
REMARK    6  A    between atoms: C_9  and  C_12
REMARK    7  A    between atoms: N_14  and  C_15
REMARK                            x       y       z     vdW  Elec       q    Type
REMARK                         _______ _______ _______ _____ _____    ______ ____
ROOT
ATOM      1  N   UNL     1      -0.003   0.409   2.219  0.00  0.00    -0.333 N 
ATOM      2  H   UNL     1      -0.028   1.373   2.321  0.00  0.00    +0.147 HD
ENDROOT
BRANCH   1   9
ATOM      3  C   UNL     1      -0.004   2.154  -0.025  0.00  0.00    +0.046 C 
ATOM      4  C   UNL     1       0.034   0.656  -0.182  0.00  0.00    -0.028 A 
ATOM      5  C   UNL     1       0.076   0.095  -1.444  0.00  0.00    +0.028 A 
ATOM      6  C   UNL     1       0.112  -1.286  -1.589  0.00  0.00    +0.030 A 
ATOM      7  C   UNL     1       0.106  -2.102  -0.465  0.00  0.00    +0.025 A 
ATOM      8  C   UNL     1       0.064  -1.541   0.796  0.00  0.00    +0.025 A 
ATOM      9  C   UNL     1       0.034  -0.160   0.941  0.00  0.00    +0.031 A 
BRANCH   6  10
ATOM     10  N   UNL     1       0.154  -1.854  -2.867  0.00  0.00    -0.328 N 
ATOM     11  C   UNL     1       0.320  -3.302  -3.010  0.00  0.00    +0.116 C 
ATOM     12  C   UNL     1      -0.949  -3.904  -3.623  0.00  0.00    +0.088 C 
ATOM     13  S   UNL     1      -1.269  -3.088  -5.216  0.00  0.00    -0.158 S 
ATOM     14  C   UNL     1      -1.274  -1.322  -4.782  0.00  0.00    +0.088 C 
ATOM     15  C   UNL     1       0.025  -0.995  -4.045  0.00  0.00    +0.116 C 
ENDBRANCH   6  10
ENDBRANCH   1   9
BRANCH   1  16
ATOM     16  C   UNL     1      -0.003  -0.453   3.405  0.00  0.00    +0.154 C 
ATOM     17  C   UNL     1      -1.436  -0.888   3.717  0.00  0.00    +0.038 C 
BRANCH  16  18
ATOM     18  C   UNL     1       0.558   0.308   4.578  0.00  0.00    +0.237 C 
ATOM     19  O   UNL     1       0.923   1.456   4.438  0.00  0.00    -0.273 OA
ATOM     20  N   UNL     1       0.655  -0.288   5.783  0.00  0.00    -0.282 N 
ATOM     21  H   UNL     1       0.442  -1.230   5.877  0.00  0.00    +0.155 HD
BRANCH  20  22
ATOM     22  C   UNL     1       1.064   0.452   6.899  0.00  0.00    +0.071 A 
ATOM     23  C   UNL     1       0.721   1.795   7.020  0.00  0.00    +0.028 A 
ATOM     24  C   UNL     1       1.149   2.486   8.143  0.00  0.00    +0.022 A 
ATOM     25  C   UNL     1       1.897   1.824   9.099  0.00  0.00    +0.112 A 
ATOM     26  N   UNL     1       2.206   0.550   8.955  0.00  0.00    -0.242 NA
ATOM     27  C   UNL     1       1.814  -0.146   7.905  0.00  0.00    +0.150 A 
ATOM     28 CL   UNL     1       2.245  -1.823   7.776  0.00  0.00    -0.060 Cl
ENDBRANCH  20  22
ENDBRANCH  16  18
ENDBRANCH   1  16
TORSDOF 5
