REMARK  Name = ZINC44074990
REMARK  10 active torsions:
REMARK  status: ('A' for Active; 'I' for Inactive)
REMARK    1  A    between atoms: C_1  and  C_2
REMARK    2  A    between atoms: C_6  and  C_32
REMARK    3  A    between atoms: C_9  and  C_31
REMARK    4  A    between atoms: C_14  and  C_20
REMARK    5  A    between atoms: C_15  and  O_19
REMARK    6  A    between atoms: C_21  and  C_26
REMARK    7  A    between atoms: C_22  and  O_25
REMARK    8  A    between atoms: C_26  and  C_28
REMARK    9  A    between atoms: C_26  and  C_29
REMARK   10  A    between atoms: C_29  and  O_30
REMARK                            x       y       z     vdW  Elec       q    Type
REMARK                         _______ _______ _______ _____ _____    ______ ____
ROOT
ATOM      1  C   UNL     1      -0.770   1.075   0.229  0.00  0.00    +0.039 C 
ATOM      2  C   UNL     1      -0.671  -0.429   0.195  0.00  0.00    -0.076 C 
ATOM      3  C   UNL     1      -0.537  -1.051  -0.951  0.00  0.00    -0.028 C 
ATOM      4  C   UNL     1      -0.468  -0.261  -2.231  0.00  0.00    +0.031 C 
ATOM      5  C   UNL     1       0.447  -0.981  -3.224  0.00  0.00    +0.034 C 
ATOM      6  C   UNL     1       1.886  -0.740  -2.849  0.00  0.00    -0.076 C 
ATOM      7  C   UNL     1       2.781  -1.678  -3.061  0.00  0.00    -0.027 C 
ATOM      8  C   UNL     1       4.215  -1.450  -2.678  0.00  0.00    +0.042 C 
ATOM      9  C   UNL     1       4.723  -2.513  -1.709  0.00  0.00    +0.044 C 
ATOM     10  C   UNL     1       4.984  -1.901  -0.324  0.00  0.00    +0.036 C 
ATOM     11  C   UNL     1       4.203  -2.681   0.735  0.00  0.00    +0.036 C 
ATOM     12  C   UNL     1       4.131  -1.879   2.008  0.00  0.00    -0.025 C 
ATOM     13  C   UNL     1       2.976  -1.451   2.454  0.00  0.00    -0.048 C 
ATOM     14  C   UNL     1       1.713  -1.762   1.694  0.00  0.00    +0.140 C 
ATOM     15  C   UNL     1       0.555  -0.955   2.283  0.00  0.00    +0.040 C 
ATOM     16  C   UNL     1      -0.720  -1.215   1.478  0.00  0.00    +0.033 C 
ATOM     17  C   UNL     1       2.909  -0.648   3.728  0.00  0.00    +0.041 C 
ATOM     18  C   UNL     1       6.463  -2.043  -0.083  0.00  0.00    -0.015 C 
ATOM     19  C   UNL     1       7.045  -2.662  -1.106  0.00  0.00    +0.160 C 
ATOM     20  C   UNL     1       6.084  -3.010  -2.152  0.00  0.00    +0.204 C 
ATOM     21  O   UNL     1       6.332  -3.592  -3.187  0.00  0.00    -0.288 OA
ATOM     22  C   UNL     1       3.753  -3.689  -1.588  0.00  0.00    +0.020 C 
ATOM     23  C   UNL     1       2.301   0.577  -2.247  0.00  0.00    +0.039 C 
ENDROOT
BRANCH  14  24
ATOM     24  O   UNL     1       1.424  -3.157   1.799  0.00  0.00    -0.388 OA
ATOM     25  H   UNL     1       2.118  -3.730   1.445  0.00  0.00    +0.210 HD
ENDBRANCH  14  24
BRANCH  19  26
ATOM     26  O   UNL     1       8.375  -2.939  -1.171  0.00  0.00    -0.503 OA
ATOM     27  H   UNL     1       8.643  -3.394  -1.982  0.00  0.00    +0.292 HD
ENDBRANCH  19  26
BRANCH  18  28
ATOM     28  C   UNL     1       7.184  -1.552   1.145  0.00  0.00    +0.041 C 
ATOM     29  C   UNL     1       8.303  -0.594   0.732  0.00  0.00    +0.014 C 
BRANCH  28  30
ATOM     30  C   UNL     1       7.784  -2.743   1.895  0.00  0.00    +0.163 C 
BRANCH  30  31
ATOM     31  O   UNL     1       8.367  -2.291   3.119  0.00  0.00    -0.394 OA
ATOM     32  H   UNL     1       8.767  -2.994   3.648  0.00  0.00    +0.209 HD
ENDBRANCH  30  31
ENDBRANCH  28  30
ENDBRANCH  18  28
TORSDOF 5
