REMARK  Name = ZINC36784527
REMARK  7 active torsions:
REMARK  status: ('A' for Active; 'I' for Inactive)
REMARK    1  A    between atoms: C_1  and  C_2
REMARK    2  A    between atoms: C_2  and  C_3
REMARK    3  A    between atoms: C_3  and  C_29
REMARK    4  A    between atoms: N_6  and  N_10
REMARK    5  A    between atoms: C_11  and  C_13
REMARK    6  A    between atoms: C_13  and  S_14
REMARK    7  A    between atoms: S_14  and  C_15
REMARK                            x       y       z     vdW  Elec       q    Type
REMARK                         _______ _______ _______ _____ _____    ______ ____
ROOT
ATOM      1  N   UNL     1      -3.950   0.809  -2.321  0.00  0.00    -0.223 N 
ATOM      2  C   UNL     1      -5.230   0.388  -2.296  0.00  0.00    +0.240 C 
ATOM      3  O   UNL     1      -5.520  -0.638  -1.718  0.00  0.00    -0.273 OA
ATOM      4  H   UNL     1      -3.718   1.630  -2.783  0.00  0.00    +0.174 HD
ENDROOT
BRANCH   1   8
ATOM      5  C   UNL     1      -1.187  -1.317  -1.236  0.00  0.00    +0.139 C 
ATOM      6  C   UNL     1      -2.053  -0.707  -2.321  0.00  0.00    +0.268 C 
ATOM      7  O   UNL     1      -1.954  -0.877  -3.517  0.00  0.00    -0.271 OA
ATOM      8  N   UNL     1      -2.954   0.061  -1.679  0.00  0.00    -0.137 N 
ATOM      9  C   UNL     1      -2.781   0.022  -0.353  0.00  0.00    +0.327 C 
ATOM     10  O   UNL     1      -3.473   0.634   0.437  0.00  0.00    -0.251 OA
ATOM     11  N   UNL     1      -1.755  -0.769   0.009  0.00  0.00    -0.280 N 
ATOM     12  H   UNL     1      -1.450  -0.946   0.912  0.00  0.00    +0.152 HD
BRANCH   5  13
ATOM     13  C   UNL     1      -1.293  -2.820  -1.250  0.00  0.00    -0.015 A 
ATOM     14  C   UNL     1      -0.381  -3.570  -1.970  0.00  0.00    +0.006 A 
ATOM     15  C   UNL     1      -0.478  -4.949  -1.983  0.00  0.00    +0.000 A 
ATOM     16  C   UNL     1      -1.487  -5.578  -1.277  0.00  0.00    +0.000 A 
ATOM     17  C   UNL     1      -2.398  -4.828  -0.557  0.00  0.00    +0.000 A 
ATOM     18  C   UNL     1      -2.298  -3.449  -0.540  0.00  0.00    +0.006 A 
ENDBRANCH   5  13
BRANCH   5  20
ATOM     19  C   UNL     1       0.358   0.645  -1.310  0.00  0.00    +0.007 C 
ATOM     20  C   UNL     1       0.270  -0.880  -1.400  0.00  0.00    +0.037 C 
ENDBRANCH   5  20
ENDBRANCH   1   8
BRANCH   2  21
ATOM     21  C   UNL     1      -6.301   1.193  -2.987  0.00  0.00    +0.174 C 
BRANCH  21  22
ATOM     22  S   UNL     1      -7.905   0.372  -2.775  0.00  0.00    -0.077 S 
BRANCH  22  23
ATOM     23  C   UNL     1      -9.036   1.420  -3.627  0.00  0.00    +0.191 A 
ATOM     24  N   UNL     1      -8.585   2.517  -4.225  0.00  0.00    -0.207 NA
ATOM     25  C   UNL     1      -9.385   3.341  -4.879  0.00  0.00    +0.129 A 
ATOM     26  C   UNL     1     -10.777   3.051  -4.948  0.00  0.00    +0.051 A 
ATOM     27  C   UNL     1     -11.839   3.813  -5.607  0.00  0.00    -0.025 A 
ATOM     28  C   UNL     1     -13.090   3.317  -5.524  0.00  0.00    -0.004 A 
ATOM     29  S   UNL     1     -12.935   1.827  -4.577  0.00  0.00    -0.073 S 
ATOM     30  C   UNL     1     -11.185   1.873  -4.292  0.00  0.00    +0.115 A 
ATOM     31  N   UNL     1     -10.322   1.097  -3.663  0.00  0.00    -0.214 NA
ATOM     32  C   UNL     1     -14.340   3.904  -6.107  0.00  0.00    +0.043 C 
ATOM     33  C   UNL     1     -14.052   5.358  -6.506  0.00  0.00    +0.005 C 
ATOM     34  C   UNL     1     -12.740   5.401  -7.294  0.00  0.00    +0.005 C 
ATOM     35  C   UNL     1     -11.564   5.112  -6.359  0.00  0.00    +0.037 C 
ATOM     36  N   UNL     1      -8.876   4.473  -5.489  0.00  0.00    -0.343 N 
ATOM     37  H   UNL     1      -7.922   4.552  -5.647  0.00  0.00    +0.144 HD
ATOM     38  H   UNL     1      -9.473   5.189  -5.758  0.00  0.00    +0.144 HD
ENDBRANCH  22  23
ENDBRANCH  21  22
ENDBRANCH   2  21
TORSDOF 6
