REMARK  Name = ZINC63646491
REMARK  8 active torsions:
REMARK  status: ('A' for Active; 'I' for Inactive)
REMARK    1  A    between atoms: C_1  and  C_2
REMARK    2  A    between atoms: C_5  and  C_9
REMARK    3  A    between atoms: C_6  and  C_8
REMARK    4  A    between atoms: C_11  and  C_26
REMARK    5  A    between atoms: C_12  and  C_14
REMARK    6  A    between atoms: N_16  and  C_17
REMARK    7  A    between atoms: N_16  and  C_21
REMARK    8  A    between atoms: C_17  and  C_18
REMARK                            x       y       z     vdW  Elec       q    Type
REMARK                         _______ _______ _______ _____ _____    ______ ____
ROOT
ATOM      1  C   UNL     1       1.260  -4.563   0.183  0.00  0.00    +0.109 A 
ATOM      2  N   UNL     1       1.283  -5.471   1.145  0.00  0.00    -0.243 NA
ATOM      3  C   UNL     1       1.029  -6.730   0.903  0.00  0.00    +0.058 A 
ATOM      4  C   UNL     1       0.736  -7.057  -0.415  0.00  0.00    +0.097 A 
ATOM      5  S   UNL     1       0.856  -5.452  -1.188  0.00  0.00    -0.062 S 
ATOM      6  C   UNL     1       1.054  -7.769   1.993  0.00  0.00    +0.067 C 
ENDROOT
BRANCH   1  11
ATOM      7  C   UNL     1       2.274   1.086   0.594  0.00  0.00    +0.044 C 
ATOM      8  C   UNL     1       2.008  -0.393   0.487  0.00  0.00    -0.050 A 
ATOM      9  C   UNL     1       1.688  -0.948  -0.740  0.00  0.00    +0.004 A 
ATOM     10  C   UNL     1       1.444  -2.302  -0.845  0.00  0.00    +0.011 A 
ATOM     11  C   UNL     1       1.521  -3.112   0.289  0.00  0.00    +0.010 A 
ATOM     12  C   UNL     1       1.845  -2.546   1.523  0.00  0.00    -0.041 A 
ATOM     13  C   UNL     1       2.092  -1.192   1.613  0.00  0.00    +0.007 A 
ATOM     14  C   UNL     1       1.931  -3.413   2.752  0.00  0.00    +0.044 C 
ENDBRANCH   1  11
BRANCH   4  15
ATOM     15  C   UNL     1       0.413  -8.359  -1.007  0.00  0.00    +0.256 C 
ATOM     16  O   UNL     1       0.505  -9.371  -0.337  0.00  0.00    -0.269 OA
ATOM     17  N   UNL     1       0.015  -8.435  -2.292  0.00  0.00    -0.285 N 
BRANCH  17  18
ATOM     18  C   UNL     1      -0.374  -9.727  -2.863  0.00  0.00    +0.077 C 
ATOM     19  C   UNL     1      -1.493 -10.365  -2.014  0.00  0.00    +0.022 C 
ATOM     20  C   UNL     1      -1.167 -11.879  -2.031  0.00  0.00    +0.002 C 
ATOM     21  C   UNL     1       0.380 -11.896  -1.953  0.00  0.00    +0.002 C 
ATOM     22  C   UNL     1       0.816 -10.700  -2.825  0.00  0.00    +0.022 C 
ENDBRANCH  17  18
BRANCH  17  23
ATOM     23  C   UNL     1      -0.029  -7.226  -3.118  0.00  0.00    +0.203 C 
BRANCH  23  24
ATOM     24  C   UNL     1       1.347  -6.936  -3.658  0.00  0.00    +0.228 C 
ATOM     25  O   UNL     1       2.274  -7.668  -3.381  0.00  0.00    -0.274 OA
ATOM     26  N   UNL     1       1.549  -5.864  -4.450  0.00  0.00    -0.328 N 
ATOM     27  H   UNL     1       0.808  -5.279  -4.672  0.00  0.00    +0.145 HD
ATOM     28  H   UNL     1       2.435  -5.678  -4.797  0.00  0.00    +0.145 HD
ENDBRANCH  23  24
ENDBRANCH  17  23
ENDBRANCH   4  15
TORSDOF 5
