REMARK  Name = ZINC47454672
REMARK  10 active torsions:
REMARK  status: ('A' for Active; 'I' for Inactive)
REMARK    1  A    between atoms: C_1  and  C_2
REMARK    2  A    between atoms: C_2  and  C_4
REMARK    3  A    between atoms: C_2  and  O_22
REMARK    4  A    between atoms: N_6  and  N_7
REMARK    5  A    between atoms: C_8  and  C_10
REMARK    6  A    between atoms: C_16  and  C_18
REMARK    7  A    between atoms: C_18  and  C_19
REMARK    8  A    between atoms: C_18  and  C_20
REMARK    9  A    between atoms: C_18  and  C_21
REMARK   10  A    between atoms: O_22  and  C_23
REMARK                            x       y       z     vdW  Elec       q    Type
REMARK                         _______ _______ _______ _____ _____    ______ ____
ROOT
ATOM      1  N   UNL     1       1.412  -1.313  -3.872  0.00  0.00    -0.233 N 
ATOM      2  C   UNL     1       1.051  -1.082  -5.149  0.00  0.00    +0.250 C 
ATOM      3  O   UNL     1       0.031  -0.471  -5.391  0.00  0.00    -0.272 OA
ATOM      4  H   UNL     1       2.228  -1.802  -3.679  0.00  0.00    +0.173 HD
ENDROOT
BRANCH   2   5
ATOM      5  C   UNL     1       1.914  -1.583  -6.279  0.00  0.00    +0.163 C 
ATOM      6  C   UNL     1       3.310  -0.927  -6.203  0.00  0.00    +0.033 C 
ATOM      7  C   UNL     1       3.657  -0.676  -7.694  0.00  0.00    +0.021 C 
ATOM      8  C   UNL     1       2.268  -0.322  -8.282  0.00  0.00    +0.108 C 
ATOM      9  N   UNL     1       1.320  -1.204  -7.569  0.00  0.00    -0.289 N 
ATOM     10  C   UNL     1       0.113  -1.595  -8.023  0.00  0.00    +0.222 C 
ATOM     11  O   UNL     1      -0.621  -2.247  -7.310  0.00  0.00    -0.275 OA
BRANCH  10  12
ATOM     12  C   UNL     1      -0.325  -1.223  -9.416  0.00  0.00    +0.039 C 
ATOM     13  C   UNL     1      -1.782  -1.643  -9.622  0.00  0.00    +0.020 C 
ATOM     14  C   UNL     1      -0.199   0.290  -9.603  0.00  0.00    +0.020 C 
ATOM     15  C   UNL     1       0.561  -1.939 -10.437  0.00  0.00    +0.020 C 
ENDBRANCH  10  12
ENDBRANCH   2   5
BRANCH   1  18
ATOM     16  C   UNL     1       0.971  -1.079  -1.544  0.00  0.00    +0.270 C 
ATOM     17  O   UNL     1       1.990  -1.690  -1.303  0.00  0.00    -0.270 OA
ATOM     18  N   UNL     1       0.610  -0.848  -2.822  0.00  0.00    -0.231 N 
ATOM     19  H   UNL     1      -0.206  -0.360  -3.015  0.00  0.00    +0.173 HD
BRANCH  16  21
ATOM     20  C   UNL     1       0.094   0.951  -0.422  0.00  0.00    +0.062 C 
ATOM     21  C   UNL     1       0.107  -0.579  -0.415  0.00  0.00    +0.257 C 
BRANCH  21  22
ATOM     22  O   UNL     1       0.633  -1.044   0.829  0.00  0.00    -0.480 OA
BRANCH  22  23
ATOM     23  C   UNL     1      -0.235  -1.133   1.872  0.00  0.00    +0.122 A 
ATOM     24  C   UNL     1      -1.583  -0.871   1.677  0.00  0.00    +0.048 A 
ATOM     25  C   UNL     1      -2.464  -0.961   2.738  0.00  0.00    +0.042 A 
ATOM     26  C   UNL     1      -2.001  -1.311   3.995  0.00  0.00    +0.124 A 
ATOM     27  C   UNL     1      -0.656  -1.572   4.191  0.00  0.00    +0.042 A 
ATOM     28  C   UNL     1       0.226  -1.490   3.131  0.00  0.00    +0.048 A 
ATOM     29  F   UNL     1      -2.864  -1.398   5.031  0.00  0.00    -0.205 F 
ENDBRANCH  22  23
ENDBRANCH  21  22
ENDBRANCH  16  21
ENDBRANCH   1  18
TORSDOF 6
