REMARK  Name = ZINC14766839
REMARK  9 active torsions:
REMARK  status: ('A' for Active; 'I' for Inactive)
REMARK    1  A    between atoms: C_4  and  C_7
REMARK    2  A    between atoms: C_7  and  C_8
REMARK    3  A    between atoms: C_8  and  O_9
REMARK    4  A    between atoms: O_9  and  C_10
REMARK    5  A    between atoms: C_13  and  C_17
REMARK    6  A    between atoms: N_19  and  N_20
REMARK    7  A    between atoms: C_21  and  C_23
REMARK    8  A    between atoms: C_23  and  O_24
REMARK    9  A    between atoms: O_24  and  C_25
REMARK                            x       y       z     vdW  Elec       q    Type
REMARK                         _______ _______ _______ _____ _____    ______ ____
ROOT
ATOM      1  C   UNL     1       2.943   6.569   0.009  0.00  0.00    +0.260 C 
ATOM      2  O   UNL     1       4.073   6.120  -0.004  0.00  0.00    -0.269 OA
ATOM      3  N   UNL     1       1.885   5.734   0.015  0.00  0.00    -0.230 N 
ATOM      4  H   UNL     1       0.984   6.093   0.025  0.00  0.00    +0.173 HD
ENDROOT
BRANCH   1   8
ATOM      5  C   UNL     1       2.328  10.772   0.037  0.00  0.00    +0.134 A 
ATOM      6  C   UNL     1       1.237   9.911   0.043  0.00  0.00    +0.047 A 
ATOM      7  C   UNL     1       1.432   8.548   0.028  0.00  0.00    +0.017 A 
ATOM      8  C   UNL     1       2.730   8.030   0.019  0.00  0.00    +0.039 A 
ATOM      9  C   UNL     1       3.825   8.898   0.013  0.00  0.00    +0.032 A 
ATOM     10  C   UNL     1       3.621  10.261   0.022  0.00  0.00    +0.060 A 
ATOM     11 BR   UNL     1       5.102  11.437   0.014  0.00  0.00    -0.046 Br
BRANCH   5  12
ATOM     12  O   UNL     1       2.132  12.115   0.046  0.00  0.00    -0.491 OA
BRANCH  12  13
ATOM     13  C   UNL     1       0.778  12.572   0.062  0.00  0.00    +0.234 C 
BRANCH  13  14
ATOM     14  C   UNL     1       0.756  14.102   0.070  0.00  0.00    +0.076 C 
BRANCH  14  18
ATOM     15  C   UNL     1      -3.290  15.469   0.116  0.00  0.00    +0.000 A 
ATOM     16  C   UNL     1      -2.624  15.242   1.306  0.00  0.00    +0.000 A 
ATOM     17  C   UNL     1      -1.315  14.799   1.291  0.00  0.00    +0.004 A 
ATOM     18  C   UNL     1      -0.671  14.584   0.086  0.00  0.00    -0.044 A 
ATOM     19  C   UNL     1      -1.336  14.817  -1.103  0.00  0.00    +0.004 A 
ATOM     20  C   UNL     1      -2.647  15.255  -1.089  0.00  0.00    +0.000 A 
ENDBRANCH  14  18
ENDBRANCH  13  14
ENDBRANCH  12  13
ENDBRANCH   5  12
ENDBRANCH   1   8
BRANCH   3  21
ATOM     21  N   UNL     1       2.088   4.348   0.005  0.00  0.00    -0.231 N 
ATOM     22  C   UNL     1       1.030   3.512   0.011  0.00  0.00    +0.267 C 
ATOM     23  O   UNL     1      -0.097   3.961   0.024  0.00  0.00    -0.271 OA
ATOM     24  H   UNL     1       2.989   3.989  -0.005  0.00  0.00    +0.173 HD
BRANCH  22  25
ATOM     25  C   UNL     1       1.248   2.021   0.001  0.00  0.00    +0.326 C 
BRANCH  25  26
ATOM     26  O   UNL     1      -0.016   1.355   0.009  0.00  0.00    -0.481 OA
BRANCH  26  27
ATOM     27  C   UNL     1       0.002  -0.004   0.002  0.00  0.00    +0.139 A 
ATOM     28  C   UNL     1       1.212  -0.682  -0.019  0.00  0.00    +0.047 A 
ATOM     29  C   UNL     1       1.228  -2.064  -0.021  0.00  0.00    +0.004 A 
ATOM     30  C   UNL     1       0.040  -2.771  -0.013  0.00  0.00    +0.002 A 
ATOM     31  C   UNL     1      -1.168  -2.098   0.002  0.00  0.00    +0.023 A 
ATOM     32  C   UNL     1      -1.190  -0.716   0.010  0.00  0.00    +0.083 A 
ATOM     33 CL   UNL     1      -2.706   0.129   0.028  0.00  0.00    -0.080 Cl
ENDBRANCH  26  27
ENDBRANCH  25  26
ENDBRANCH  22  25
ENDBRANCH   3  21
TORSDOF 9
