REMARK  Name = ZINC55307965
REMARK  8 active torsions:
REMARK  status: ('A' for Active; 'I' for Inactive)
REMARK    1  A    between atoms: C_1  and  C_2
REMARK    2  A    between atoms: C_4  and  C_26
REMARK    3  A    between atoms: C_6  and  C_13
REMARK    4  A    between atoms: C_8  and  C_12
REMARK    5  A    between atoms: N_15  and  C_16
REMARK    6  A    between atoms: C_16  and  C_17
REMARK    7  A    between atoms: C_22  and  C_24
REMARK    8  A    between atoms: C_24  and  O_25
REMARK                            x       y       z     vdW  Elec       q    Type
REMARK                         _______ _______ _______ _____ _____    ______ ____
ROOT
ATOM      1  C   UNL     1       0.286  -4.471  -1.611  0.00  0.00    +0.245 C 
ATOM      2  O   UNL     1       0.115  -3.886  -2.664  0.00  0.00    -0.270 OA
ATOM      3  N   UNL     1       0.484  -5.803  -1.605  0.00  0.00    -0.311 N 
ATOM      4  H   UNL     1       0.621  -6.270  -0.765  0.00  0.00    +0.149 HD
ENDROOT
BRANCH   1  10
ATOM      5  C   UNL     1      -4.471  -1.317   1.695  0.00  0.00    +0.044 C 
ATOM      6  C   UNL     1      -3.210  -1.950   1.165  0.00  0.00    -0.048 A 
ATOM      7  C   UNL     1      -3.248  -2.649  -0.040  0.00  0.00    +0.007 A 
ATOM      8  C   UNL     1      -2.125  -3.231  -0.545  0.00  0.00    -0.040 A 
ATOM      9  C   UNL     1      -0.915  -3.127   0.154  0.00  0.00    +0.015 A 
ATOM     10  C   UNL     1       0.276  -3.718  -0.338  0.00  0.00    +0.048 A 
ATOM     11  C   UNL     1       1.432  -3.568   0.416  0.00  0.00    +0.036 A 
ATOM     12  C   UNL     1       1.386  -2.853   1.611  0.00  0.00    +0.040 A 
ATOM     13  N   UNL     1       0.278  -2.314   2.052  0.00  0.00    -0.252 NA
ATOM     14  C   UNL     1      -0.872  -2.417   1.379  0.00  0.00    +0.072 A 
ATOM     15  C   UNL     1      -2.051  -1.824   1.867  0.00  0.00    +0.031 A 
ATOM     16  C   UNL     1       2.648  -2.698   2.420  0.00  0.00    +0.065 C 
ATOM     17  C   UNL     1      -2.183  -3.984  -1.849  0.00  0.00    +0.044 C 
ENDBRANCH   1  10
BRANCH   3  18
ATOM     18  C   UNL     1       0.494  -6.549  -2.866  0.00  0.00    +0.106 C 
BRANCH  18  19
ATOM     19  C   UNL     1       0.738  -8.032  -2.581  0.00  0.00    -0.008 C 
ATOM     20  C   UNL     1      -0.472  -8.641  -1.840  0.00  0.00    -0.077 C 
ATOM     21  N   UNL     1      -1.306  -9.240  -2.914  0.00  0.00    +0.380 N 
ATOM     22  C   UNL     1      -0.319  -9.842  -3.848  0.00  0.00    -0.077 C 
ATOM     23  C   UNL     1       0.841  -8.822  -3.902  0.00  0.00    +0.000 C 
ATOM     24  H   UNL     1      -1.912  -9.952  -2.534  0.00  0.00    -0.086 HD
ATOM     25  H   UNL     1      -1.845  -8.527  -3.382  0.00  0.00    -0.086 HD
BRANCH  23  26
ATOM     26  C   UNL     1       2.186  -9.547  -3.983  0.00  0.00    +0.157 C 
BRANCH  26  27
ATOM     27  O   UNL     1       2.311 -10.177  -5.260  0.00  0.00    -0.395 OA
ATOM     28  H   UNL     1       3.141 -10.657  -5.382  0.00  0.00    +0.209 HD
ENDBRANCH  26  27
ENDBRANCH  23  26
ENDBRANCH  18  19
ENDBRANCH   3  18
TORSDOF 5
