REMARK  Name = ZINC39736288
REMARK  6 active torsions:
REMARK  status: ('A' for Active; 'I' for Inactive)
REMARK    1  A    between atoms: C_1  and  C_2
REMARK    2  A    between atoms: C_11  and  C_26
REMARK    3  A    between atoms: C_13  and  S_14
REMARK    4  A    between atoms: S_14  and  C_15
REMARK    5  A    between atoms: C_19  and  C_21
REMARK    6  A    between atoms: C_26  and  N_27
REMARK                            x       y       z     vdW  Elec       q    Type
REMARK                         _______ _______ _______ _____ _____    ______ ____
ROOT
ATOM      1  C   UNL     1      -0.019   1.526   0.010  0.00  0.00    +0.007 C 
ATOM      2  C   UNL     1       0.002  -0.004   0.002  0.00  0.00    -0.013 C 
ATOM      3  C   UNL     1       0.698  -0.487  -1.268  0.00  0.00    +0.004 C 
ATOM      4  C   UNL     1       2.172  -0.039  -1.287  0.00  0.00    +0.010 C 
ATOM      5  C   UNL     1       2.814  -0.506  -0.025  0.00  0.00    +0.038 C 
ATOM      6  C   UNL     1       4.249  -0.729   0.139  0.00  0.00    +0.021 A 
ATOM      7  C   UNL     1       4.656  -0.937   1.479  0.00  0.00    +0.105 A 
ATOM      8  N   UNL     1       5.905  -1.197   1.815  0.00  0.00    -0.224 NA
ATOM      9  C   UNL     1       6.806  -1.232   0.839  0.00  0.00    +0.145 A 
ATOM     10  N   UNL     1       6.496  -1.019  -0.420  0.00  0.00    -0.224 NA
ATOM     11  C   UNL     1       5.255  -0.766  -0.841  0.00  0.00    +0.112 A 
ATOM     12  S   UNL     1       3.210  -0.734   2.486  0.00  0.00    -0.101 S 
ATOM     13  C   UNL     1       2.139   0.084   1.233  0.00  0.00    +0.061 C 
ATOM     14  C   UNL     1       0.727  -0.504   1.262  0.00  0.00    +0.018 C 
ENDROOT
BRANCH  11  15
ATOM     15  S   UNL     1       4.896  -0.492  -2.545  0.00  0.00    -0.030 S 
BRANCH  15  16
ATOM     16  C   UNL     1       6.460  -0.643  -3.340  0.00  0.00    +0.191 A 
ATOM     17  N   UNL     1       6.694  -0.508  -4.664  0.00  0.00    -0.253 N 
ATOM     18  H   UNL     1       6.038  -0.310  -5.351  0.00  0.00    +0.191 HD
ATOM     19  N   UNL     1       8.071  -0.707  -4.849  0.00  0.00    -0.151 NA
ATOM     20  C   UNL     1       8.586  -0.947  -3.663  0.00  0.00    +0.189 A 
ATOM     21  N   UNL     1       7.605  -0.902  -2.748  0.00  0.00    -0.200 NA
BRANCH  20  22
ATOM     22  C   UNL     1      10.012  -1.217  -3.382  0.00  0.00    +0.058 A 
ATOM     23  C   UNL     1      11.068  -1.269  -4.252  0.00  0.00    +0.019 A 
ATOM     24  C   UNL     1      12.324  -1.541  -3.755  0.00  0.00    +0.008 A 
ATOM     25  C   UNL     1      12.477  -1.748  -2.422  0.00  0.00    +0.046 A 
ATOM     26  S   UNL     1      10.808  -1.551  -1.819  0.00  0.00    -0.093 S 
ENDBRANCH  20  22
ENDBRANCH  15  16
ENDBRANCH  11  15
BRANCH   9  27
ATOM     27  C   UNL     1       8.241  -1.526   1.191  0.00  0.00    +0.160 C 
BRANCH  27  28
ATOM     28  N   UNL     1       8.472  -2.976   1.135  0.00  0.00    -0.291 NA
ATOM     29  C   UNL     1       7.712  -3.671   2.185  0.00  0.00    +0.113 C 
ATOM     30  C   UNL     1       7.934  -5.180   2.053  0.00  0.00    +0.175 C 
ATOM     31  O   UNL     1       9.335  -5.459   2.123  0.00  0.00    -0.377 OA
ATOM     32  C   UNL     1      10.105  -4.799   1.115  0.00  0.00    +0.175 C 
ATOM     33  C   UNL     1       9.905  -3.286   1.238  0.00  0.00    +0.113 C 
ENDBRANCH  27  28
ENDBRANCH   9  27
TORSDOF 5
