REMARK  Name = ZINC14356459
REMARK  9 active torsions:
REMARK  status: ('A' for Active; 'I' for Inactive)
REMARK    1  A    between atoms: C_3  and  N_14
REMARK    2  A    between atoms: C_4  and  C_10
REMARK    3  A    between atoms: C_6  and  N_7
REMARK    4  A    between atoms: C_15  and  C_17
REMARK    5  A    between atoms: C_17  and  O_18
REMARK    6  A    between atoms: O_18  and  C_19
REMARK    7  A    between atoms: C_19  and  C_21
REMARK    8  A    between atoms: C_21  and  N_22
REMARK    9  A    between atoms: C_23  and  C_25
REMARK                            x       y       z     vdW  Elec       q    Type
REMARK                         _______ _______ _______ _____ _____    ______ ____
ROOT
ATOM      1  N   UNL     1      -1.191   1.867   0.018  0.00  0.00    -0.282 N 
ATOM      2  C   UNL     1      -0.014   1.209   0.005  0.00  0.00    +0.255 C 
ATOM      3  O   UNL     1       0.003  -0.004   0.005  0.00  0.00    -0.272 OA
ATOM      4  H   UNL     1      -1.205   2.833   0.099  0.00  0.00    +0.155 HD
ENDROOT
BRANCH   1   7
ATOM      5  C   UNL     1      -3.597  -0.791  -0.799  0.00  0.00    +0.034 A 
ATOM      6  C   UNL     1      -2.411  -0.091  -0.699  0.00  0.00    +0.026 A 
ATOM      7  C   UNL     1      -2.391   1.155  -0.086  0.00  0.00    +0.045 A 
ATOM      8  C   UNL     1      -3.564   1.691   0.429  0.00  0.00    +0.078 A 
ATOM      9  C   UNL     1      -4.748   0.989   0.321  0.00  0.00    +0.047 A 
ATOM     10  C   UNL     1      -4.764  -0.252  -0.290  0.00  0.00    +0.127 A 
BRANCH   8  11
ATOM     11  C   UNL     1      -3.547   3.041   1.099  0.00  0.00    +0.419 C 
ATOM     12  F   UNL     1      -4.837   3.363   1.532  0.00  0.00    -0.166 F 
ATOM     13  F   UNL     1      -2.682   3.004   2.199  0.00  0.00    -0.166 F 
ATOM     14  F   UNL     1      -3.104   4.008   0.190  0.00  0.00    -0.166 F 
ENDBRANCH   8  11
BRANCH  10  15
ATOM     15  N   UNL     1      -6.034  -1.005  -0.400  0.00  0.00    +0.056 N 
ATOM     16  O   UNL     1      -6.050  -2.098  -0.937  0.00  0.00    -0.126 OA
ATOM     17  O   UNL     1      -7.063  -0.531   0.048  0.00  0.00    -0.126 OA
ENDBRANCH  10  15
ENDBRANCH   1   7
BRANCH   2  18
ATOM     18  C   UNL     1       1.280   1.980  -0.015  0.00  0.00    +0.328 C 
BRANCH  18  19
ATOM     19  O   UNL     1       2.397   1.052  -0.032  0.00  0.00    -0.454 OA
BRANCH  19  20
ATOM     20  C   UNL     1       3.630   1.582  -0.051  0.00  0.00    +0.325 C 
ATOM     21  O   UNL     1       3.771   2.782  -0.053  0.00  0.00    -0.249 OA
BRANCH  20  22
ATOM     22  C   UNL     1       4.837   0.681  -0.070  0.00  0.00    +0.225 C 
BRANCH  22  23
ATOM     23  N   UNL     1       6.054   1.496  -0.089  0.00  0.00    -0.298 N 
ATOM     24  C   UNL     1       7.264   0.901  -0.107  0.00  0.00    +0.280 C 
ATOM     25  O   UNL     1       7.344  -0.314  -0.108  0.00  0.00    -0.267 OA
ATOM     26  H   UNL     1       5.990   2.464  -0.088  0.00  0.00    +0.150 HD
BRANCH  24  27
ATOM     27  C   UNL     1       8.481   1.716  -0.126  0.00  0.00    +0.191 A 
ATOM     28  C   UNL     1       9.763   1.244  -0.146  0.00  0.00    +0.056 A 
ATOM     29  C   UNL     1      10.606   2.364  -0.159  0.00  0.00    +0.058 A 
ATOM     30  C   UNL     1       9.812   3.460  -0.147  0.00  0.00    +0.171 A 
ATOM     31  O   UNL     1       8.533   3.064  -0.133  0.00  0.00    -0.444 OA
ATOM     32 BR   UNL     1      10.411   5.254  -0.157  0.00  0.00    -0.008 Br
ENDBRANCH  24  27
ENDBRANCH  22  23
ENDBRANCH  20  22
ENDBRANCH  19  20
ENDBRANCH  18  19
ENDBRANCH   2  18
TORSDOF 9
