REMARK  Name = ZINC36546532
REMARK  16 active torsions:
REMARK  status: ('A' for Active; 'I' for Inactive)
REMARK    1  A    between atoms: C_1  and  C_2
REMARK    2  A    between atoms: C_2  and  C_3
REMARK    3  A    between atoms: C_2  and  C_4
REMARK    4  A    between atoms: C_2  and  C_5
REMARK    5  A    between atoms: C_5  and  C_6
REMARK    6  A    between atoms: C_6  and  C_7
REMARK    7  A    between atoms: C_6  and  C_8
REMARK    8  A    between atoms: C_6  and  N_9
REMARK    9  A    between atoms: C_10  and  C_12
REMARK   10  A    between atoms: C_12  and  C_14
REMARK   11  A    between atoms: C_12  and  N_23
REMARK   12  A    between atoms: C_15  and  O_22
REMARK   13  A    between atoms: C_17  and  O_21
REMARK   14  A    between atoms: C_19  and  O_20
REMARK   15  A    between atoms: N_23  and  C_24
REMARK   16  A    between atoms: C_31  and  C_33
REMARK                            x       y       z     vdW  Elec       q    Type
REMARK                         _______ _______ _______ _____ _____    ______ ____
ROOT
ATOM      1  C   UNL     1       5.252  -0.437  -4.212  0.00  0.00    +0.204 C 
ENDROOT
BRANCH   1   2
ATOM      2  C   UNL     1       5.092  -1.909  -4.493  0.00  0.00    +0.065 A 
ATOM      3  C   UNL     1       5.749  -2.841  -3.704  0.00  0.00    +0.129 A 
ATOM      4  C   UNL     1       5.602  -4.195  -3.962  0.00  0.00    +0.091 A 
ATOM      5  C   UNL     1       4.798  -4.617  -5.010  0.00  0.00    +0.124 A 
ATOM      6  C   UNL     1       4.140  -3.685  -5.799  0.00  0.00    +0.091 A 
ATOM      7  C   UNL     1       4.284  -2.331  -5.537  0.00  0.00    +0.129 A 
BRANCH   7   8
ATOM      8  O   UNL     1       3.636  -1.418  -6.307  0.00  0.00    -0.506 OA
ATOM      9  H   UNL     1       4.140  -1.124  -7.078  0.00  0.00    +0.292 HD
ENDBRANCH   7   8
BRANCH   5  10
ATOM     10  O   UNL     1       4.655  -5.945  -5.264  0.00  0.00    -0.507 OA
ATOM     11  H   UNL     1       3.919  -6.358  -4.793  0.00  0.00    +0.292 HD
ENDBRANCH   5  10
BRANCH   3  12
ATOM     12  O   UNL     1       6.537  -2.426  -2.677  0.00  0.00    -0.506 OA
ATOM     13  H   UNL     1       6.071  -2.335  -1.835  0.00  0.00    +0.292 HD
ENDBRANCH   3  12
ENDBRANCH   1   2
BRANCH   1  15
ATOM     14  N   UNL     1       3.413  -0.393  -2.558  0.00  0.00    -0.308 N 
ATOM     15  C   UNL     1       4.702  -0.124  -2.844  0.00  0.00    +0.239 C 
ATOM     16  O   UNL     1       5.420   0.369  -2.000  0.00  0.00    -0.273 OA
ATOM     17  H   UNL     1       2.839  -0.787  -3.233  0.00  0.00    +0.149 HD
BRANCH  14  18
ATOM     18  C   UNL     1       2.879  -0.089  -1.228  0.00  0.00    +0.030 C 
ATOM     19  C   UNL     1       3.183   1.369  -0.877  0.00  0.00    +0.031 C 
ATOM     20  C   UNL     1       3.531  -1.009  -0.194  0.00  0.00    +0.031 C 
BRANCH  18  21
ATOM     21  C   UNL     1       1.365  -0.309  -1.224  0.00  0.00    +0.031 C 
BRANCH  21  23
ATOM     22  C   UNL     1       0.930  -0.719  -3.650  0.00  0.00    +0.010 C 
ATOM     23  C   UNL     1       0.760   0.277  -2.502  0.00  0.00    -0.036 C 
ATOM     24  C   UNL     1       1.475   1.584  -2.851  0.00  0.00    +0.010 C 
ATOM     25  C   UNL     1      -0.728   0.553  -2.282  0.00  0.00    +0.010 C 
ENDBRANCH  21  23
ENDBRANCH  18  21
ENDBRANCH  14  18
ENDBRANCH   1  15
BRANCH   1  26
ATOM     26  N   UNL     1       6.673  -0.082  -4.260  0.00  0.00    -0.250 N 
ATOM     27  C   UNL     1       7.052   1.202  -4.100  0.00  0.00    +0.252 C 
ATOM     28  O   UNL     1       6.213   2.072  -3.972  0.00  0.00    -0.270 OA
BRANCH  26  29
ATOM     29  C   UNL     1       7.635  -1.075  -4.471  0.00  0.00    +0.056 A 
ATOM     30  C   UNL     1       7.736  -1.693  -5.711  0.00  0.00    +0.025 A 
ATOM     31  C   UNL     1       8.687  -2.673  -5.917  0.00  0.00    +0.002 A 
ATOM     32  C   UNL     1       9.539  -3.039  -4.890  0.00  0.00    +0.002 A 
ATOM     33  C   UNL     1       9.442  -2.426  -3.655  0.00  0.00    +0.022 A 
ATOM     34  C   UNL     1       8.496  -1.440  -3.444  0.00  0.00    +0.062 A 
ATOM     35 CL   UNL     1       8.380  -0.665  -1.895  0.00  0.00    -0.082 Cl
ENDBRANCH  26  29
BRANCH  27  36
ATOM     36  C   UNL     1       8.488   1.551  -4.081  0.00  0.00    +0.037 A 
ATOM     37  C   UNL     1       9.383   0.882  -4.918  0.00  0.00    +0.013 A 
ATOM     38  C   UNL     1      10.723   1.213  -4.895  0.00  0.00    +0.001 A 
ATOM     39  C   UNL     1      11.179   2.205  -4.046  0.00  0.00    +0.000 A 
ATOM     40  C   UNL     1      10.297   2.871  -3.213  0.00  0.00    +0.001 A 
ATOM     41  C   UNL     1       8.955   2.555  -3.231  0.00  0.00    +0.013 A 
ENDBRANCH  27  36
ENDBRANCH   1  26
TORSDOF 11
