REMARK  Name = ZINC39630508
REMARK  11 active torsions:
REMARK  status: ('A' for Active; 'I' for Inactive)
REMARK    1  A    between atoms: C_1  and  C_2
REMARK    2  A    between atoms: C_7  and  N_12
REMARK    3  A    between atoms: C_9  and  C_11
REMARK    4  A    between atoms: C_16  and  C_18
REMARK    5  A    between atoms: C_18  and  S_19
REMARK    6  A    between atoms: S_19  and  C_20
REMARK    7  A    between atoms: N_30  and  C_31
REMARK    8  A    between atoms: C_31  and  C_33
REMARK    9  A    between atoms: C_31  and  C_36
REMARK   10  A    between atoms: C_33  and  C_34
REMARK   11  A    between atoms: C_33  and  C_35
REMARK                            x       y       z     vdW  Elec       q    Type
REMARK                         _______ _______ _______ _____ _____    ______ ____
ROOT
ATOM      1  S   UNL     1       4.694  -7.552   4.375  0.00  0.00    -0.078 S 
ENDROOT
BRANCH   1   2
ATOM      2  C   UNL     1       5.505  -7.990   5.876  0.00  0.00    +0.173 A 
ATOM      3  N   UNL     1       5.481  -7.138   6.871  0.00  0.00    -0.223 NA
ATOM      4  C   UNL     1       6.080  -7.409   8.048  0.00  0.00    +0.079 A 
ATOM      5  C   UNL     1       6.053  -6.500   9.110  0.00  0.00    +0.028 A 
ATOM      6  C   UNL     1       6.674  -6.815  10.286  0.00  0.00    +0.002 A 
ATOM      7  C   UNL     1       7.334  -8.027  10.443  0.00  0.00    +0.001 A 
ATOM      8  C   UNL     1       7.377  -8.937   9.423  0.00  0.00    +0.015 A 
ATOM      9  C   UNL     1       6.752  -8.642   8.212  0.00  0.00    +0.065 A 
ATOM     10  C   UNL     1       6.766  -9.580   7.082  0.00  0.00    +0.263 A 
ATOM     11  O   UNL     1       7.327 -10.657   7.163  0.00  0.00    -0.267 OA
ATOM     12  N   UNL     1       6.126  -9.205   5.950  0.00  0.00    -0.273 N 
BRANCH  12  13
ATOM     13  C   UNL     1       6.103 -10.105   4.795  0.00  0.00    +0.208 C 
BRANCH  13  14
ATOM     14  C   UNL     1       7.536 -10.390   4.342  0.00  0.00    +0.017 C 
ATOM     15  C   UNL     1       7.513 -11.330   3.135  0.00  0.00    +0.010 C 
ATOM     16  C   UNL     1       8.218  -9.076   3.952  0.00  0.00    +0.010 C 
ENDBRANCH  13  14
BRANCH  13  17
ATOM     17  C   UNL     1       5.431 -11.399   5.179  0.00  0.00    +0.379 C 
ATOM     18  O   UNL     1       5.011 -11.554   6.313  0.00  0.00    -0.244 OA
ATOM     19  O   UNL     1       5.309 -12.290   4.356  0.00  0.00    -0.244 OA
ENDBRANCH  13  17
ENDBRANCH  12  13
ENDBRANCH   1   2
BRANCH   1  20
ATOM     20  C   UNL     1       4.022  -5.900   4.705  0.00  0.00    +0.173 C 
BRANCH  20  25
ATOM     21  N   UNL     1       1.471  -2.526   2.420  0.00  0.00    -0.296 N 
ATOM     22  C   UNL     1       2.056  -3.740   2.406  0.00  0.00    +0.306 C 
ATOM     23  O   UNL     1       1.996  -4.432   1.409  0.00  0.00    -0.252 OA
ATOM     24  N   UNL     1       2.708  -4.187   3.498  0.00  0.00    -0.239 N 
ATOM     25  C   UNL     1       3.293  -5.401   3.484  0.00  0.00    +0.231 C 
ATOM     26  O   UNL     1       3.233  -6.091   2.489  0.00  0.00    -0.274 OA
ATOM     27  H   UNL     1       1.520  -1.974   3.216  0.00  0.00    +0.151 HD
ATOM     28  H   UNL     1       2.756  -3.634   4.294  0.00  0.00    +0.159 HD
BRANCH  21  34
ATOM     29  C   UNL     1      -0.019   1.526   0.010  0.00  0.00    +0.008 C 
ATOM     30  C   UNL     1       0.002  -0.004   0.002  0.00  0.00    -0.009 C 
ATOM     31  C   UNL     1      -1.433  -0.534   0.013  0.00  0.00    +0.003 C 
ATOM     32  C   UNL     1      -1.413  -2.063   0.004  0.00  0.00    +0.002 C 
ATOM     33  C   UNL     1      -0.673  -2.570   1.244  0.00  0.00    +0.022 C 
ATOM     34  C   UNL     1       0.763  -2.041   1.233  0.00  0.00    +0.078 C 
ATOM     35  C   UNL     1       0.742  -0.511   1.242  0.00  0.00    +0.009 C 
ATOM     36  C   UNL     1       0.026  -0.018   2.500  0.00  0.00    +0.009 C 
ENDBRANCH  21  34
ENDBRANCH  20  25
ENDBRANCH   1  20
TORSDOF 7
