REMARK  Name = ZINC09915823
REMARK  21 active torsions:
REMARK  status: ('A' for Active; 'I' for Inactive)
REMARK    1  A    between atoms: C_1  and  C_2
REMARK    2  A    between atoms: C_2  and  O_4
REMARK    3  A    between atoms: O_4  and  C_5
REMARK    4  A    between atoms: C_5  and  C_6
REMARK    5  A    between atoms: C_6  and  C_32
REMARK    6  A    between atoms: C_7  and  C_27
REMARK    7  A    between atoms: C_7  and  O_28
REMARK    8  A    between atoms: C_8  and  C_22
REMARK    9  A    between atoms: C_8  and  O_23
REMARK   10  A    between atoms: C_9  and  C_17
REMARK   11  A    between atoms: C_9  and  O_18
REMARK   12  A    between atoms: C_10  and  C_12
REMARK   13  A    between atoms: C_10  and  O_13
REMARK   14  A    between atoms: O_13  and  C_14
REMARK   15  A    between atoms: C_14  and  C_16
REMARK   16  A    between atoms: O_18  and  C_19
REMARK   17  A    between atoms: C_19  and  C_21
REMARK   18  A    between atoms: O_23  and  C_24
REMARK   19  A    between atoms: C_24  and  C_26
REMARK   20  A    between atoms: O_28  and  C_29
REMARK   21  A    between atoms: C_29  and  C_31
REMARK                            x       y       z     vdW  Elec       q    Type
REMARK                         _______ _______ _______ _____ _____    ______ ____
ROOT
ATOM      1  C   UNL     1      -0.130   0.699   0.245  0.00  0.00    +0.148 C 
ATOM      2  C   UNL     1       1.190   1.455   0.312  0.00  0.00    +0.185 C 
ATOM      3  C   UNL     1       2.174   1.090  -0.787  0.00  0.00    +0.198 C 
ATOM      4  C   UNL     1       2.255  -0.405  -1.049  0.00  0.00    +0.218 C 
ATOM      5  C   UNL     1       0.898  -1.096  -1.099  0.00  0.00    +0.257 C 
ATOM      6  O   UNL     1       0.026  -0.662  -0.082  0.00  0.00    -0.322 OA
ATOM      7  C   UNL     1       0.270  -0.972  -2.489  0.00  0.00    +0.094 C 
ATOM      8  C   UNL     1       2.975  -0.637  -2.389  0.00  0.00    +0.067 C 
ATOM      9  C   UNL     1       1.873   1.862  -2.074  0.00  0.00    +0.064 C 
ATOM     10  C   UNL     1       0.897   2.964   0.236  0.00  0.00    +0.063 C 
ATOM     11  C   UNL     1      -1.105   1.401  -0.704  0.00  0.00    +0.049 C 
ENDROOT
BRANCH   1  12
ATOM     12  C   UNL     1      -0.764   0.764   1.658  0.00  0.00    +0.271 C 
BRANCH  12  13
ATOM     13  O   UNL     1      -1.822  -0.225   1.759  0.00  0.00    -0.462 OA
BRANCH  13  15
ATOM     14  C   UNL     1      -3.588  -1.301   3.108  0.00  0.00    +0.136 C 
ATOM     15  C   UNL     1      -2.477  -0.299   2.929  0.00  0.00    +0.304 C 
ATOM     16  O   UNL     1      -2.176   0.438   3.837  0.00  0.00    -0.251 OA
ENDBRANCH  13  15
ENDBRANCH  12  13
ENDBRANCH   1  12
BRANCH   5  17
ATOM     17  O   UNL     1       1.143  -2.532  -0.878  0.00  0.00    -0.428 OA
BRANCH  17  18
ATOM     18  C   UNL     1       0.074  -3.344  -0.906  0.00  0.00    +0.306 C 
ATOM     19  O   UNL     1      -1.027  -2.886  -1.105  0.00  0.00    -0.251 OA
ATOM     20  C   UNL     1       0.246  -4.825  -0.688  0.00  0.00    +0.136 C 
ENDBRANCH  17  18
ENDBRANCH   5  17
BRANCH   4  21
ATOM     21  O   UNL     1       3.058  -1.027   0.001  0.00  0.00    -0.448 OA
BRANCH  21  22
ATOM     22  C   UNL     1       3.432  -2.302  -0.193  0.00  0.00    +0.305 C 
ATOM     23  O   UNL     1       3.203  -2.845  -1.247  0.00  0.00    -0.251 OA
ATOM     24  C   UNL     1       4.139  -3.054   0.904  0.00  0.00    +0.136 C 
ENDBRANCH  21  22
ENDBRANCH   4  21
BRANCH   3  25
ATOM     25  O   UNL     1       3.508   1.525  -0.339  0.00  0.00    -0.450 OA
BRANCH  25  26
ATOM     26  C   UNL     1       3.965   1.002   0.810  0.00  0.00    +0.305 C 
ATOM     27  O   UNL     1       3.325   0.155   1.385  0.00  0.00    -0.251 OA
ATOM     28  C   UNL     1       5.278   1.472   1.381  0.00  0.00    +0.136 C 
ENDBRANCH  25  26
ENDBRANCH   3  25
BRANCH   2  29
ATOM     29  O   UNL     1       1.812   1.190   1.608  0.00  0.00    -0.451 OA
BRANCH  29  30
ATOM     30  C   UNL     1       1.328   1.861   2.665  0.00  0.00    +0.305 C 
ATOM     31  O   UNL     1       0.420   2.645   2.519  0.00  0.00    -0.251 OA
ATOM     32  C   UNL     1       1.917   1.637   4.034  0.00  0.00    +0.136 C 
ENDBRANCH  29  30
ENDBRANCH   2  29
TORSDOF 11
