REMARK  Name = ZINC67052915
REMARK  7 active torsions:
REMARK  status: ('A' for Active; 'I' for Inactive)
REMARK    1  A    between atoms: C_1  and  C_2
REMARK    2  A    between atoms: N_4  and  C_5
REMARK    3  A    between atoms: C_5  and  C_6
REMARK    4  A    between atoms: C_9  and  C_11
REMARK    5  A    between atoms: N_13  and  C_14
REMARK    6  A    between atoms: C_14  and  C_16
REMARK    7  A    between atoms: C_14  and  C_21
REMARK                            x       y       z     vdW  Elec       q    Type
REMARK                         _______ _______ _______ _____ _____    ______ ____
ROOT
ATOM      1  C   UNL     1      -6.462  -3.775   1.010  0.00  0.00    +0.251 C 
ATOM      2  O   UNL     1      -7.408  -4.105   0.318  0.00  0.00    -0.270 OA
ATOM      3  N   UNL     1      -6.500  -3.973   2.342  0.00  0.00    -0.303 N 
ATOM      4  H   UNL     1      -5.747  -3.710   2.894  0.00  0.00    +0.150 HD
ENDROOT
BRANCH   1   8
ATOM      5  C   UNL     1      -2.969  -2.045  -0.201  0.00  0.00    +0.008 A 
ATOM      6  C   UNL     1      -3.829  -2.292  -1.219  0.00  0.00    +0.013 A 
ATOM      7  C   UNL     1      -5.043  -2.874  -0.942  0.00  0.00    +0.021 A 
ATOM      8  C   UNL     1      -5.282  -3.162   0.394  0.00  0.00    +0.074 A 
ATOM      9  S   UNL     1      -3.776  -2.599   1.164  0.00  0.00    -0.087 S 
BRANCH   5  10
ATOM     10  C   UNL     1      -1.599  -1.421  -0.277  0.00  0.00    +0.146 C 
BRANCH  10  14
ATOM     11  C   UNL     1      -0.729   2.297  -0.004  0.00  0.00    +0.109 C 
ATOM     12  C   UNL     1      -0.610   0.803  -0.161  0.00  0.00    +0.210 C 
ATOM     13  O   UNL     1       0.480   0.294  -0.319  0.00  0.00    -0.276 OA
ATOM     14  N   UNL     1      -1.715   0.031  -0.125  0.00  0.00    -0.311 N 
ATOM     15  H   UNL     1      -2.586   0.438   0.001  0.00  0.00    +0.149 HD
ENDBRANCH  10  14
ENDBRANCH   5  10
ENDBRANCH   1   8
BRANCH   3  16
ATOM     16  C   UNL     1      -7.680  -4.585   2.958  0.00  0.00    +0.113 C 
BRANCH  16  17
ATOM     17  C   UNL     1      -7.539  -6.085   2.932  0.00  0.00    +0.010 A 
ATOM     18  C   UNL     1      -8.479  -7.027   2.673  0.00  0.00    +0.013 A 
ATOM     19  C   UNL     1      -8.119  -8.361   2.704  0.00  0.00    +0.008 A 
ATOM     20  C   UNL     1      -6.835  -8.688   2.993  0.00  0.00    +0.045 A 
ATOM     21  S   UNL     1      -6.088  -7.084   3.226  0.00  0.00    -0.100 S 
ENDBRANCH  16  17
BRANCH  16  22
ATOM     22  C   UNL     1      -7.803  -4.110   4.408  0.00  0.00    +0.014 C 
ATOM     23  C   UNL     1      -8.023  -2.578   4.459  0.00  0.00    +0.006 C 
ATOM     24  C   UNL     1      -8.710  -2.377   5.832  0.00  0.00    +0.000 C 
ATOM     25  C   UNL     1      -9.648  -3.594   5.968  0.00  0.00    +0.000 C 
ATOM     26  C   UNL     1      -9.071  -4.696   5.062  0.00  0.00    +0.006 C 
ENDBRANCH  16  22
ENDBRANCH   3  16
TORSDOF 6
