REMARK  Name = ZINC12315830
REMARK  9 active torsions:
REMARK  status: ('A' for Active; 'I' for Inactive)
REMARK    1  A    between atoms: C_1  and  N_2
REMARK    2  A    between atoms: N_2  and  C_3
REMARK    3  A    between atoms: N_2  and  S_4
REMARK    4  A    between atoms: S_4  and  N_7
REMARK    5  A    between atoms: C_10  and  O_13
REMARK    6  A    between atoms: O_13  and  C_14
REMARK    7  A    between atoms: C_17  and  C_20
REMARK    8  A    between atoms: C_26  and  O_29
REMARK    9  A    between atoms: O_29  and  C_30
REMARK                            x       y       z     vdW  Elec       q    Type
REMARK                         _______ _______ _______ _____ _____    ______ ____
ROOT
ATOM      1  C   UNL     1       5.500  -3.230  -4.414  0.00  0.00    +0.121 A 
ATOM      2  C   UNL     1       6.173  -3.081  -3.207  0.00  0.00    +0.046 A 
ATOM      3  C   UNL     1       7.362  -3.742  -2.993  0.00  0.00    +0.016 A 
ATOM      4  C   UNL     1       7.891  -4.565  -3.991  0.00  0.00    +0.037 A 
ATOM      5  C   UNL     1       7.211  -4.713  -5.202  0.00  0.00    +0.016 A 
ATOM      6  C   UNL     1       6.021  -4.052  -5.407  0.00  0.00    +0.046 A 
ENDROOT
BRANCH   4   7
ATOM      7  C   UNL     1       9.165  -5.275  -3.766  0.00  0.00    +0.247 C 
ATOM      8  O   UNL     1       9.356  -5.864  -2.720  0.00  0.00    -0.270 OA
ATOM      9  N   UNL     1      10.117  -5.270  -4.720  0.00  0.00    -0.295 N 
ATOM     10  C   UNL     1      11.424  -5.896  -4.477  0.00  0.00    +0.108 C 
ATOM     11  C   UNL     1      12.524  -4.873  -4.776  0.00  0.00    +0.021 C 
ATOM     12  C   UNL     1      12.340  -4.332  -6.196  0.00  0.00    +0.035 C 
ATOM     13  C   UNL     1      10.985  -3.631  -6.305  0.00  0.00    +0.135 C 
ATOM     14  C   UNL     1       9.865  -4.645  -6.025  0.00  0.00    +0.139 C 
BRANCH  13  15
ATOM     15  O   UNL     1      10.828  -3.099  -7.622  0.00  0.00    -0.378 OA
ATOM     16  C   UNL     1      10.020  -1.922  -7.682  0.00  0.00    +0.194 C 
ENDBRANCH  13  15
ENDBRANCH   4   7
BRANCH   1  17
ATOM     17  O   UNL     1       4.329  -2.577  -4.621  0.00  0.00    -0.489 OA
BRANCH  17  21
ATOM     18  N   UNL     1       1.861  -2.264  -7.953  0.00  0.00    -0.166 NA
ATOM     19  C   UNL     1       1.367  -3.121  -6.867  0.00  0.00    +0.114 C 
ATOM     20  C   UNL     1       2.119  -2.769  -5.580  0.00  0.00    +0.061 C 
ATOM     21  C   UNL     1       3.625  -2.874  -5.829  0.00  0.00    +0.176 C 
ATOM     22  C   UNL     1       4.035  -1.878  -6.916  0.00  0.00    +0.061 C 
ATOM     23  C   UNL     1       3.304  -2.225  -8.222  0.00  0.00    +0.114 C 
BRANCH  18  24
ATOM     24  S   UNL     1       0.809  -1.363  -8.862  0.00  0.00    +0.099 S 
ATOM     25  O   UNL     1       1.559  -0.284  -9.401  0.00  0.00    -0.141 OA
ATOM     26  O   UNL     1      -0.349  -1.162  -8.063  0.00  0.00    -0.141 OA
BRANCH  24  28
ATOM     27  C   UNL     1      -0.837  -3.164 -10.029  0.00  0.00    +0.132 C 
ATOM     28  N   UNL     1       0.342  -2.302 -10.144  0.00  0.00    -0.172 NA
ATOM     29  C   UNL     1       1.107  -2.269 -11.393  0.00  0.00    +0.132 C 
ENDBRANCH  24  28
ENDBRANCH  18  24
ENDBRANCH  17  21
ENDBRANCH   1  17
TORSDOF 6
