REMARK  Name = ZINC17046408
REMARK  6 active torsions:
REMARK  status: ('A' for Active; 'I' for Inactive)
REMARK    1  A    between atoms: C_1  and  C_2
REMARK    2  A    between atoms: C_5  and  C_8
REMARK    3  A    between atoms: C_17  and  C_20
REMARK    4  A    between atoms: N_21  and  N_22
REMARK    5  A    between atoms: N_22  and  C_23
REMARK    6  A    between atoms: C_23  and  N_25
REMARK                            x       y       z     vdW  Elec       q    Type
REMARK                         _______ _______ _______ _____ _____    ______ ____
ROOT
ATOM      1  C   UNL     1      -0.322  -5.313  -0.025  0.00  0.00    +0.264 C 
ATOM      2  O   UNL     1      -0.605  -5.859   1.023  0.00  0.00    -0.267 OA
ATOM      3  N   UNL     1       0.493  -4.239  -0.026  0.00  0.00    -0.266 N 
ATOM      4  C   UNL     1       1.877  -4.293  -0.042  0.00  0.00    +0.059 A 
ATOM      5  C   UNL     1       2.786  -5.343  -0.059  0.00  0.00    +0.027 A 
ATOM      6  C   UNL     1       4.140  -5.081  -0.086  0.00  0.00    +0.002 A 
ATOM      7  C   UNL     1       4.606  -3.775  -0.084  0.00  0.00    +0.001 A 
ATOM      8  C   UNL     1       3.719  -2.720  -0.063  0.00  0.00    +0.011 A 
ATOM      9  C   UNL     1       2.349  -2.971  -0.043  0.00  0.00    +0.010 A 
ATOM     10  C   UNL     1       1.153  -2.108  -0.019  0.00  0.00    +0.039 A 
ATOM     11  C   UNL     1       0.073  -2.936  -0.013  0.00  0.00    +0.126 A 
ATOM     12 CL   UNL     1      -1.583  -2.418   0.008  0.00  0.00    -0.063 Cl
ENDROOT
BRANCH   1  17
ATOM     13  C   UNL     1      -2.457  -7.312  -4.979  0.00  0.00    +0.044 C 
ATOM     14  C   UNL     1      -1.897  -6.788  -3.682  0.00  0.00    -0.050 A 
ATOM     15  C   UNL     1      -2.304  -7.345  -2.482  0.00  0.00    +0.004 A 
ATOM     16  C   UNL     1      -1.796  -6.871  -1.290  0.00  0.00    +0.013 A 
ATOM     17  C   UNL     1      -0.870  -5.826  -1.297  0.00  0.00    +0.040 A 
ATOM     18  C   UNL     1      -0.468  -5.265  -2.511  0.00  0.00    +0.013 A 
ATOM     19  C   UNL     1      -0.980  -5.753  -3.695  0.00  0.00    +0.004 A 
ENDBRANCH   1  17
BRANCH  10  20
ATOM     20  C   UNL     1       1.132  -0.637  -0.009  0.00  0.00    +0.141 C 
ATOM     21  N   UNL     1      -0.003  -0.004   0.007  0.00  0.00    -0.188 NA
BRANCH  21  22
ATOM     22  N   UNL     1      -0.023   1.397   0.017  0.00  0.00    -0.219 N 
ATOM     23  H   UNL     1       0.810   1.894   0.011  0.00  0.00    +0.176 HD
BRANCH  22  24
ATOM     24  C   UNL     1      -1.200   2.054   0.028  0.00  0.00    +0.147 C 
ATOM     25  S   UNL     1      -1.224   3.766   0.039  0.00  0.00    -0.017 S 
BRANCH  24  26
ATOM     26  N   UNL     1      -2.357   1.363   0.030  0.00  0.00    -0.339 N 
ATOM     27  H   UNL     1      -2.343   0.393   0.024  0.00  0.00    +0.144 HD
ATOM     28  H   UNL     1      -3.204   1.836   0.039  0.00  0.00    +0.144 HD
ENDBRANCH  24  26
ENDBRANCH  22  24
ENDBRANCH  21  22
ENDBRANCH  10  20
TORSDOF 5
