REMARK  Name = ZINC04328363
REMARK  3 active torsions:
REMARK  status: ('A' for Active; 'I' for Inactive)
REMARK    1  A    between atoms: C_4  and  C_7
REMARK    2  A    between atoms: C_9  and  C_25
REMARK    3  A    between atoms: C_12  and  C_18
REMARK                            x       y       z     vdW  Elec       q    Type
REMARK                         _______ _______ _______ _____ _____    ______ ____
ROOT
ATOM      1  C   UNL     1      -2.812   4.602  -3.462  0.00  0.00    +0.113 C 
ATOM      2  C   UNL     1      -2.006   3.705  -2.566  0.00  0.00    +0.160 C 
ATOM      3  C   UNL     1      -1.063   4.223  -1.546  0.00  0.00    +0.094 C 
ATOM      4  C   UNL     1      -1.970   2.258  -0.771  0.00  0.00    +0.278 C 
ATOM      5  C   UNL     1      -3.003   2.857  -1.710  0.00  0.00    +0.181 C 
ATOM      6  C   UNL     1      -3.691   1.982  -2.702  0.00  0.00    -0.025 C 
ATOM      7  C   UNL     1      -3.925   2.433  -3.939  0.00  0.00    -0.011 C 
ATOM      8  C   UNL     1      -4.652   1.389  -4.747  0.00  0.00    +0.049 C 
ATOM      9  C   UNL     1      -5.197   0.381  -3.709  0.00  0.00    +0.010 C 
ATOM     10  C   UNL     1      -4.217   0.585  -2.530  0.00  0.00    +0.034 C 
ATOM     11  O   UNL     1      -1.299   1.134  -1.346  0.00  0.00    -0.328 OA
ATOM     12  C   UNL     1      -0.734   0.432  -0.216  0.00  0.00    +0.193 C 
ATOM     13  C   UNL     1      -1.571   0.883   0.998  0.00  0.00    +0.193 C 
ATOM     14  O   UNL     1      -2.547   1.804   0.457  0.00  0.00    -0.328 OA
ATOM     15  N   UNL     1      -0.343   5.385  -1.636  0.00  0.00    -0.347 N 
ATOM     16  H   UNL     1       0.253   5.644  -0.916  0.00  0.00    +0.143 HD
ATOM     17  H   UNL     1      -0.428   5.949  -2.421  0.00  0.00    +0.143 HD
ATOM     18  N   UNL     1      -1.030   3.378  -0.533  0.00  0.00    -0.323 N 
ATOM     19  H   UNL     1      -0.439   3.482   0.300  0.00  0.00    +0.166 HD
ATOM     20  N   UNL     1      -3.548   3.716  -4.457  0.00  0.00    -0.401 NA
ATOM     21  H   UNL     1      -2.938   3.567  -5.269  0.00  0.00    +0.124 HD
ATOM     22  H   UNL     1      -4.401   4.204  -4.754  0.00  0.00    +0.124 HD
ENDROOT
BRANCH   1  26
ATOM     23  C   UNL     1      -5.593   6.879  -1.155  0.00  0.00    +0.000 A 
ATOM     24  C   UNL     1      -4.235   7.081  -0.997  0.00  0.00    +0.000 A 
ATOM     25  C   UNL     1      -3.335   6.344  -1.743  0.00  0.00    +0.005 A 
ATOM     26  C   UNL     1      -3.793   5.405  -2.648  0.00  0.00    -0.027 A 
ATOM     27  C   UNL     1      -5.152   5.206  -2.810  0.00  0.00    +0.005 A 
ATOM     28  C   UNL     1      -6.052   5.939  -2.060  0.00  0.00    +0.000 A 
ENDBRANCH   1  26
BRANCH   5  29
ATOM     29  C   UNL     1      -3.956   3.711  -0.981  0.00  0.00    +0.083 C 
ATOM     30  N   UNL     1      -4.691   4.369  -0.418  0.00  0.00    -0.195 NA
ENDBRANCH   5  29
BRANCH   2  31
ATOM     31  C   UNL     1      -1.274   2.752  -3.416  0.00  0.00    +0.081 C 
ATOM     32  N   UNL     1      -0.710   2.016  -4.072  0.00  0.00    -0.195 NA
ENDBRANCH   2  31
TORSDOF 3
