REMARK  Name = ZINC44854215
REMARK  10 active torsions:
REMARK  status: ('A' for Active; 'I' for Inactive)
REMARK    1  A    between atoms: C_1  and  C_2
REMARK    2  A    between atoms: C_2  and  C_4
REMARK    3  A    between atoms: C_2  and  N_14
REMARK    4  A    between atoms: C_4  and  C_5
REMARK    5  A    between atoms: C_5  and  C_6
REMARK    6  A    between atoms: C_5  and  C_7
REMARK    7  A    between atoms: C_5  and  C_8
REMARK    8  A    between atoms: C_15  and  C_17
REMARK    9  A    between atoms: N_22  and  C_24
REMARK   10  A    between atoms: C_24  and  C_25
REMARK                            x       y       z     vdW  Elec       q    Type
REMARK                         _______ _______ _______ _____ _____    ______ ____
ROOT
ATOM      1  N   UNL     1      -1.215  -0.294  -0.127  0.00  0.00    -0.313 N 
ATOM      2  C   UNL     1      -1.767  -0.350  -1.355  0.00  0.00    +0.215 C 
ATOM      3  O   UNL     1      -1.097  -0.098  -2.334  0.00  0.00    -0.276 OA
ATOM      4  H   UNL     1      -1.751  -0.496   0.656  0.00  0.00    +0.149 HD
ENDROOT
BRANCH   2   5
ATOM      5  C   UNL     1      -3.218  -0.727  -1.512  0.00  0.00    +0.058 C 
ATOM      6  C   UNL     1      -3.447  -2.129  -0.942  0.00  0.00    +0.009 C 
ATOM      7  C   UNL     1      -4.905  -2.533  -1.176  0.00  0.00    -0.018 C 
ATOM      8  C   UNL     1      -5.215  -2.459  -2.673  0.00  0.00    -0.078 C 
ATOM      9  N   UNL     1      -5.003  -1.088  -3.152  0.00  0.00    +0.383 N 
ATOM     10  C   UNL     1      -3.591  -0.718  -2.996  0.00  0.00    -0.066 C 
ATOM     11  H   UNL     1      -5.576  -0.453  -2.618  0.00  0.00    -0.081 HD
BRANCH   9  12
ATOM     12  C   UNL     1      -5.375  -1.003  -4.571  0.00  0.00    -0.040 C 
BRANCH  12  13
ATOM     13  C   UNL     1      -6.854  -1.252  -4.717  0.00  0.00    -0.027 A 
ATOM     14  C   UNL     1      -7.324  -2.540  -4.904  0.00  0.00    +0.044 A 
ATOM     15  C   UNL     1      -8.682  -2.768  -5.038  0.00  0.00    +0.020 A 
ATOM     16  C   UNL     1      -9.569  -1.710  -4.986  0.00  0.00    +0.003 A 
ATOM     17  C   UNL     1      -9.101  -0.423  -4.800  0.00  0.00    +0.020 A 
ATOM     18  C   UNL     1      -7.744  -0.194  -4.659  0.00  0.00    +0.044 A 
ATOM     19 CL   UNL     1      -7.156   1.421  -4.417  0.00  0.00    -0.083 Cl
ATOM     20 CL   UNL     1      -6.209  -3.869  -4.970  0.00  0.00    -0.083 Cl
ENDBRANCH  12  13
ENDBRANCH   9  12
ENDBRANCH   2   5
BRANCH   1  22
ATOM     21  C   UNL     1       0.327   1.596   0.057  0.00  0.00    +0.028 C 
ATOM     22  C   UNL     1       0.196   0.072   0.025  0.00  0.00    +0.071 C 
BRANCH  22  23
ATOM     23  C   UNL     1       0.736  -0.514   1.331  0.00  0.00    +0.033 C 
BRANCH  23  24
ATOM     24  C   UNL     1       0.763  -2.041   1.233  0.00  0.00    -0.008 C 
ATOM     25  C   UNL     1      -0.668  -2.570   1.118  0.00  0.00    +0.016 C 
ATOM     26  C   UNL     1       1.562  -2.458  -0.003  0.00  0.00    +0.016 C 
BRANCH  24  27
ATOM     27  C   UNL     1       1.412  -2.612   2.467  0.00  0.00    -0.042 A 
ATOM     28  C   UNL     1       1.865  -1.768   3.464  0.00  0.00    +0.004 A 
ATOM     29  C   UNL     1       2.460  -2.292   4.596  0.00  0.00    +0.000 A 
ATOM     30  C   UNL     1       2.603  -3.661   4.731  0.00  0.00    +0.000 A 
ATOM     31  C   UNL     1       2.149  -4.505   3.735  0.00  0.00    +0.000 A 
ATOM     32  C   UNL     1       1.550  -3.981   2.605  0.00  0.00    +0.004 A 
ENDBRANCH  24  27
ENDBRANCH  23  24
ENDBRANCH  22  23
ENDBRANCH   1  22
TORSDOF 7
