REMARK  Name = ZINC13567615
REMARK  6 active torsions:
REMARK  status: ('A' for Active; 'I' for Inactive)
REMARK    1  A    between atoms: C_1  and  C_2
REMARK    2  A    between atoms: C_2  and  C_3
REMARK    3  A    between atoms: C_3  and  N_4
REMARK    4  A    between atoms: C_14  and  C_32
REMARK    5  A    between atoms: C_15  and  N_31
REMARK    6  A    between atoms: N_16  and  C_24
REMARK                            x       y       z     vdW  Elec       q    Type
REMARK                         _______ _______ _______ _____ _____    ______ ____
ROOT
ATOM      1  N   UNL     1      -0.184   1.431   3.998  0.00  0.00    -0.270 N 
ATOM      2  C   UNL     1      -0.799   0.570   4.889  0.00  0.00    +0.041 A 
ATOM      3  C   UNL     1      -0.927  -0.819   4.837  0.00  0.00    +0.024 A 
ATOM      4  C   UNL     1      -1.603  -1.433   5.880  0.00  0.00    +0.002 A 
ATOM      5  C   UNL     1      -2.130  -0.714   6.933  0.00  0.00    +0.000 A 
ATOM      6  C   UNL     1      -2.010   0.670   6.997  0.00  0.00    +0.007 A 
ATOM      7  C   UNL     1      -1.340   1.288   5.963  0.00  0.00    -0.001 A 
ATOM      8  C   UNL     1      -1.028   2.730   5.706  0.00  0.00    +0.141 C 
ATOM      9  C   UNL     1      -0.262   2.716   4.398  0.00  0.00    +0.240 C 
ATOM     10  O   UNL     1       0.192   3.680   3.819  0.00  0.00    -0.274 OA
ATOM     11  C   UNL     1      -2.287   3.531   5.558  0.00  0.00    +0.089 C 
ATOM     12  C   UNL     1      -2.704   4.364   6.547  0.00  0.00    +0.108 C 
ATOM     13  N   UNL     1      -1.964   4.489   7.702  0.00  0.00    -0.260 N 
ATOM     14  C   UNL     1      -0.645   4.120   7.730  0.00  0.00    +0.025 C 
ATOM     15  C   UNL     1      -0.146   3.281   6.796  0.00  0.00    +0.037 C 
ATOM     16  C   UNL     1       1.206   2.897   6.815  0.00  0.00    +0.162 C 
ATOM     17  O   UNL     1       1.627   2.154   5.951  0.00  0.00    -0.292 OA
ATOM     18  C   UNL     1       2.141   3.390   7.886  0.00  0.00    +0.080 C 
ATOM     19  C   UNL     1       1.336   3.670   9.159  0.00  0.00    +0.014 C 
ATOM     20  C   UNL     1       0.233   4.676   8.824  0.00  0.00    +0.052 C 
ENDROOT
BRANCH  13  21
ATOM     21  C   UNL     1      -2.566   4.997   8.858  0.00  0.00    +0.042 A 
ATOM     22  C   UNL     1      -3.175   4.136   9.762  0.00  0.00    +0.024 A 
ATOM     23  C   UNL     1      -3.768   4.639  10.903  0.00  0.00    +0.005 A 
ATOM     24  C   UNL     1      -3.757   6.000  11.148  0.00  0.00    +0.038 A 
ATOM     25  C   UNL     1      -3.151   6.863  10.249  0.00  0.00    +0.125 A 
ATOM     26  C   UNL     1      -2.551   6.363   9.107  0.00  0.00    +0.062 A 
ATOM     27  F   UNL     1      -3.142   8.192  10.491  0.00  0.00    -0.205 F 
ENDBRANCH  13  21
BRANCH  12  28
ATOM     28  N   UNL     1      -3.865   5.084   6.394  0.00  0.00    -0.345 N 
ATOM     29  H   UNL     1      -4.117   5.744   7.059  0.00  0.00    +0.144 HD
ATOM     30  H   UNL     1      -4.431   4.932   5.622  0.00  0.00    +0.144 HD
ENDBRANCH  12  28
BRANCH  11  31
ATOM     31  C   UNL     1      -3.060   3.416   4.358  0.00  0.00    +0.100 C 
ATOM     32  N   UNL     1      -3.674   3.324   3.407  0.00  0.00    -0.191 NA
ENDBRANCH  11  31
BRANCH   1  33
ATOM     33  C   UNL     1       0.481   0.996   2.767  0.00  0.00    +0.113 C 
BRANCH  33  35
ATOM     34  C   UNL     1       0.165   0.532   0.332  0.00  0.00    +0.005 C 
ATOM     35  C   UNL     1      -0.529   0.986   1.618  0.00  0.00    +0.016 C 
ENDBRANCH  33  35
ENDBRANCH   1  33
TORSDOF 5
