REMARK  Name = ZINC38700585
REMARK  6 active torsions:
REMARK  status: ('A' for Active; 'I' for Inactive)
REMARK    1  A    between atoms: C_8  and  C_10
REMARK    2  A    between atoms: C_10  and  O_12
REMARK    3  A    between atoms: O_12  and  C_13
REMARK    4  A    between atoms: C_20  and  N_34
REMARK    5  A    between atoms: C_21  and  C_32
REMARK    6  A    between atoms: C_22  and  C_24
REMARK                            x       y       z     vdW  Elec       q    Type
REMARK                         _______ _______ _______ _____ _____    ______ ____
ROOT
ATOM      1  C   UNL     1       4.692  -5.650  -0.107  0.00  0.00    +0.135 A 
ATOM      2  C   UNL     1       3.642  -6.555  -0.180  0.00  0.00    +0.047 A 
ATOM      3  C   UNL     1       3.901  -7.910  -0.224  0.00  0.00    +0.012 A 
ATOM      4  C   UNL     1       5.205  -8.373  -0.196  0.00  0.00    +0.008 A 
ATOM      5  C   UNL     1       6.257  -7.474  -0.123  0.00  0.00    +0.138 A 
ATOM      6  C   UNL     1       5.999  -6.109  -0.085  0.00  0.00    +0.093 A 
ATOM      7  O   UNL     1       7.542  -7.908  -0.093  0.00  0.00    -0.441 OA
ATOM      8  C   UNL     1       7.840  -9.148  -0.514  0.00  0.00    +0.199 C 
ATOM      9  C   UNL     1       6.900 -10.118  -0.609  0.00  0.00    +0.098 C 
ATOM     10  C   UNL     1       5.466  -9.855  -0.244  0.00  0.00    +0.102 C 
ENDROOT
BRANCH  10  11
ATOM     11  C   UNL     1       5.175 -10.457   1.107  0.00  0.00    +0.019 A 
ATOM     12  C   UNL     1       5.872 -10.024   2.222  0.00  0.00    +0.129 A 
ATOM     13  C   UNL     1       5.605 -10.578   3.462  0.00  0.00    +0.039 A 
ATOM     14  C   UNL     1       4.642 -11.563   3.587  0.00  0.00    +0.004 A 
ATOM     15  C   UNL     1       3.947 -11.995   2.473  0.00  0.00    +0.020 A 
ATOM     16  C   UNL     1       4.209 -11.438   1.234  0.00  0.00    +0.048 A 
ATOM     17 CL   UNL     1       3.330 -11.976  -0.163  0.00  0.00    -0.083 Cl
ATOM     18  F   UNL     1       6.813  -9.062   2.100  0.00  0.00    -0.205 F 
ENDBRANCH  10  11
BRANCH   8  19
ATOM     19  N   UNL     1       9.136  -9.441  -0.858  0.00  0.00    -0.328 N 
ATOM     20  H   UNL     1       9.821  -8.757  -0.796  0.00  0.00    +0.145 HD
ATOM     21  H   UNL     1       9.367 -10.332  -1.164  0.00  0.00    +0.145 HD
ENDBRANCH   8  19
BRANCH   9  22
ATOM     22  C   UNL     1       7.280 -11.421  -1.065  0.00  0.00    +0.101 C 
ATOM     23  N   UNL     1       7.582 -12.455  -1.427  0.00  0.00    -0.191 NA
ENDBRANCH   9  22
BRANCH   1  24
ATOM     24  O   UNL     1       4.439  -4.316  -0.064  0.00  0.00    -0.422 OA
BRANCH  24  25
ATOM     25  C   UNL     1       4.621  -3.599  -1.192  0.00  0.00    +0.353 C 
ATOM     26  O   UNL     1       5.085  -4.131  -2.182  0.00  0.00    -0.244 OA
BRANCH  25  34
ATOM     27  C   UNL     1       3.560   2.337  -2.703  0.00  0.00    +0.001 A 
ATOM     28  C   UNL     1       3.069   2.624  -1.435  0.00  0.00    +0.001 A 
ATOM     29  C   UNL     1       3.019   1.626  -0.484  0.00  0.00    +0.016 A 
ATOM     30  C   UNL     1       3.457   0.358  -0.805  0.00  0.00    +0.022 A 
ATOM     31  C   UNL     1       3.961   0.037  -2.087  0.00  0.00    +0.008 A 
ATOM     32  C   UNL     1       3.994   1.094  -3.034  0.00  0.00    +0.010 A 
ATOM     33  C   UNL     1       4.367  -1.299  -2.259  0.00  0.00    +0.070 A 
ATOM     34  C   UNL     1       4.259  -2.179  -1.225  0.00  0.00    +0.116 A 
ATOM     35  S   UNL     1       3.569  -1.177   0.080  0.00  0.00    -0.080 S 
ATOM     36 CL   UNL     1       5.005  -1.825  -3.785  0.00  0.00    -0.082 Cl
ENDBRANCH  25  34
ENDBRANCH  24  25
ENDBRANCH   1  24
TORSDOF 6
