REMARK  Name = ZINC12409125
REMARK  6 active torsions:
REMARK  status: ('A' for Active; 'I' for Inactive)
REMARK    1  A    between atoms: C_1  and  O_2
REMARK    2  A    between atoms: O_2  and  C_3
REMARK    3  A    between atoms: C_6  and  C_11
REMARK    4  A    between atoms: C_7  and  O_9
REMARK    5  A    between atoms: O_9  and  C_10
REMARK    6  A    between atoms: C_16  and  C_21
REMARK                            x       y       z     vdW  Elec       q    Type
REMARK                         _______ _______ _______ _____ _____    ______ ____
ROOT
ATOM      1  C   UNL     1       1.240   2.117   0.002  0.00  0.00    +0.141 C 
ATOM      2  C   UNL     1       2.216   1.994   1.154  0.00  0.00    +0.037 C 
ATOM      3  C   UNL     1       2.301   1.072   2.122  0.00  0.00    +0.019 C 
ATOM      4  C   UNL     1       3.430   1.109   3.140  0.00  0.00    +0.063 C 
ATOM      5  C   UNL     1       3.780   2.560   3.468  0.00  0.00    +0.068 C 
ATOM      6  C   UNL     1       4.237   3.223   2.163  0.00  0.00    +0.091 C 
ATOM      7  C   UNL     1       3.166   3.055   1.133  0.00  0.00    +0.163 C 
ATOM      8  O   UNL     1       3.103   3.866   0.231  0.00  0.00    -0.292 OA
ATOM      9  N   UNL     1       1.437   0.031   2.299  0.00  0.00    -0.297 N 
ATOM     10  C   UNL     1       0.968  -0.741   1.245  0.00  0.00    +0.208 A 
ATOM     11  C   UNL     1       0.227  -0.115   0.159  0.00  0.00    +0.205 A 
ATOM     12  N   UNL     1      -0.191  -1.039  -0.647  0.00  0.00    -0.032 NA
ATOM     13  O   UNL     1       0.295  -2.281  -0.155  0.00  0.00    -0.239 OA
ATOM     14  N   UNL     1       1.022  -2.016   1.037  0.00  0.00    -0.032 NA
ATOM     15  N   UNL     1       0.065   1.268   0.088  0.00  0.00    -0.312 N 
ATOM     16  H   UNL     1       1.137  -0.177   3.198  0.00  0.00    +0.153 HD
ATOM     17  H   UNL     1      -0.823   1.659   0.092  0.00  0.00    +0.149 HD
ENDROOT
BRANCH   1  21
ATOM     18  C   UNL     1       3.313   1.175  -3.619  0.00  0.00    +0.124 A 
ATOM     19  C   UNL     1       3.788   0.708  -2.401  0.00  0.00    +0.046 A 
ATOM     20  C   UNL     1       3.116   1.014  -1.233  0.00  0.00    +0.013 A 
ATOM     21  C   UNL     1       1.970   1.785  -1.274  0.00  0.00    +0.019 A 
ATOM     22  C   UNL     1       1.488   2.250  -2.490  0.00  0.00    +0.129 A 
ATOM     23  C   UNL     1       2.164   1.948  -3.663  0.00  0.00    +0.091 A 
BRANCH  18  25
ATOM     24  C   UNL     1       5.151   0.072  -4.647  0.00  0.00    +0.277 C 
ATOM     25  O   UNL     1       3.974   0.874  -4.767  0.00  0.00    -0.495 OA
ENDBRANCH  18  25
BRANCH  22  26
ATOM     26  O   UNL     1       0.358   3.003  -2.530  0.00  0.00    -0.495 OA
ATOM     27  C   UNL     1      -0.080   3.447  -3.816  0.00  0.00    +0.277 C 
ENDBRANCH  22  26
ENDBRANCH   1  21
BRANCH   5  28
ATOM     28  C   UNL     1       4.892   2.603   4.484  0.00  0.00    +0.109 A 
ATOM     29  C   UNL     1       4.822   3.166   5.704  0.00  0.00    +0.045 A 
ATOM     30  C   UNL     1       6.083   2.976   6.315  0.00  0.00    +0.041 A 
ATOM     31  C   UNL     1       6.847   2.308   5.433  0.00  0.00    +0.195 A 
ATOM     32  O   UNL     1       6.119   2.080   4.328  0.00  0.00    -0.468 OA
ENDBRANCH   5  28
TORSDOF 4
