REMARK  Name = ZINC21810889
REMARK  6 active torsions:
REMARK  status: ('A' for Active; 'I' for Inactive)
REMARK    1  A    between atoms: C_1  and  C_2
REMARK    2  A    between atoms: C_5  and  N_8
REMARK    3  A    between atoms: C_9  and  C_11
REMARK    4  A    between atoms: C_11  and  C_32
REMARK    5  A    between atoms: N_23  and  C_24
REMARK    6  A    between atoms: C_24  and  C_25
REMARK                            x       y       z     vdW  Elec       q    Type
REMARK                         _______ _______ _______ _____ _____    ______ ____
ROOT
ATOM      1  C   UNL     1       3.831   3.122  -1.852  0.00  0.00    +0.129 C 
ATOM      2  C   UNL     1       4.043   2.781  -3.331  0.00  0.00    +0.157 C 
ATOM      3  N   UNL     1       3.927   4.007  -4.125  0.00  0.00    -0.331 N 
ATOM      4  C   UNL     1       4.518   4.346  -5.304  0.00  0.00    +0.088 A 
ATOM      5  C   UNL     1       5.412   3.947  -6.327  0.00  0.00    +0.067 A 
ATOM      6  C   UNL     1       5.453   4.939  -7.232  0.00  0.00    +0.198 A 
ATOM      7  O   UNL     1       4.640   5.935  -6.841  0.00  0.00    -0.461 OA
ATOM      8  C   UNL     1       4.056   5.611  -5.668  0.00  0.00    +0.153 A 
ATOM      9  C   UNL     1       3.166   6.040  -4.672  0.00  0.00    +0.079 A 
ATOM     10  C   UNL     1       3.109   5.062  -3.724  0.00  0.00    +0.109 A 
ATOM     11  C   UNL     1       2.349   4.985  -2.471  0.00  0.00    +0.264 C 
ATOM     12  O   UNL     1       1.487   5.798  -2.193  0.00  0.00    -0.268 OA
ATOM     13  N   UNL     1       2.658   3.962  -1.639  0.00  0.00    -0.276 N 
ATOM     14  C   UNL     1       5.067   3.855  -1.327  0.00  0.00    +0.043 C 
ENDROOT
BRANCH   1  16
ATOM     15  N   UNL     1       2.495   1.167  -1.136  0.00  0.00    -0.311 N 
ATOM     16  C   UNL     1       3.660   1.841  -1.076  0.00  0.00    +0.238 C 
ATOM     17  O   UNL     1       4.572   1.418  -0.397  0.00  0.00    -0.273 OA
ATOM     18  H   UNL     1       1.646   1.585  -1.696  0.00  0.00    +0.149 HD
BRANCH  15  23
ATOM     19  C   UNL     1      -0.071  -1.590  -3.723  0.00  0.00    +0.007 C 
ATOM     20  C   UNL     1       0.692  -1.550  -2.397  0.00  0.00    -0.014 C 
ATOM     21  C   UNL     1       0.117  -0.444  -1.510  0.00  0.00    +0.005 C 
ATOM     22  C   UNL     1       0.880  -0.405  -0.185  0.00  0.00    +0.022 C 
ATOM     23  C   UNL     1       2.360  -0.124  -0.456  0.00  0.00    +0.073 C 
ATOM     24  C   UNL     1       2.935  -1.230  -1.343  0.00  0.00    +0.022 C 
ATOM     25  C   UNL     1       2.171  -1.270  -2.669  0.00  0.00    +0.005 C 
ENDBRANCH  15  23
ENDBRANCH   1  16
BRANCH  13  26
ATOM     26  C   UNL     1       1.792   3.695  -0.489  0.00  0.00    +0.145 C 
BRANCH  26  27
ATOM     27  C   UNL     1       2.396   4.308   0.748  0.00  0.00    -0.012 A 
ATOM     28  C   UNL     1       3.272   3.574   1.526  0.00  0.00    +0.006 A 
ATOM     29  C   UNL     1       3.825   4.136   2.661  0.00  0.00    +0.000 A 
ATOM     30  C   UNL     1       3.509   5.434   3.016  0.00  0.00    +0.001 A 
ATOM     31  C   UNL     1       2.630   6.167   2.241  0.00  0.00    +0.020 A 
ATOM     32  C   UNL     1       2.075   5.605   1.105  0.00  0.00    +0.046 A 
ATOM     33 CL   UNL     1       0.975   6.527   0.129  0.00  0.00    -0.083 Cl
ENDBRANCH  26  27
ENDBRANCH  13  26
TORSDOF 4
