REMARK  Name = ZINC44786106
REMARK  6 active torsions:
REMARK  status: ('A' for Active; 'I' for Inactive)
REMARK    1  A    between atoms: C_1  and  C_2
REMARK    2  A    between atoms: C_2  and  C_4
REMARK    3  A    between atoms: C_2  and  N_10
REMARK    4  A    between atoms: C_11  and  C_13
REMARK    5  A    between atoms: C_13  and  C_19
REMARK    6  A    between atoms: N_20  and  O_21
REMARK                            x       y       z     vdW  Elec       q    Type
REMARK                         _______ _______ _______ _____ _____    ______ ____
ROOT
ATOM      1  C   UNL     1      -3.413  -1.235   1.099  0.00  0.00    +0.109 C 
ATOM      2  C   UNL     1      -4.282  -0.339   0.210  0.00  0.00    +0.052 C 
ATOM      3  C   UNL     1      -4.402   1.044   0.856  0.00  0.00    +0.161 C 
ATOM      4  O   UNL     1      -4.953   0.910   2.167  0.00  0.00    -0.380 OA
ATOM      5  C   UNL     1      -4.160   0.121   3.056  0.00  0.00    +0.161 C 
ATOM      6  C   UNL     1      -4.030  -1.299   2.499  0.00  0.00    +0.052 C 
ENDROOT
BRANCH   1   7
ATOM      7  C   UNL     1      -3.351  -2.622   0.512  0.00  0.00    +0.147 C 
ATOM      8  N   UNL     1      -3.869  -3.617   1.151  0.00  0.00    -0.076 NA
ATOM      9  N   UNL     1      -2.741  -2.827  -0.706  0.00  0.00    -0.343 N 
ATOM     10  H   UNL     1      -2.420  -2.071  -1.221  0.00  0.00    +0.144 HD
ATOM     11  H   UNL     1      -2.634  -3.728  -1.049  0.00  0.00    +0.144 HD
BRANCH   8  12
ATOM     12  O   UNL     1      -3.810  -4.920   0.600  0.00  0.00    -0.408 OA
ATOM     13  H   UNL     1      -4.224  -5.599   1.150  0.00  0.00    +0.328 HD
ENDBRANCH   8  12
ENDBRANCH   1   7
BRANCH   1  15
ATOM     14  N   UNL     1      -1.123  -1.200   2.033  0.00  0.00    -0.307 N 
ATOM     15  C   UNL     1      -2.022  -0.661   1.186  0.00  0.00    +0.227 C 
ATOM     16  O   UNL     1      -1.712   0.285   0.494  0.00  0.00    -0.275 OA
ATOM     17  H   UNL     1      -1.392  -1.907   2.640  0.00  0.00    +0.149 HD
BRANCH  14  19
ATOM     18  C   UNL     1       1.059  -1.450   0.957  0.00  0.00    +0.033 C 
ATOM     19  C   UNL     1       0.260  -0.718   2.037  0.00  0.00    +0.107 C 
BRANCH  19  20
ATOM     20  C   UNL     1       0.880  -0.982   3.385  0.00  0.00    +0.011 A 
ATOM     21  C   UNL     1       1.705  -0.191   4.114  0.00  0.00    +0.014 A 
ATOM     22  C   UNL     1       2.157  -0.644   5.340  0.00  0.00    +0.028 A 
ATOM     23  C   UNL     1       1.761  -1.865   5.777  0.00  0.00    +0.078 A 
ATOM     24  S   UNL     1       0.712  -2.412   4.440  0.00  0.00    -0.080 S 
ATOM     25 CL   UNL     1       2.164  -2.682   7.255  0.00  0.00    -0.076 Cl
ENDBRANCH  19  20
ENDBRANCH  14  19
ENDBRANCH   1  15
TORSDOF 5
