REMARK  Name = ZINC00670362
REMARK  8 active torsions:
REMARK  status: ('A' for Active; 'I' for Inactive)
REMARK    1  A    between atoms: C_1  and  C_2
REMARK    2  A    between atoms: C_2  and  C_3
REMARK    3  A    between atoms: C_10  and  N_15
REMARK    4  A    between atoms: C_11  and  C_12
REMARK    5  A    between atoms: C_16  and  C_18
REMARK    6  A    between atoms: C_18  and  C_20
REMARK    7  A    between atoms: C_18  and  O_21
REMARK    8  A    between atoms: O_21  and  C_22
REMARK                            x       y       z     vdW  Elec       q    Type
REMARK                         _______ _______ _______ _____ _____    ______ ____
ROOT
ATOM      1  C   UNL     1       8.476  -4.180   4.767  0.00  0.00    -0.006 C 
ATOM      2  C   UNL     1       8.282  -5.319   3.762  0.00  0.00    +0.008 C 
ATOM      3  C   UNL     1       6.803  -5.435   3.388  0.00  0.00    +0.037 C 
ATOM      4  C   UNL     1       6.301  -4.066   2.944  0.00  0.00    -0.023 A 
ATOM      5  C   UNL     1       6.978  -2.941   3.261  0.00  0.00    -0.004 A 
ATOM      6  S   UNL     1       6.036  -1.628   2.538  0.00  0.00    -0.077 S 
ATOM      7  C   UNL     1       4.755  -2.558   1.833  0.00  0.00    +0.084 A 
ATOM      8  C   UNL     1       5.091  -3.862   2.167  0.00  0.00    +0.068 A 
ATOM      9  C   UNL     1       8.248  -2.842   4.049  0.00  0.00    +0.046 C 
ENDROOT
BRANCH   8  10
ATOM     10  C   UNL     1       4.255  -4.993   1.751  0.00  0.00    +0.244 C 
ATOM     11  O   UNL     1       4.465  -5.547   0.688  0.00  0.00    -0.270 OA
ATOM     12  N   UNL     1       3.253  -5.418   2.546  0.00  0.00    -0.325 N 
ATOM     13  H   UNL     1       3.085  -4.976   3.393  0.00  0.00    +0.145 HD
ATOM     14  H   UNL     1       2.700  -6.166   2.270  0.00  0.00    +0.145 HD
ENDBRANCH   8  10
BRANCH   7  15
ATOM     15  N   UNL     1       3.664  -2.108   1.105  0.00  0.00    -0.276 N 
ATOM     16  C   UNL     1       3.502  -0.789   0.879  0.00  0.00    +0.258 C 
ATOM     17  O   UNL     1       4.311   0.004   1.311  0.00  0.00    -0.271 OA
ATOM     18  H   UNL     1       3.017  -2.743   0.759  0.00  0.00    +0.155 HD
BRANCH  16  19
ATOM     19  C   UNL     1       2.316  -0.301   0.088  0.00  0.00    +0.256 C 
ATOM     20  C   UNL     1       2.348  -0.915  -1.312  0.00  0.00    +0.062 C 
BRANCH  19  21
ATOM     21  O   UNL     1       2.366   1.123  -0.015  0.00  0.00    -0.478 OA
BRANCH  21  22
ATOM     22  C   UNL     1       1.187   1.770  -0.213  0.00  0.00    +0.140 A 
ATOM     23  C   UNL     1       0.023   1.044  -0.419  0.00  0.00    +0.048 A 
ATOM     24  C   UNL     1      -1.174   1.703  -0.626  0.00  0.00    +0.023 A 
ATOM     25  C   UNL     1      -1.214   3.086  -0.618  0.00  0.00    +0.043 A 
ATOM     26  C   UNL     1      -0.055   3.813  -0.413  0.00  0.00    +0.043 A 
ATOM     27  C   UNL     1       1.146   3.158  -0.211  0.00  0.00    +0.084 A 
ATOM     28 CL   UNL     1       2.601   4.069   0.045  0.00  0.00    -0.080 Cl
ATOM     29 CL   UNL     1      -2.720   3.911  -0.872  0.00  0.00    -0.083 Cl
ENDBRANCH  21  22
ENDBRANCH  19  21
ENDBRANCH  16  19
ENDBRANCH   7  15
BRANCH   1  31
ATOM     30  C   UNL     1      10.059  -3.155   6.406  0.00  0.00    +0.004 C 
ATOM     31  C   UNL     1       9.900  -4.226   5.325  0.00  0.00    +0.000 C 
ENDBRANCH   1  31
TORSDOF 6
