REMARK  Name = ZINC02109559
REMARK  6 active torsions:
REMARK  status: ('A' for Active; 'I' for Inactive)
REMARK    1  A    between atoms: C_1  and  C_2
REMARK    2  A    between atoms: C_2  and  O_3
REMARK    3  A    between atoms: O_3  and  C_4
REMARK    4  A    between atoms: C_9  and  C_10
REMARK    5  A    between atoms: N_29  and  C_32
REMARK    6  A    between atoms: C_32  and  C_33
REMARK                            x       y       z     vdW  Elec       q    Type
REMARK                         _______ _______ _______ _____ _____    ______ ____
ROOT
ATOM      1  C   UNL     1      -0.059   5.351   0.028  0.00  0.00    +0.157 C 
ATOM      2  C   UNL     1      -0.178   5.869  -1.388  0.00  0.00    +0.046 A 
ATOM      3  C   UNL     1       0.839   6.459  -2.053  0.00  0.00    -0.015 A 
ATOM      4  C   UNL     1       0.337   6.811  -3.366  0.00  0.00    +0.003 A 
ATOM      5  C   UNL     1       0.928   7.433  -4.471  0.00  0.00    +0.010 A 
ATOM      6  C   UNL     1       0.137   7.611  -5.579  0.00  0.00    +0.001 A 
ATOM      7  C   UNL     1      -1.186   7.200  -5.612  0.00  0.00    +0.002 A 
ATOM      8  C   UNL     1      -1.795   6.583  -4.534  0.00  0.00    +0.026 A 
ATOM      9  C   UNL     1      -1.016   6.387  -3.396  0.00  0.00    +0.047 A 
ATOM     10  N   UNL     1      -1.292   5.823  -2.183  0.00  0.00    -0.356 N 
ATOM     11  H   UNL     1      -2.147   5.446  -1.925  0.00  0.00    +0.166 HD
ATOM     12  C   UNL     1       2.217   6.688  -1.487  0.00  0.00    +0.069 C 
ATOM     13  C   UNL     1       2.405   5.785  -0.260  0.00  0.00    +0.167 C 
ATOM     14  N   UNL     1       1.211   5.864   0.584  0.00  0.00    -0.276 N 
ATOM     15  C   UNL     1       1.220   6.377   1.814  0.00  0.00    +0.234 C 
ATOM     16  O   UNL     1       0.162   6.459   2.400  0.00  0.00    -0.274 OA
ATOM     17  C   UNL     1       2.446   6.856   2.520  0.00  0.00    +0.204 C 
ATOM     18  N   UNL     1       3.645   6.672   1.720  0.00  0.00    -0.287 N 
ATOM     19  C   UNL     1       3.640   6.192   0.478  0.00  0.00    +0.237 C 
ATOM     20  O   UNL     1       4.705   6.077  -0.091  0.00  0.00    -0.274 OA
ENDROOT
BRANCH   1  26
ATOM     21  C   UNL     1      -0.292   3.142   1.192  0.00  0.00    +0.126 A 
ATOM     22  C   UNL     1      -0.282   1.755   1.181  0.00  0.00    +0.046 A 
ATOM     23  C   UNL     1      -0.015   1.076   0.009  0.00  0.00    +0.004 A 
ATOM     24  C   UNL     1       0.233   1.778  -1.157  0.00  0.00    +0.001 A 
ATOM     25  C   UNL     1       0.219   3.160  -1.150  0.00  0.00    +0.009 A 
ATOM     26  C   UNL     1      -0.043   3.844   0.021  0.00  0.00    +0.020 A 
BRANCH  21  27
ATOM     27  O   UNL     1      -0.550   3.812   2.345  0.00  0.00    -0.492 OA
BRANCH  27  29
ATOM     28  C   UNL     1      -1.066   3.947   4.702  0.00  0.00    +0.048 C 
ATOM     29  C   UNL     1      -0.797   3.025   3.512  0.00  0.00    +0.225 C 
ENDBRANCH  27  29
ENDBRANCH  21  27
ENDBRANCH   1  26
BRANCH  18  30
ATOM     30  C   UNL     1       4.934   7.035   2.313  0.00  0.00    +0.143 C 
BRANCH  30  31
ATOM     31  C   UNL     1       5.239   8.479   2.008  0.00  0.00    -0.030 A 
ATOM     32  C   UNL     1       5.940   8.811   0.864  0.00  0.00    +0.005 A 
ATOM     33  C   UNL     1       6.215  10.136   0.581  0.00  0.00    +0.000 A 
ATOM     34  C   UNL     1       5.798  11.129   1.448  0.00  0.00    +0.000 A 
ATOM     35  C   UNL     1       5.101  10.797   2.595  0.00  0.00    +0.000 A 
ATOM     36  C   UNL     1       4.821   9.472   2.875  0.00  0.00    +0.005 A 
ENDBRANCH  30  31
ENDBRANCH  18  30
TORSDOF 5
