REMARK  Name = ZINC15274597
REMARK  10 active torsions:
REMARK  status: ('A' for Active; 'I' for Inactive)
REMARK    1  A    between atoms: C_1  and  C_2
REMARK    2  A    between atoms: C_2  and  C_4
REMARK    3  A    between atoms: C_2  and  N_11
REMARK    4  A    between atoms: C_12  and  C_14
REMARK    5  A    between atoms: C_14  and  C_16
REMARK    6  A    between atoms: C_14  and  O_17
REMARK    7  A    between atoms: O_17  and  C_18
REMARK    8  A    between atoms: C_18  and  C_20
REMARK    9  A    between atoms: C_24  and  S_26
REMARK   10  A    between atoms: S_26  and  N_29
REMARK                            x       y       z     vdW  Elec       q    Type
REMARK                         _______ _______ _______ _____ _____    ______ ____
ROOT
ATOM      1  O   UNL     1       3.640   3.507  -0.013  0.00  0.00    -0.449 OA
ENDROOT
BRANCH   1   2
ATOM      2  C   UNL     1       4.927   4.181  -0.020  0.00  0.00    +0.259 C 
ATOM      3  C   UNL     1       5.391   4.410   1.419  0.00  0.00    +0.062 C 
BRANCH   2   5
ATOM      4  N   UNL     1       5.887   6.267  -0.940  0.00  0.00    -0.306 N 
ATOM      5  C   UNL     1       4.795   5.508  -0.722  0.00  0.00    +0.254 C 
ATOM      6  O   UNL     1       3.705   5.893  -1.092  0.00  0.00    -0.272 OA
ATOM      7  H   UNL     1       6.758   5.959  -0.645  0.00  0.00    +0.149 HD
BRANCH   4   9
ATOM      8  C   UNL     1       5.390   8.638  -0.605  0.00  0.00    +0.033 C 
ATOM      9  C   UNL     1       5.758   7.557  -1.623  0.00  0.00    +0.100 C 
BRANCH   9  10
ATOM     10  C   UNL     1       7.068   7.910  -2.279  0.00  0.00    -0.027 A 
ATOM     11  C   UNL     1       8.259   7.658  -1.624  0.00  0.00    +0.008 A 
ATOM     12  C   UNL     1       9.461   7.977  -2.228  0.00  0.00    +0.038 A 
ATOM     13  C   UNL     1       9.471   8.559  -3.484  0.00  0.00    +0.123 A 
ATOM     14  C   UNL     1       8.277   8.816  -4.137  0.00  0.00    +0.038 A 
ATOM     15  C   UNL     1       7.077   8.491  -3.534  0.00  0.00    +0.008 A 
ATOM     16  F   UNL     1      10.645   8.877  -4.072  0.00  0.00    -0.205 F 
ENDBRANCH   9  10
ENDBRANCH   4   9
ENDBRANCH   2   5
ENDBRANCH   1   2
BRANCH   1  17
ATOM     17  C   UNL     1       3.655   2.160  -0.020  0.00  0.00    +0.340 C 
ATOM     18  O   UNL     1       4.714   1.565  -0.033  0.00  0.00    -0.245 OA
BRANCH  17  19
ATOM     19  C   UNL     1       2.385   1.408  -0.013  0.00  0.00    +0.061 A 
ATOM     20  C   UNL     1       1.166   2.090   0.002  0.00  0.00    +0.016 A 
ATOM     21  C   UNL     1      -0.017   1.381   0.010  0.00  0.00    +0.023 A 
ATOM     22  C   UNL     1       0.002  -0.004   0.002  0.00  0.00    +0.067 A 
ATOM     23  C   UNL     1       1.208  -0.686  -0.013  0.00  0.00    +0.124 A 
ATOM     24  C   UNL     1       2.397   0.011  -0.020  0.00  0.00    +0.045 A 
ATOM     25 CL   UNL     1      -1.492  -0.889   0.011  0.00  0.00    -0.082 Cl
BRANCH  23  26
ATOM     26  S   UNL     1       1.221  -2.448  -0.023  0.00  0.00    +0.057 S 
ATOM     27  O   UNL     1       0.318  -2.855  -1.042  0.00  0.00    -0.153 OA
ATOM     28  O   UNL     1       2.586  -2.844  -0.011  0.00  0.00    -0.153 OA
BRANCH  26  29
ATOM     29  N   UNL     1       0.570  -2.950   1.415  0.00  0.00    -0.203 NA
ATOM     30  H   UNL     1       0.270  -2.297   2.066  0.00  0.00    +0.144 HD
ATOM     31  H   UNL     1       0.488  -3.898   1.605  0.00  0.00    +0.144 HD
ENDBRANCH  26  29
ENDBRANCH  23  26
ENDBRANCH  17  19
ENDBRANCH   1  17
TORSDOF 8
