REMARK  Name = ZINC58646280
REMARK  7 active torsions:
REMARK  status: ('A' for Active; 'I' for Inactive)
REMARK    1  A    between atoms: C_1  and  C_2
REMARK    2  A    between atoms: C_4  and  C_26
REMARK    3  A    between atoms: C_6  and  O_8
REMARK    4  A    between atoms: O_8  and  S_9
REMARK    5  A    between atoms: S_9  and  C_12
REMARK    6  A    between atoms: C_26  and  C_27
REMARK    7  A    between atoms: C_26  and  C_28
REMARK                            x       y       z     vdW  Elec       q    Type
REMARK                         _______ _______ _______ _____ _____    ______ ____
ROOT
ATOM      1  S   UNL     1       1.447  -3.070   2.886  0.00  0.00    +0.151 S 
ATOM      2  O   UNL     1       1.287  -3.959   3.983  0.00  0.00    -0.131 OA
ATOM      3  O   UNL     1       2.248  -3.390   1.757  0.00  0.00    -0.131 OA
ENDROOT
BRANCH   1   4
ATOM      4  C   UNL     1       2.083  -1.565   3.545  0.00  0.00    +0.129 A 
ATOM      5  C   UNL     1       2.791  -0.699   2.726  0.00  0.00    +0.032 A 
ATOM      6  C   UNL     1       3.297   0.485   3.224  0.00  0.00    +0.028 A 
ATOM      7  C   UNL     1       3.096   0.813   4.556  0.00  0.00    +0.056 A 
ATOM      8  C   UNL     1       2.378  -0.064   5.388  0.00  0.00    +0.065 A 
ATOM      9  C   UNL     1       1.869  -1.253   4.872  0.00  0.00    +0.046 A 
ATOM     10  C   UNL     1       2.183   0.316   6.798  0.00  0.00    +0.262 A 
ATOM     11  O   UNL     1       1.570  -0.407   7.560  0.00  0.00    -0.267 OA
ATOM     12  N   UNL     1       2.702   1.488   7.223  0.00  0.00    -0.275 N 
ATOM     13  H   UNL     1       2.583   1.753   8.149  0.00  0.00    +0.173 HD
ATOM     14  C   UNL     1       3.381   2.292   6.390  0.00  0.00    +0.327 A 
ATOM     15  O   UNL     1       3.827   3.336   6.824  0.00  0.00    -0.247 OA
ATOM     16  N   UNL     1       3.587   1.993   5.096  0.00  0.00    -0.307 N 
ATOM     17  H   UNL     1       4.084   2.608   4.534  0.00  0.00    +0.170 HD
ENDBRANCH   1   4
BRANCH   1  18
ATOM     18  O   UNL     1       0.050  -2.776   2.358  0.00  0.00    -0.342 OA
BRANCH  18  24
ATOM     19  C   UNL     1      -0.018   1.503   0.010  0.00  0.00    +0.044 C 
ATOM     20  C   UNL     1       0.002  -0.004   0.002  0.00  0.00    -0.047 A 
ATOM     21  C   UNL     1       0.006  -0.688  -1.200  0.00  0.00    +0.007 A 
ATOM     22  C   UNL     1       0.024  -2.071  -1.211  0.00  0.00    -0.041 A 
ATOM     23  C   UNL     1       0.039  -2.772  -0.020  0.00  0.00    +0.052 A 
ATOM     24  C   UNL     1       0.035  -2.088   1.186  0.00  0.00    +0.157 A 
ATOM     25  C   UNL     1       0.023  -0.700   1.195  0.00  0.00    +0.052 A 
BRANCH  22  26
ATOM     26  C   UNL     1       0.028  -2.813  -2.522  0.00  0.00    +0.013 C 
ATOM     27  C   UNL     1       1.289  -3.675  -2.616  0.00  0.00    +0.012 C 
ATOM     28  C   UNL     1      -1.209  -3.709  -2.605  0.00  0.00    +0.012 C 
ENDBRANCH  22  26
ENDBRANCH  18  24
ENDBRANCH   1  18
TORSDOF 4
