REMARK  Name = ZINC39372007
REMARK  10 active torsions:
REMARK  status: ('A' for Active; 'I' for Inactive)
REMARK    1  A    between atoms: C_1  and  O_2
REMARK    2  A    between atoms: O_2  and  C_3
REMARK    3  A    between atoms: C_6  and  N_9
REMARK    4  A    between atoms: C_11  and  C_23
REMARK    5  A    between atoms: C_13  and  C_16
REMARK    6  A    between atoms: C_23  and  N_24
REMARK    7  A    between atoms: N_24  and  C_25
REMARK    8  A    between atoms: C_25  and  C_26
REMARK    9  A    between atoms: C_26  and  S_27
REMARK   10  A    between atoms: S_27  and  C_28
REMARK                            x       y       z     vdW  Elec       q    Type
REMARK                         _______ _______ _______ _____ _____    ______ ____
ROOT
ATOM      1  N   UNL     1       2.458  -2.457  -4.301  0.00  0.00    -0.266 N 
ATOM      2  C   UNL     1       2.569  -3.912  -4.495  0.00  0.00    +0.127 C 
ATOM      3  C   UNL     1       3.259  -4.092  -5.869  0.00  0.00    +0.014 C 
ATOM      4  C   UNL     1       2.993  -2.709  -6.522  0.00  0.00    +0.107 C 
ATOM      5  N   UNL     1       3.048  -1.801  -5.350  0.00  0.00    -0.232 NA
ATOM      6  H   UNL     1       2.577  -0.931  -5.544  0.00  0.00    +0.145 HD
ENDROOT
BRANCH   4   7
ATOM      7  C   UNL     1       4.068  -2.369  -7.522  0.00  0.00    -0.010 A 
ATOM      8  C   UNL     1       5.150  -1.599  -7.139  0.00  0.00    +0.006 A 
ATOM      9  C   UNL     1       6.136  -1.288  -8.057  0.00  0.00    +0.000 A 
ATOM     10  C   UNL     1       6.040  -1.746  -9.358  0.00  0.00    +0.001 A 
ATOM     11  C   UNL     1       4.959  -2.516  -9.742  0.00  0.00    +0.020 A 
ATOM     12  C   UNL     1       3.974  -2.833  -8.822  0.00  0.00    +0.046 A 
ATOM     13 CL   UNL     1       2.619  -3.805  -9.302  0.00  0.00    -0.083 Cl
ENDBRANCH   4   7
BRANCH   1  17
ATOM     14  C   UNL     1       0.606  -0.608  -1.056  0.00  0.00    +0.120 A 
ATOM     15  C   UNL     1       1.173   0.162  -2.062  0.00  0.00    +0.047 A 
ATOM     16  C   UNL     1       1.786  -0.451  -3.137  0.00  0.00    +0.028 A 
ATOM     17  C   UNL     1       1.836  -1.836  -3.212  0.00  0.00    +0.045 A 
ATOM     18  C   UNL     1       1.269  -2.605  -2.204  0.00  0.00    +0.028 A 
ATOM     19  C   UNL     1       0.660  -1.992  -1.127  0.00  0.00    +0.047 A 
BRANCH  14  21
ATOM     20  C   UNL     1      -0.017   1.425   0.010  0.00  0.00    +0.277 C 
ATOM     21  O   UNL     1       0.002  -0.004   0.002  0.00  0.00    -0.495 OA
ENDBRANCH  14  21
ENDBRANCH   1  17
BRANCH   3  22
ATOM     22  C   UNL     1       2.601  -5.216  -6.671  0.00  0.00    -0.076 C 
BRANCH  22  23
ATOM     23  N   UNL     1       2.839  -6.501  -6.000  0.00  0.00    +0.380 N 
ATOM     24  H   UNL     1       3.832  -6.669  -5.937  0.00  0.00    -0.086 HD
ATOM     25  H   UNL     1       2.443  -6.474  -5.072  0.00  0.00    -0.086 HD
BRANCH  23  26
ATOM     26  C   UNL     1       2.207  -7.581  -6.771  0.00  0.00    -0.071 C 
BRANCH  26  27
ATOM     27  C   UNL     1       2.455  -8.919  -6.071  0.00  0.00    +0.058 C 
BRANCH  27  28
ATOM     28  S   UNL     1       1.675 -10.252  -7.023  0.00  0.00    -0.086 S 
BRANCH  28  29
ATOM     29  C   UNL     1       2.046 -11.707  -6.101  0.00  0.00    +0.208 A 
ATOM     30  H   UNL     1       3.231 -13.457  -3.808  0.00  0.00    +0.190 HD
ATOM     31  N   UNL     1       1.671 -12.949  -6.423  0.00  0.00    -0.210 NA
ATOM     32  C   UNL     1       2.113 -13.792  -5.524  0.00  0.00    +0.217 A 
ATOM     33  N   UNL     1       2.791 -13.098  -4.595  0.00  0.00    -0.264 N 
ATOM     34  N   UNL     1       2.740 -11.751  -4.988  0.00  0.00    -0.146 NA
ENDBRANCH  28  29
ENDBRANCH  27  28
ENDBRANCH  26  27
ENDBRANCH  23  26
ENDBRANCH  22  23
ENDBRANCH   3  22
TORSDOF 9
