REMARK  Name = ZINC22938239
REMARK  8 active torsions:
REMARK  status: ('A' for Active; 'I' for Inactive)
REMARK    1  A    between atoms: C_7  and  N_28
REMARK    2  A    between atoms: C_8  and  C_10
REMARK    3  A    between atoms: C_10  and  C_12
REMARK    4  A    between atoms: C_10  and  N_19
REMARK    5  A    between atoms: N_22  and  C_25
REMARK    6  A    between atoms: C_25  and  C_26
REMARK    7  A    between atoms: C_26  and  O_27
REMARK    8  A    between atoms: C_29  and  C_31
REMARK                            x       y       z     vdW  Elec       q    Type
REMARK                         _______ _______ _______ _____ _____    ______ ____
ROOT
ATOM      1  C   UNL     1       2.595  -2.417   2.282  0.00  0.00    +0.032 C 
ENDROOT
BRANCH   1   9
ATOM      2  C   UNL     1       1.622   0.086  -3.167  0.00  0.00    +0.001 A 
ATOM      3  C   UNL     1       2.567   0.993  -2.709  0.00  0.00    +0.004 A 
ATOM      4  C   UNL     1       3.128   0.854  -1.458  0.00  0.00    +0.047 A 
ATOM      5  C   UNL     1       2.744  -0.205  -0.642  0.00  0.00    +0.137 A 
ATOM      6  C   UNL     1       1.786  -1.119  -1.112  0.00  0.00    +0.042 A 
ATOM      7  C   UNL     1       1.231  -0.962  -2.380  0.00  0.00    +0.013 A 
ATOM      8  C   UNL     1       1.610  -2.096  -0.027  0.00  0.00    +0.082 A 
ATOM      9  C   UNL     1       2.437  -1.710   0.961  0.00  0.00    +0.118 A 
ATOM     10  O   UNL     1       3.103  -0.597   0.596  0.00  0.00    -0.459 OA
BRANCH   8  11
ATOM     11  N   UNL     1       0.752  -3.208  -0.023  0.00  0.00    -0.278 N 
ATOM     12  C   UNL     1      -0.524  -3.074   0.390  0.00  0.00    +0.255 C 
ATOM     13  O   UNL     1      -0.958  -1.972   0.674  0.00  0.00    -0.269 OA
ATOM     14  H   UNL     1       1.078  -4.073  -0.318  0.00  0.00    +0.155 HD
BRANCH  12  15
ATOM     15  C   UNL     1      -1.388  -4.253   0.497  0.00  0.00    +0.074 A 
ATOM     16  C   UNL     1      -2.715  -4.330   0.891  0.00  0.00    +0.021 A 
ATOM     17  C   UNL     1      -3.265  -5.590   0.891  0.00  0.00    +0.008 A 
ATOM     18  C   UNL     1      -2.498  -6.644   0.517  0.00  0.00    +0.046 A 
ATOM     19  S   UNL     1      -1.009  -5.959   0.146  0.00  0.00    -0.092 S 
ENDBRANCH  12  15
ENDBRANCH   8  11
ENDBRANCH   1   9
BRANCH   1  20
ATOM     20  C   UNL     1       3.897  -3.177   2.293  0.00  0.00    -0.054 A 
ATOM     21  C   UNL     1       5.082  -2.514   2.551  0.00  0.00    +0.004 A 
ATOM     22  C   UNL     1       6.276  -3.211   2.561  0.00  0.00    +0.020 A 
ATOM     23  C   UNL     1       6.284  -4.571   2.312  0.00  0.00    +0.041 A 
ATOM     24  C   UNL     1       5.098  -5.234   2.053  0.00  0.00    +0.020 A 
ATOM     25  C   UNL     1       3.904  -4.538   2.049  0.00  0.00    +0.004 A 
ATOM     26 CL   UNL     1       7.784  -5.447   2.324  0.00  0.00    -0.084 Cl
ENDBRANCH   1  20
BRANCH   1  27
ATOM     27  N   UNL     1       2.596  -1.430   3.370  0.00  0.00    +0.391 N 
ATOM     28  C   UNL     1       2.752  -2.119   4.657  0.00  0.00    -0.062 C 
ATOM     29  C   UNL     1       2.772  -1.089   5.789  0.00  0.00    +0.066 C 
ATOM     30  N   UNL     1       1.517  -0.323   5.772  0.00  0.00    -0.304 NA
ATOM     31  C   UNL     1       1.336   0.353   4.480  0.00  0.00    +0.066 C 
ATOM     32  C   UNL     1       1.327  -0.689   3.359  0.00  0.00    -0.062 C 
ATOM     33  H   UNL     1       3.362  -0.786   3.238  0.00  0.00    -0.080 HD
BRANCH  30  34
ATOM     34  C   UNL     1       1.474   0.639   6.881  0.00  0.00    +0.112 C 
BRANCH  34  35
ATOM     35  C   UNL     1       0.069   1.236   6.983  0.00  0.00    +0.171 C 
BRANCH  35  36
ATOM     36  O   UNL     1      -0.860   0.210   7.337  0.00  0.00    -0.394 OA
ATOM     37  H   UNL     1      -1.773   0.517   7.420  0.00  0.00    +0.209 HD
ENDBRANCH  35  36
ENDBRANCH  34  35
ENDBRANCH  30  34
ENDBRANCH   1  27
TORSDOF 8
