REMARK  Name = ZINC13520651
REMARK  8 active torsions:
REMARK  status: ('A' for Active; 'I' for Inactive)
REMARK    1  A    between atoms: C_2  and  C_3
REMARK    2  A    between atoms: C_3  and  N_4
REMARK    3  A    between atoms: C_8  and  S_26
REMARK    4  A    between atoms: C_11  and  N_14
REMARK    5  A    between atoms: C_12  and  O_13
REMARK    6  A    between atoms: N_15  and  C_16
REMARK    7  A    between atoms: N_17  and  C_18
REMARK    8  A    between atoms: S_26  and  N_29
REMARK                            x       y       z     vdW  Elec       q    Type
REMARK                         _______ _______ _______ _____ _____    ______ ____
ROOT
ATOM      1  N   UNL     1      -0.735  -1.531  -1.411  0.00  0.00    -0.306 N 
ATOM      2  C   UNL     1      -1.514  -1.307  -2.534  0.00  0.00    +0.055 A 
ATOM      3  C   UNL     1      -2.111  -0.165  -3.056  0.00  0.00    +0.028 A 
ATOM      4  C   UNL     1      -2.848  -0.242  -4.219  0.00  0.00    +0.030 A 
ATOM      5  C   UNL     1      -3.003  -1.452  -4.877  0.00  0.00    +0.106 A 
ATOM      6  C   UNL     1      -2.420  -2.596  -4.375  0.00  0.00    +0.040 A 
ATOM      7  C   UNL     1      -1.673  -2.530  -3.202  0.00  0.00    +0.033 A 
ATOM      8  C   UNL     1      -0.931  -3.531  -2.407  0.00  0.00    +0.155 A 
ATOM      9  C   UNL     1      -0.381  -2.837  -1.328  0.00  0.00    +0.222 A 
ENDROOT
BRANCH   5  10
ATOM     10  S   UNL     1      -3.950  -1.528  -6.362  0.00  0.00    +0.061 S 
ATOM     11  O   UNL     1      -4.398  -2.871  -6.489  0.00  0.00    -0.153 OA
ATOM     12  O   UNL     1      -4.845  -0.426  -6.329  0.00  0.00    -0.153 OA
BRANCH  10  13
ATOM     13  N   UNL     1      -2.909  -1.256  -7.620  0.00  0.00    -0.172 NA
ATOM     14  C   UNL     1      -2.655   0.108  -8.112  0.00  0.00    +0.137 C 
ATOM     15  C   UNL     1      -1.138   0.322  -8.181  0.00  0.00    +0.177 C 
ATOM     16  O   UNL     1      -0.546  -0.743  -8.929  0.00  0.00    -0.377 OA
ATOM     17  C   UNL     1      -0.716  -2.036  -8.342  0.00  0.00    +0.177 C 
ATOM     18  C   UNL     1      -2.206  -2.370  -8.277  0.00  0.00    +0.137 C 
ENDBRANCH  10  13
ENDBRANCH   5  10
BRANCH   9  19
ATOM     19  O   UNL     1       0.381  -3.381  -0.355  0.00  0.00    -0.492 OA
ATOM     20  H   UNL     1      -0.123  -3.706   0.403  0.00  0.00    +0.294 HD
ENDBRANCH   9  19
BRANCH   8  21
ATOM     21  N   UNL     1      -0.809  -4.837  -2.671  0.00  0.00    -0.141 NA
ATOM     22  N   UNL     1      -0.125  -5.593  -1.880  0.00  0.00    -0.123 NA
BRANCH  22  23
ATOM     23  C   UNL     1      -0.002  -6.909  -2.146  0.00  0.00    +0.199 C 
ATOM     24  N   UNL     1       0.726  -7.714  -1.304  0.00  0.00    -0.330 N 
ATOM     25  S   UNL     1      -0.729  -7.556  -3.490  0.00  0.00    -0.009 SA
ATOM     26  H   UNL     1       1.072  -7.358  -0.470  0.00  0.00    +0.168 HD
BRANCH  24  27
ATOM     27  C   UNL     1       0.970  -9.048  -1.648  0.00  0.00    +0.077 A 
ATOM     28  C   UNL     1       1.339  -9.375  -2.946  0.00  0.00    +0.028 A 
ATOM     29  C   UNL     1       1.579 -10.693  -3.283  0.00  0.00    +0.002 A 
ATOM     30  C   UNL     1       1.452 -11.687  -2.330  0.00  0.00    +0.003 A 
ATOM     31  C   UNL     1       1.085 -11.367  -1.036  0.00  0.00    +0.040 A 
ATOM     32  C   UNL     1       0.849 -10.049  -0.690  0.00  0.00    +0.147 A 
ATOM     33  F   UNL     1       0.495  -9.735   0.575  0.00  0.00    -0.203 F 
ENDBRANCH  24  27
ENDBRANCH  22  23
ENDBRANCH   8  21
BRANCH   1  34
ATOM     34  C   UNL     1      -0.343  -0.498  -0.449  0.00  0.00    +0.152 C 
BRANCH  34  36
ATOM     35  C   UNL     1       1.044   1.422  -1.044  0.00  0.00    +0.005 C 
ATOM     36  C   UNL     1       0.959   0.124  -0.883  0.00  0.00    -0.013 C 
ENDBRANCH  34  36
ENDBRANCH   1  34
TORSDOF 8
