REMARK  Name = ZINC37492634
REMARK  9 active torsions:
REMARK  status: ('A' for Active; 'I' for Inactive)
REMARK    1  A    between atoms: C_1  and  C_2
REMARK    2  A    between atoms: C_5  and  C_12
REMARK    3  A    between atoms: C_6  and  C_7
REMARK    4  A    between atoms: C_6  and  C_8
REMARK    5  A    between atoms: C_20  and  O_39
REMARK    6  A    between atoms: C_27  and  C_29
REMARK    7  A    between atoms: C_32  and  O_35
REMARK    8  A    between atoms: O_35  and  C_36
REMARK    9  A    between atoms: O_39  and  C_40
REMARK                            x       y       z     vdW  Elec       q    Type
REMARK                         _______ _______ _______ _____ _____    ______ ____
ROOT
ATOM      1  C   UNL     1       1.120  -3.303   1.274  0.00  0.00    +0.261 C 
ATOM      2  O   UNL     1       0.584  -2.439   0.613  0.00  0.00    -0.271 OA
ATOM      3  N   UNL     1       1.552  -4.434   0.682  0.00  0.00    -0.285 N 
ATOM      4  C   UNL     1       1.482  -4.595  -0.778  0.00  0.00    +0.113 C 
ATOM      5  C   UNL     1       2.906  -4.704  -1.336  0.00  0.00    +0.056 C 
ATOM      6  C   UNL     1       3.699  -5.653  -0.474  0.00  0.00    -0.015 A 
ATOM      7  C   UNL     1       4.939  -6.331  -0.793  0.00  0.00    +0.007 A 
ATOM      8  C   UNL     1       5.753  -6.329  -1.930  0.00  0.00    +0.056 A 
ATOM      9  C   UNL     1       6.894  -7.117  -1.882  0.00  0.00    +0.121 A 
ATOM     10  C   UNL     1       7.216  -7.873  -0.761  0.00  0.00    +0.047 A 
ATOM     11  C   UNL     1       6.422  -7.885   0.372  0.00  0.00    +0.030 A 
ATOM     12  C   UNL     1       5.270  -7.102   0.350  0.00  0.00    +0.047 A 
ATOM     13  N   UNL     1       4.290  -6.891   1.280  0.00  0.00    -0.356 N 
ATOM     14  H   UNL     1       4.261  -7.294   2.162  0.00  0.00    +0.166 HD
ATOM     15  C   UNL     1       3.355  -6.026   0.777  0.00  0.00    +0.046 A 
ATOM     16  C   UNL     1       2.113  -5.537   1.480  0.00  0.00    +0.153 C 
ENDROOT
BRANCH   1  21
ATOM     17  C   UNL     1       0.340  -1.521   6.031  0.00  0.00    +0.023 C 
ATOM     18  C   UNL     1       0.966  -2.300   4.873  0.00  0.00    +0.074 C 
ATOM     19  C   UNL     1       2.498  -2.101   4.641  0.00  0.00    +0.023 C 
ATOM     20  C   UNL     1       2.726  -2.669   3.219  0.00  0.00    +0.059 C 
ATOM     21  C   UNL     1       1.302  -3.112   2.758  0.00  0.00    +0.195 C 
ATOM     22  C   UNL     1       0.420  -1.999   3.429  0.00  0.00    +0.029 C 
ATOM     23  C   UNL     1      -1.082  -2.261   3.305  0.00  0.00    +0.016 C 
ATOM     24  C   UNL     1       0.803  -0.602   2.938  0.00  0.00    +0.016 C 
ATOM     25  O   UNL     1       0.985  -4.251   3.604  0.00  0.00    -0.448 OA
ATOM     26  C   UNL     1       0.777  -3.825   4.881  0.00  0.00    +0.315 C 
ATOM     27  O   UNL     1       0.518  -4.510   5.843  0.00  0.00    -0.250 OA
ENDBRANCH   1  21
BRANCH  16  28
ATOM     28  C   UNL     1       1.111  -6.659   1.578  0.00  0.00    -0.021 A 
ATOM     29  C   UNL     1       0.696  -7.316   0.434  0.00  0.00    +0.009 A 
ATOM     30  C   UNL     1      -0.223  -8.344   0.522  0.00  0.00    +0.046 A 
ATOM     31  C   UNL     1      -0.729  -8.717   1.758  0.00  0.00    +0.127 A 
ATOM     32  C   UNL     1      -0.310  -8.056   2.905  0.00  0.00    +0.046 A 
ATOM     33  C   UNL     1       0.612  -7.032   2.812  0.00  0.00    +0.009 A 
BRANCH  31  34
ATOM     34  O   UNL     1      -1.633  -9.727   1.847  0.00  0.00    -0.434 OA
BRANCH  34  35
ATOM     35  C   UNL     1      -2.111 -10.057   3.152  0.00  0.00    +0.541 C 
ATOM     36  F   UNL     1      -1.035 -10.444   3.959  0.00  0.00    -0.166 F 
ATOM     37  F   UNL     1      -2.739  -8.941   3.716  0.00  0.00    -0.166 F 
ENDBRANCH  34  35
ENDBRANCH  31  34
ENDBRANCH  16  28
BRANCH   9  38
ATOM     38  O   UNL     1       7.720  -7.152  -2.962  0.00  0.00    -0.495 OA
ATOM     39  C   UNL     1       8.882  -7.978  -2.864  0.00  0.00    +0.277 C 
ENDBRANCH   9  38
TORSDOF 5
