REMARK  Name = ZINC04029989
REMARK  13 active torsions:
REMARK  status: ('A' for Active; 'I' for Inactive)
REMARK    1  A    between atoms: C_1  and  C_2
REMARK    2  A    between atoms: C_2  and  N_72
REMARK    3  A    between atoms: C_3  and  C_4
REMARK    4  A    between atoms: C_3  and  N_72
REMARK    5  A    between atoms: C_5  and  C_6
REMARK    6  A    between atoms: C_5  and  N_72
REMARK    7  A    between atoms: C_7  and  C_11
REMARK    8  A    between atoms: C_11  and  C_12
REMARK    9  A    between atoms: C_12  and  C_13
REMARK   10  A    between atoms: C_21  and  C_31
REMARK   11  A    between atoms: C_25  and  C_26
REMARK   12  A    between atoms: C_25  and  C_27
REMARK   13  A    between atoms: N_29  and  C_30
REMARK                            x       y       z     vdW  Elec       q    Type
REMARK                         _______ _______ _______ _____ _____    ______ ____
ROOT
ATOM      1  C   UNL     1       0.887  -0.145   5.722  0.00  0.00    +0.021 C 
ATOM      2  C   UNL     1       0.211   0.401   6.960  0.00  0.00    -0.073 C 
ATOM      3  C   UNL     1      -0.322  -0.403   7.846  0.00  0.00    +0.008 C 
ATOM      4  C   UNL     1       0.167   1.902   7.147  0.00  0.00    +0.031 C 
ATOM      5  C   UNL     1      -0.396   2.533   5.870  0.00  0.00    +0.009 C 
ATOM      6  C   UNL     1       0.434   2.081   4.666  0.00  0.00    +0.010 C 
ATOM      7  C   UNL     1       0.325   0.565   4.489  0.00  0.00    -0.022 C 
ATOM      8  C   UNL     1      -1.144   0.180   4.307  0.00  0.00    +0.007 C 
ATOM      9  C   UNL     1      -1.696   0.871   3.058  0.00  0.00    +0.002 C 
ATOM     10  C   UNL     1      -1.573   2.389   3.213  0.00  0.00    +0.016 C 
ATOM     11  C   UNL     1      -0.103   2.767   3.405  0.00  0.00    +0.047 C 
ATOM     12  C   UNL     1       0.018   4.285   3.558  0.00  0.00    +0.021 C 
ATOM     13  C   UNL     1       1.109   0.141   3.245  0.00  0.00    +0.012 C 
ENDROOT
BRANCH  11  14
ATOM     14  C   UNL     1       0.694   2.317   2.208  0.00  0.00    +0.219 C 
ATOM     15  O   UNL     1       0.125   1.877   1.231  0.00  0.00    -0.275 OA
ATOM     16  N   UNL     1       2.039   2.402   2.223  0.00  0.00    -0.318 N 
ATOM     17  C   UNL     1       2.813   1.964   1.059  0.00  0.00    +0.128 C 
ATOM     18  H   UNL     1       2.494   2.753   3.004  0.00  0.00    +0.148 HD
ENDBRANCH  11  14
BRANCH   1  19
ATOM     19  C   UNL     1       2.393   0.108   5.807  0.00  0.00    +0.013 C 
BRANCH  19  20
ATOM     20  C   UNL     1       2.980  -0.691   6.972  0.00  0.00    +0.039 C 
BRANCH  20  22
ATOM     21  C   UNL     1       5.071   0.581   7.685  0.00  0.00    +0.092 A 
ATOM     22  C   UNL     1       4.464  -0.441   7.056  0.00  0.00    -0.008 A 
ATOM     23  C   UNL     1       5.485  -1.240   6.493  0.00  0.00    +0.045 A 
ATOM     24  C   UNL     1       6.655  -0.654   6.804  0.00  0.00    +0.195 A 
ATOM     25  O   UNL     1       6.398   0.447   7.529  0.00  0.00    -0.469 OA
BRANCH  21  26
ATOM     26  C   UNL     1       4.379   1.688   8.437  0.00  0.00    -0.003 C 
BRANCH  26  27
ATOM     27  N   UNL     1       4.293   1.311   9.864  0.00  0.00    +0.384 N 
ATOM     28  H   UNL     1       4.027   0.321   9.931  0.00  0.00    -0.081 HD
BRANCH  27  30
ATOM     29  C   UNL     1       5.549   0.897  11.921  0.00  0.00    -0.017 C 
ATOM     30  C   UNL     1       5.605   1.501  10.517  0.00  0.00    -0.082 C 
ENDBRANCH  27  30
BRANCH  27  31
ATOM     31  C   UNL     1       3.267   2.130  10.542  0.00  0.00    -0.082 C 
ATOM     32  C   UNL     1       1.885   1.575  10.191  0.00  0.00    -0.017 C 
ENDBRANCH  27  31
ENDBRANCH  26  27
ENDBRANCH  21  26
ENDBRANCH  20  22
ENDBRANCH  19  20
ENDBRANCH   1  19
TORSDOF 8
