REMARK  Name = ZINC54940232
REMARK  7 active torsions:
REMARK  status: ('A' for Active; 'I' for Inactive)
REMARK    1  A    between atoms: C_1  and  C_2
REMARK    2  A    between atoms: C_2  and  C_4
REMARK    3  A    between atoms: C_2  and  N_10
REMARK    4  A    between atoms: C_13  and  N_16
REMARK    5  A    between atoms: C_17  and  C_19
REMARK    6  A    between atoms: N_21  and  C_22
REMARK    7  A    between atoms: C_26  and  C_28
REMARK                            x       y       z     vdW  Elec       q    Type
REMARK                         _______ _______ _______ _____ _____    ______ ____
ROOT
ATOM      1  N   UNL     1       0.836  -0.636  -4.644  0.00  0.00    -0.307 N 
ATOM      2  C   UNL     1       0.676  -1.245  -5.835  0.00  0.00    +0.299 C 
ATOM      3  O   UNL     1      -0.075  -2.192  -5.937  0.00  0.00    -0.265 OA
ATOM      4  H   UNL     1       1.436   0.121  -4.562  0.00  0.00    +0.149 HD
ENDROOT
BRANCH   1   8
ATOM      5  N   UNL     1       0.700  -0.482  -1.205  0.00  0.00    +0.385 N 
ATOM      6  C   UNL     1       0.663  -1.966  -1.273  0.00  0.00    -0.076 C 
ATOM      7  C   UNL     1       0.886  -2.257  -2.779  0.00  0.00    +0.002 C 
ATOM      8  C   UNL     1       0.102  -1.119  -3.471  0.00  0.00    +0.055 C 
ATOM      9  C   UNL     1      -0.009  -0.006  -2.412  0.00  0.00    -0.056 C 
ATOM     10  H   UNL     1       1.655  -0.156  -1.211  0.00  0.00    -0.081 HD
BRANCH   5  12
ATOM     11  C   UNL     1      -0.020   1.516   0.014  0.00  0.00    -0.008 C 
ATOM     12  C   UNL     1       0.012  -0.014   0.005  0.00  0.00    -0.041 C 
BRANCH  12  13
ATOM     13  C   UNL     1       0.747  -0.508   1.224  0.00  0.00    -0.061 A 
ATOM     14  C   UNL     1       2.130  -0.508   1.245  0.00  0.00    +0.002 A 
ATOM     15  C   UNL     1       2.804  -0.961   2.363  0.00  0.00    +0.000 A 
ATOM     16  C   UNL     1       2.096  -1.414   3.461  0.00  0.00    +0.000 A 
ATOM     17  C   UNL     1       0.714  -1.412   3.441  0.00  0.00    +0.000 A 
ATOM     18  C   UNL     1       0.040  -0.955   2.324  0.00  0.00    +0.002 A 
ENDBRANCH  12  13
ENDBRANCH   5  12
ENDBRANCH   1   8
BRANCH   2  19
ATOM     19  C   UNL     1       1.424  -0.753  -7.031  0.00  0.00    +0.303 C 
ATOM     20  O   UNL     1       2.175   0.195  -6.929  0.00  0.00    -0.265 OA
ATOM     21  N   UNL     1       1.265  -1.361  -8.223  0.00  0.00    -0.278 N 
ATOM     22  H   UNL     1       0.717  -2.159  -8.291  0.00  0.00    +0.155 HD
BRANCH  21  23
ATOM     23  C   UNL     1       1.889  -0.843  -9.361  0.00  0.00    +0.035 A 
ATOM     24  C   UNL     1       3.146  -0.258  -9.259  0.00  0.00    +0.025 A 
ATOM     25  C   UNL     1       3.768   0.256 -10.381  0.00  0.00    +0.023 A 
ATOM     26  C   UNL     1       3.144   0.193 -11.612  0.00  0.00    +0.058 A 
ATOM     27  C   UNL     1       1.881  -0.394 -11.725  0.00  0.00    +0.072 A 
ATOM     28  C   UNL     1       1.256  -0.917 -10.592  0.00  0.00    +0.043 A 
ATOM     29 CL   UNL     1       3.930   0.842 -13.018  0.00  0.00    -0.082 Cl
BRANCH  27  30
ATOM     30  C   UNL     1       1.231  -0.461 -13.000  0.00  0.00    +0.101 C 
ATOM     31  N   UNL     1       0.716  -0.515 -14.011  0.00  0.00    -0.191 NA
ENDBRANCH  27  30
ENDBRANCH  21  23
ENDBRANCH   2  19
TORSDOF 6
