REMARK  Name = ZINC63140501
REMARK  5 active torsions:
REMARK  status: ('A' for Active; 'I' for Inactive)
REMARK    1  A    between atoms: C_1  and  O_2
REMARK    2  A    between atoms: O_2  and  C_3
REMARK    3  A    between atoms: C_6  and  C_9
REMARK    4  A    between atoms: N_28  and  C_31
REMARK    5  A    between atoms: C_31  and  C_32
REMARK                            x       y       z     vdW  Elec       q    Type
REMARK                         _______ _______ _______ _____ _____    ______ ____
ROOT
ATOM      1  C   UNL     1       2.562  -2.530   4.225  0.00  0.00    +0.133 C 
ATOM      2  C   UNL     1       1.517  -2.911   5.277  0.00  0.00    +0.131 C 
ATOM      3  C   UNL     1       2.218  -3.813   6.285  0.00  0.00    -0.034 C 
ATOM      4  C   UNL     1       2.043  -3.252   7.476  0.00  0.00    -0.001 A 
ATOM      5  C   UNL     1       2.423  -3.687   8.829  0.00  0.00    +0.010 A 
ATOM      6  C   UNL     1       2.092  -2.846   9.845  0.00  0.00    +0.001 A 
ATOM      7  C   UNL     1       1.431  -1.629   9.651  0.00  0.00    +0.002 A 
ATOM      8  C   UNL     1       1.040  -1.152   8.442  0.00  0.00    +0.026 A 
ATOM      9  C   UNL     1       1.327  -1.951   7.298  0.00  0.00    +0.043 A 
ATOM     10  N   UNL     1       1.043  -1.745   6.025  0.00  0.00    -0.375 N 
ATOM     11  C   UNL     1       2.998  -5.036   5.870  0.00  0.00    +0.065 C 
ATOM     12  C   UNL     1       3.950  -4.589   4.746  0.00  0.00    +0.167 C 
ATOM     13  N   UNL     1       3.225  -3.774   3.776  0.00  0.00    -0.279 N 
ATOM     14  C   UNL     1       3.127  -4.105   2.483  0.00  0.00    +0.234 C 
ATOM     15  O   UNL     1       2.485  -3.372   1.762  0.00  0.00    -0.274 OA
ATOM     16  C   UNL     1       3.753  -5.311   1.866  0.00  0.00    +0.204 C 
ATOM     17  N   UNL     1       4.499  -6.099   2.833  0.00  0.00    -0.287 N 
ATOM     18  C   UNL     1       4.591  -5.786   4.125  0.00  0.00    +0.237 C 
ATOM     19  O   UNL     1       5.241  -6.518   4.841  0.00  0.00    -0.274 OA
ATOM     20  H   UNL     1       0.605  -0.967   5.646  0.00  0.00    +0.160 HD
ENDROOT
BRANCH   1  24
ATOM     21  C   UNL     1       0.653  -0.628   0.909  0.00  0.00    +0.120 A 
ATOM     22  C   UNL     1       1.935  -0.251   1.282  0.00  0.00    +0.046 A 
ATOM     23  C   UNL     1       2.550  -0.867   2.355  0.00  0.00    +0.009 A 
ATOM     24  C   UNL     1       1.889  -1.859   3.056  0.00  0.00    -0.025 A 
ATOM     25  C   UNL     1       0.611  -2.237   2.685  0.00  0.00    +0.009 A 
ATOM     26  C   UNL     1      -0.010  -1.619   1.617  0.00  0.00    +0.046 A 
BRANCH  21  28
ATOM     27  C   UNL     1       0.788   0.990  -0.829  0.00  0.00    +0.277 C 
ATOM     28  O   UNL     1       0.046  -0.023  -0.146  0.00  0.00    -0.495 OA
ENDBRANCH  21  28
ENDBRANCH   1  24
BRANCH  17  29
ATOM     29  C   UNL     1       5.185  -7.305   2.363  0.00  0.00    +0.145 C 
BRANCH  29  30
ATOM     30  C   UNL     1       4.221  -8.463   2.362  0.00  0.00    -0.012 A 
ATOM     31  C   UNL     1       4.176  -9.326   3.441  0.00  0.00    +0.008 A 
ATOM     32  C   UNL     1       3.292 -10.388   3.441  0.00  0.00    +0.020 A 
ATOM     33  C   UNL     1       2.451 -10.588   2.361  0.00  0.00    +0.042 A 
ATOM     34  C   UNL     1       2.495  -9.725   1.281  0.00  0.00    +0.040 A 
ATOM     35  C   UNL     1       3.377  -8.659   1.284  0.00  0.00    +0.047 A 
ATOM     36 CL   UNL     1       3.429  -7.572  -0.069  0.00  0.00    -0.083 Cl
ATOM     37 CL   UNL     1       1.341 -11.923   2.361  0.00  0.00    -0.083 Cl
ENDBRANCH  29  30
ENDBRANCH  17  29
TORSDOF 4
