REMARK  Name = ZINC01826649
REMARK  9 active torsions:
REMARK  status: ('A' for Active; 'I' for Inactive)
REMARK    1  A    between atoms: C_1  and  O_2
REMARK    2  A    between atoms: O_2  and  C_3
REMARK    3  A    between atoms: C_6  and  C_9
REMARK    4  A    between atoms: C_10  and  C_11
REMARK    5  A    between atoms: N_13  and  C_14
REMARK    6  A    between atoms: C_14  and  C_15
REMARK    7  A    between atoms: N_17  and  N_18
REMARK    8  A    between atoms: N_26  and  C_29
REMARK    9  A    between atoms: C_29  and  C_30
REMARK                            x       y       z     vdW  Elec       q    Type
REMARK                         _______ _______ _______ _____ _____    ______ ____
ROOT
ATOM      1  N   UNL     1      -2.394   1.149   0.020  0.00  0.00    -0.174 NA
ATOM      2  C   UNL     1      -3.538   1.789   0.029  0.00  0.00    +0.153 C 
ATOM      3  C   UNL     1      -4.899   1.204   0.026  0.00  0.00    +0.028 A 
ATOM      4  C   UNL     1      -5.374  -0.103   0.014  0.00  0.00    +0.012 A 
ATOM      5  C   UNL     1      -6.734  -0.337   0.014  0.00  0.00    +0.001 A 
ATOM      6  C   UNL     1      -7.622   0.726   0.026  0.00  0.00    +0.002 A 
ATOM      7  C   UNL     1      -7.160   2.027   0.046  0.00  0.00    +0.024 A 
ATOM      8  C   UNL     1      -5.793   2.283   0.041  0.00  0.00    +0.046 A 
ATOM      9  N   UNL     1      -5.077   3.474   0.044  0.00  0.00    -0.261 N 
ATOM     10  C   UNL     1      -3.751   3.251   0.037  0.00  0.00    +0.272 C 
ATOM     11  O   UNL     1      -2.881   4.102   0.037  0.00  0.00    -0.268 OA
ENDROOT
BRANCH   1  14
ATOM     12  C   UNL     1      -0.014   1.208   0.009  0.00  0.00    +0.249 C 
ATOM     13  O   UNL     1       0.002  -0.004   0.002  0.00  0.00    -0.272 OA
ATOM     14  N   UNL     1      -1.191   1.866   0.018  0.00  0.00    -0.205 N 
ATOM     15  H   UNL     1      -1.204   2.836   0.023  0.00  0.00    +0.177 HD
BRANCH  12  16
ATOM     16  C   UNL     1       1.280   1.980   0.001  0.00  0.00    +0.202 C 
BRANCH  16  19
ATOM     17  C   UNL     1       3.671   1.509  -0.025  0.00  0.00    +0.237 C 
ATOM     18  O   UNL     1       3.877   2.709  -0.020  0.00  0.00    -0.271 OA
ATOM     19  N   UNL     1       2.407   1.043  -0.015  0.00  0.00    -0.303 N 
ATOM     20  H   UNL     1       2.242   0.087  -0.019  0.00  0.00    +0.149 HD
BRANCH  17  22
ATOM     21  C   UNL     1       6.062   1.041  -0.050  0.00  0.00    +0.013 C 
ATOM     22  C   UNL     1       4.795   0.574  -0.041  0.00  0.00    +0.068 C 
BRANCH  21  26
ATOM     23  C   UNL     1       9.323  -1.671  -0.097  0.00  0.00    +0.120 A 
ATOM     24  C   UNL     1       9.561  -0.301  -0.091  0.00  0.00    +0.046 A 
ATOM     25  C   UNL     1       8.506   0.583  -0.076  0.00  0.00    +0.011 A 
ATOM     26  C   UNL     1       7.192   0.101  -0.066  0.00  0.00    -0.025 A 
ATOM     27  C   UNL     1       6.958  -1.279  -0.066  0.00  0.00    +0.011 A 
ATOM     28  C   UNL     1       8.019  -2.155  -0.087  0.00  0.00    +0.046 A 
BRANCH  23  30
ATOM     29  C   UNL     1      10.051  -3.933  -0.116  0.00  0.00    +0.277 C 
ATOM     30  O   UNL     1      10.366  -2.539  -0.111  0.00  0.00    -0.495 OA
ENDBRANCH  23  30
ENDBRANCH  21  26
ENDBRANCH  17  22
ENDBRANCH  16  19
ENDBRANCH  12  16
ENDBRANCH   1  14
BRANCH   9  31
ATOM     31  C   UNL     1      -5.689   4.805   0.054  0.00  0.00    +0.149 C 
BRANCH  31  32
ATOM     32  C   UNL     1      -5.906   5.269  -1.363  0.00  0.00    -0.028 A 
ATOM     33  C   UNL     1      -7.093   4.981  -2.010  0.00  0.00    +0.007 A 
ATOM     34  C   UNL     1      -7.293   5.406  -3.310  0.00  0.00    +0.022 A 
ATOM     35  C   UNL     1      -6.305   6.120  -3.964  0.00  0.00    +0.059 A 
ATOM     36  C   UNL     1      -5.116   6.408  -3.316  0.00  0.00    +0.060 A 
ATOM     37  C   UNL     1      -4.920   5.987  -2.013  0.00  0.00    +0.026 A 
ATOM     38 CL   UNL     1      -3.875   7.303  -4.136  0.00  0.00    -0.082 Cl
ATOM     39 CL   UNL     1      -6.556   6.653  -5.597  0.00  0.00    -0.082 Cl
ENDBRANCH  31  32
ENDBRANCH   9  31
TORSDOF 8
