REMARK  Name = ZINC62983492
REMARK  8 active torsions:
REMARK  status: ('A' for Active; 'I' for Inactive)
REMARK    1  A    between atoms: C_1  and  C_2
REMARK    2  A    between atoms: C_2  and  N_3
REMARK    3  A    between atoms: N_3  and  C_4
REMARK    4  A    between atoms: N_3  and  C_6
REMARK    5  A    between atoms: C_4  and  C_5
REMARK    6  A    between atoms: C_12  and  C_14
REMARK    7  A    between atoms: C_14  and  C_19
REMARK    8  A    between atoms: N_20  and  O_21
REMARK                            x       y       z     vdW  Elec       q    Type
REMARK                         _______ _______ _______ _____ _____    ______ ____
ROOT
ATOM      1  C   UNL     1       0.887  -1.670  -0.620  0.00  0.00    -0.049 C 
ATOM      2  C   UNL     1      -0.502  -2.357  -0.680  0.00  0.00    +0.005 C 
ATOM      3  C   UNL     1      -0.166  -3.773  -1.193  0.00  0.00    +0.106 C 
ATOM      4  N   UNL     1       1.128  -3.691  -1.885  0.00  0.00    -0.302 N 
ATOM      5  C   UNL     1       1.597  -2.293  -1.848  0.00  0.00    +0.092 C 
ATOM      6  C   UNL     1       1.780  -4.722  -2.458  0.00  0.00    +0.229 C 
ATOM      7  O   UNL     1       2.797  -4.523  -3.086  0.00  0.00    -0.275 OA
ENDROOT
BRANCH   6   8
ATOM      8  C   UNL     1       1.244  -6.123  -2.316  0.00  0.00    +0.105 C 
ATOM      9  C   UNL     1       2.221  -7.128  -2.952  0.00  0.00    +0.024 C 
ATOM     10  C   UNL     1       1.448  -7.839  -4.082  0.00  0.00    +0.001 C 
ATOM     11  C   UNL     1       0.321  -6.845  -4.456  0.00  0.00    +0.001 C 
ATOM     12  C   UNL     1      -0.088  -6.260  -3.082  0.00  0.00    +0.024 C 
BRANCH   8  13
ATOM     13  C   UNL     1       1.039  -6.453  -0.860  0.00  0.00    +0.147 C 
ATOM     14  N   UNL     1      -0.116  -6.859  -0.446  0.00  0.00    -0.076 NA
ATOM     15  N   UNL     1       2.082  -6.321   0.030  0.00  0.00    -0.343 N 
ATOM     16  H   UNL     1       2.926  -5.947  -0.266  0.00  0.00    +0.144 HD
ATOM     17  H   UNL     1       1.971  -6.601   0.952  0.00  0.00    +0.144 HD
BRANCH  14  18
ATOM     18  O   UNL     1      -0.309  -7.169   0.922  0.00  0.00    -0.408 OA
ATOM     19  H   UNL     1      -1.204  -7.464   1.136  0.00  0.00    +0.328 HD
ENDBRANCH  14  18
ENDBRANCH   8  13
ENDBRANCH   6   8
BRANCH   1  20
ATOM     20  N   UNL     1       0.762  -0.214  -0.767  0.00  0.00    +0.382 N 
ATOM     21  H   UNL     1       0.208  -0.004  -1.583  0.00  0.00    -0.081 HD
BRANCH  20  23
ATOM     22  C   UNL     1      -0.135   1.841   0.219  0.00  0.00    -0.017 C 
ATOM     23  C   UNL     1       0.108   0.344   0.425  0.00  0.00    -0.082 C 
ENDBRANCH  20  23
BRANCH  20  24
ATOM     24  C   UNL     1       2.097   0.380  -0.915  0.00  0.00    -0.082 C 
ATOM     25  C   UNL     1       2.926   0.092   0.338  0.00  0.00    -0.017 C 
ENDBRANCH  20  24
ENDBRANCH   1  20
TORSDOF 6
