REMARK  Name = ZINC40839804
REMARK  9 active torsions:
REMARK  status: ('A' for Active; 'I' for Inactive)
REMARK    1  A    between atoms: C_1  and  C_2
REMARK    2  A    between atoms: C_2  and  O_3
REMARK    3  A    between atoms: O_3  and  C_4
REMARK    4  A    between atoms: C_9  and  N_10
REMARK    5  A    between atoms: C_11  and  C_13
REMARK    6  A    between atoms: C_13  and  C_14
REMARK    7  A    between atoms: C_14  and  N_15
REMARK    8  A    between atoms: C_28  and  C_35
REMARK    9  A    between atoms: C_31  and  C_34
REMARK                            x       y       z     vdW  Elec       q    Type
REMARK                         _______ _______ _______ _____ _____    ______ ____
ROOT
ATOM      1  N   UNL     1      -8.744  -1.119  -0.346  0.00  0.00    -0.303 N 
ATOM      2  C   UNL     1      -9.427  -0.737   0.795  0.00  0.00    +0.070 A 
ATOM      3  C   UNL     1      -8.974  -1.135   2.048  0.00  0.00    +0.028 A 
ATOM      4  C   UNL     1      -9.660  -0.750   3.180  0.00  0.00    +0.002 A 
ATOM      5  C   UNL     1     -10.800   0.035   3.079  0.00  0.00    +0.002 A 
ATOM      6  C   UNL     1     -11.261   0.437   1.859  0.00  0.00    +0.030 A 
ATOM      7  C   UNL     1     -10.582   0.058   0.692  0.00  0.00    +0.090 A 
ATOM      8  N   UNL     1     -11.038   0.456  -0.514  0.00  0.00    -0.225 NA
ATOM      9  C   UNL     1     -10.419   0.114  -1.615  0.00  0.00    +0.188 A 
ATOM     10  C   UNL     1      -9.200  -0.714  -1.551  0.00  0.00    +0.292 A 
ATOM     11  O   UNL     1      -8.617  -1.032  -2.571  0.00  0.00    -0.264 OA
ATOM     12  N   UNL     1     -10.906   0.534  -2.840  0.00  0.00    -0.310 N 
ATOM     13  C   UNL     1     -10.332   0.019  -4.090  0.00  0.00    +0.110 C 
ATOM     14  C   UNL     1     -11.463  -0.548  -4.955  0.00  0.00    +0.004 C 
ATOM     15  C   UNL     1     -12.536   0.526  -5.152  0.00  0.00    +0.009 C 
ATOM     16  C   UNL     1     -13.119   0.922  -3.793  0.00  0.00    +0.004 C 
ATOM     17  C   UNL     1     -12.011   1.500  -2.915  0.00  0.00    +0.110 C 
ATOM     18  C   UNL     1     -14.215   1.970  -3.994  0.00  0.00    +0.009 C 
ATOM     19  C   UNL     1     -10.904  -0.967  -6.316  0.00  0.00    +0.009 C 
ENDROOT
BRANCH   1  20
ATOM     20  C   UNL     1      -7.539  -1.947  -0.248  0.00  0.00    +0.135 C 
BRANCH  20  21
ATOM     21  C   UNL     1      -6.309  -1.044  -0.121  0.00  0.00    +0.118 C 
BRANCH  21  23
ATOM     22  N   UNL     1      -3.861  -1.313   0.100  0.00  0.00    -0.283 N 
ATOM     23  C   UNL     1      -5.070  -1.896  -0.020  0.00  0.00    +0.219 C 
ATOM     24  O   UNL     1      -5.161  -3.105  -0.047  0.00  0.00    -0.275 OA
ATOM     25  H   UNL     1      -3.793  -0.351   0.198  0.00  0.00    +0.155 HD
BRANCH  22  31
ATOM     26  C   UNL     1      -1.532  -1.630   0.680  0.00  0.00    +0.142 A 
ATOM     27  C   UNL     1      -0.389  -2.413   0.665  0.00  0.00    +0.047 A 
ATOM     28  C   UNL     1      -0.408  -3.653   0.055  0.00  0.00    +0.004 A 
ATOM     29  C   UNL     1      -1.566  -4.117  -0.541  0.00  0.00    +0.002 A 
ATOM     30  C   UNL     1      -2.711  -3.342  -0.530  0.00  0.00    +0.027 A 
ATOM     31  C   UNL     1      -2.700  -2.099   0.084  0.00  0.00    +0.076 A 
BRANCH  26  32
ATOM     32  O   UNL     1      -1.514  -0.410   1.279  0.00  0.00    -0.490 OA
BRANCH  32  34
ATOM     33  C   UNL     1      -0.454   1.393   2.491  0.00  0.00    +0.048 C 
ATOM     34  C   UNL     1      -0.281   0.005   1.870  0.00  0.00    +0.226 C 
ENDBRANCH  32  34
ENDBRANCH  26  32
ENDBRANCH  22  31
ENDBRANCH  21  23
ENDBRANCH  20  21
ENDBRANCH   1  20
TORSDOF 6
