REMARK  Name = ZINC63883135
REMARK  7 active torsions:
REMARK  status: ('A' for Active; 'I' for Inactive)
REMARK    1  A    between atoms: C_1  and  C_2
REMARK    2  A    between atoms: C_2  and  C_3
REMARK    3  A    between atoms: C_11  and  C_13
REMARK    4  A    between atoms: C_13  and  C_14
REMARK    5  A    between atoms: C_14  and  S_15
REMARK    6  A    between atoms: S_15  and  C_16
REMARK    7  A    between atoms: N_21  and  C_22
REMARK                            x       y       z     vdW  Elec       q    Type
REMARK                         _______ _______ _______ _____ _____    ______ ____
ROOT
ATOM      1  C   UNL     1       0.718  -0.497  -1.257  0.00  0.00    +0.157 C 
ATOM      2  C   UNL     1       0.807  -2.001  -1.267  0.00  0.00    -0.004 C 
ATOM      3  C   UNL     1       0.121  -2.382  -2.350  0.00  0.00    +0.067 C 
ATOM      4  C   UNL     1      -0.058  -3.829  -2.754  0.00  0.00    +0.076 C 
ATOM      5  C   UNL     1       1.006  -4.678  -2.049  0.00  0.00    +0.114 C 
ATOM      6  N   UNL     1       1.074  -4.295  -0.630  0.00  0.00    -0.297 N 
ATOM      7  C   UNL     1       1.502  -2.921  -0.304  0.00  0.00    +0.142 C 
ATOM      8  C   UNL     1       0.755  -5.173   0.341  0.00  0.00    +0.217 C 
ATOM      9  O   UNL     1       0.818  -4.838   1.505  0.00  0.00    -0.276 OA
ATOM     10  N   UNL     1      -0.365  -1.296  -2.991  0.00  0.00    -0.158 NA
ATOM     11  N   UNL     1      -0.084  -0.210  -2.462  0.00  0.00    -0.180 NA
ENDROOT
BRANCH   1  13
ATOM     12  C   UNL     1      -0.019   1.526   0.010  0.00  0.00    +0.006 C 
ATOM     13  C   UNL     1       0.002  -0.004   0.002  0.00  0.00    +0.030 C 
ENDBRANCH   1  13
BRANCH   8  14
ATOM     14  C   UNL     1       0.321  -6.571  -0.018  0.00  0.00    +0.107 C 
BRANCH  14  15
ATOM     15  C   UNL     1       0.020  -7.356   1.260  0.00  0.00    +0.081 C 
BRANCH  15  16
ATOM     16  S   UNL     1      -0.502  -9.038   0.828  0.00  0.00    -0.126 S 
BRANCH  16  17
ATOM     17  C   UNL     1      -0.817  -9.826   2.431  0.00  0.00    +0.183 C 
ATOM     18  N   UNL     1      -1.835  -9.059   3.185  0.00  0.00    -0.323 NA
ATOM     19  N   UNL     1      -1.376  -9.127   4.581  0.00  0.00    +0.409 N 
ATOM     20  N   UNL     1       0.086  -9.030   4.458  0.00  0.00    -0.280 NA
ATOM     21  N   UNL     1       0.409  -9.806   3.256  0.00  0.00    -0.234 NA
ATOM     22  C   UNL     1       0.831 -11.169   3.606  0.00  0.00    +0.124 C 
ATOM     23  H   UNL     1      -1.879  -8.103   2.864  0.00  0.00    +0.106 HD
ATOM     24  H   UNL     1      -1.741  -8.351   5.114  0.00  0.00    -0.032 HD
ATOM     25  H   UNL     1       0.544  -9.415   5.271  0.00  0.00    +0.121 HD
ATOM     26  H   UNL     1      -1.641 -10.005   5.001  0.00  0.00    -0.032 HD
ENDBRANCH  16  17
ENDBRANCH  15  16
ENDBRANCH  14  15
ENDBRANCH   8  14
TORSDOF 5
