REMARK  Name = ZINC63203332
REMARK  10 active torsions:
REMARK  status: ('A' for Active; 'I' for Inactive)
REMARK    1  A    between atoms: C_1  and  C_2
REMARK    2  A    between atoms: C_6  and  C_34
REMARK    3  A    between atoms: C_7  and  N_8
REMARK    4  A    between atoms: C_9  and  C_11
REMARK    5  A    between atoms: C_11  and  C_13
REMARK    6  A    between atoms: C_11  and  N_23
REMARK    7  A    between atoms: C_13  and  C_14
REMARK    8  A    between atoms: C_24  and  O_26
REMARK    9  A    between atoms: O_26  and  C_27
REMARK   10  A    between atoms: C_27  and  C_28
REMARK                            x       y       z     vdW  Elec       q    Type
REMARK                         _______ _______ _______ _____ _____    ______ ____
ROOT
ATOM      1  C   UNL     1      -0.394  -0.007   4.886  0.00  0.00    +0.166 C 
ENDROOT
BRANCH   1   3
ATOM      2  N   UNL     1      -0.198  -0.037   2.420  0.00  0.00    -0.283 N 
ATOM      3  C   UNL     1      -0.388  -0.727   3.562  0.00  0.00    +0.238 C 
ATOM      4  O   UNL     1      -0.555  -1.928   3.524  0.00  0.00    -0.273 OA
ATOM      5  H   UNL     1      -0.117   0.929   2.445  0.00  0.00    +0.155 HD
BRANCH   2  12
ATOM      6  C   UNL     1       1.717  -2.127   2.165  0.00  0.00    +0.045 C 
ATOM      7  C   UNL     1       0.802  -1.741   1.031  0.00  0.00    -0.029 A 
ATOM      8  C   UNL     1       0.875  -2.412  -0.174  0.00  0.00    +0.005 A 
ATOM      9  C   UNL     1       0.037  -2.058  -1.215  0.00  0.00    +0.001 A 
ATOM     10  C   UNL     1      -0.877  -1.033  -1.054  0.00  0.00    +0.005 A 
ATOM     11  C   UNL     1      -0.955  -0.358   0.149  0.00  0.00    -0.029 A 
ATOM     12  C   UNL     1      -0.118  -0.715   1.198  0.00  0.00    +0.039 A 
ATOM     13  C   UNL     1      -1.950   0.759   0.324  0.00  0.00    +0.045 C 
ENDBRANCH   2  12
ENDBRANCH   1   3
BRANCH   1  14
ATOM     14  N   UNL     1      -0.618  -0.972   5.966  0.00  0.00    -0.269 N 
ATOM     15  C   UNL     1      -1.873  -1.328   6.301  0.00  0.00    +0.401 C 
ATOM     16  O   UNL     1      -2.820  -0.850   5.708  0.00  0.00    -0.226 OA
ATOM     17  H   UNL     1       0.138  -1.353   6.439  0.00  0.00    +0.153 HD
BRANCH  15  18
ATOM     18  O   UNL     1      -2.079  -2.215   7.293  0.00  0.00    -0.446 OA
BRANCH  18  19
ATOM     19  C   UNL     1      -3.436  -2.547   7.596  0.00  0.00    +0.269 C 
BRANCH  19  20
ATOM     20  C   UNL     1      -3.469  -3.545   8.724  0.00  0.00    -0.010 A 
ATOM     21  C   UNL     1      -3.435  -4.900   8.450  0.00  0.00    +0.007 A 
ATOM     22  C   UNL     1      -3.466  -5.815   9.485  0.00  0.00    +0.000 A 
ATOM     23  C   UNL     1      -3.530  -5.376  10.794  0.00  0.00    +0.000 A 
ATOM     24  C   UNL     1      -3.562  -4.022  11.069  0.00  0.00    +0.000 A 
ATOM     25  C   UNL     1      -3.527  -3.106  10.034  0.00  0.00    +0.007 A 
ENDBRANCH  19  20
ENDBRANCH  18  19
ENDBRANCH  15  18
ENDBRANCH   1  14
BRANCH   1  26
ATOM     26  C   UNL     1       0.953   0.688   5.094  0.00  0.00    +0.065 C 
BRANCH  26  27
ATOM     27  C   UNL     1       0.905   1.508   6.357  0.00  0.00    -0.039 C 
ATOM     28  C   UNL     1       1.324   1.132   7.587  0.00  0.00    -0.001 A 
ATOM     29  C   UNL     1       1.925  -0.106   8.098  0.00  0.00    +0.010 A 
ATOM     30  C   UNL     1       2.245  -0.188   9.409  0.00  0.00    +0.001 A 
ATOM     31  C   UNL     1       2.016   0.877  10.291  0.00  0.00    +0.002 A 
ATOM     32  C   UNL     1       1.468   2.046   9.897  0.00  0.00    +0.026 A 
ATOM     33  C   UNL     1       1.094   2.242   8.539  0.00  0.00    +0.043 A 
ATOM     34  N   UNL     1       0.554   3.265   7.922  0.00  0.00    -0.380 N 
ATOM     35  C   UNL     1       0.386   2.921   6.505  0.00  0.00    +0.144 C 
ATOM     36  H   UNL     1       0.310   4.109   8.332  0.00  0.00    +0.160 HD
ENDBRANCH  26  27
ENDBRANCH   1  26
TORSDOF 8
