REMARK  Name = ZINC58644072
REMARK  7 active torsions:
REMARK  status: ('A' for Active; 'I' for Inactive)
REMARK    1  A    between atoms: C_1  and  N_2
REMARK    2  A    between atoms: C_6  and  C_8
REMARK    3  A    between atoms: C_8  and  C_9
REMARK    4  A    between atoms: C_9  and  N_10
REMARK    5  A    between atoms: N_13  and  C_16
REMARK    6  A    between atoms: C_16  and  C_17
REMARK    7  A    between atoms: C_16  and  C_24
REMARK                            x       y       z     vdW  Elec       q    Type
REMARK                         _______ _______ _______ _____ _____    ______ ____
ROOT
ATOM      1  N   UNL     1       2.005  -6.177   3.221  0.00  0.00    +0.382 N 
ATOM      2  C   UNL     1       0.633  -6.686   3.350  0.00  0.00    -0.063 C 
ATOM      3  C   UNL     1       0.652  -8.215   3.323  0.00  0.00    +0.067 C 
ATOM      4  N   UNL     1       1.483  -8.712   4.428  0.00  0.00    -0.295 NA
ATOM      5  C   UNL     1       2.854  -8.191   4.326  0.00  0.00    +0.067 C 
ATOM      6  C   UNL     1       2.817  -6.661   4.345  0.00  0.00    -0.063 C 
ATOM      7  H   UNL     1       2.404  -6.503   2.353  0.00  0.00    -0.082 HD
ENDROOT
BRANCH   1   8
ATOM      8  C   UNL     1       1.985  -4.708   3.229  0.00  0.00    -0.069 C 
BRANCH   8   9
ATOM      9  C   UNL     1       1.245  -4.201   1.989  0.00  0.00    +0.078 C 
BRANCH   9  15
ATOM     10  C   UNL     1      -0.018   1.461   0.010  0.00  0.00    +0.129 C 
ATOM     11  N   UNL     1       0.002  -0.004   0.002  0.00  0.00    -0.302 N 
ATOM     12  C   UNL     1       0.604  -0.675   1.004  0.00  0.00    +0.306 C 
ATOM     13  O   UNL     1       1.131  -0.066   1.913  0.00  0.00    -0.252 OA
ATOM     14  N   UNL     1       0.623  -2.023   0.996  0.00  0.00    -0.240 N 
ATOM     15  C   UNL     1       1.225  -2.694   1.998  0.00  0.00    +0.219 C 
ATOM     16  O   UNL     1       1.750  -2.086   2.905  0.00  0.00    -0.275 OA
ATOM     17  H   UNL     1      -0.418  -0.491  -0.724  0.00  0.00    +0.150 HD
ATOM     18  H   UNL     1       0.202  -2.510   0.270  0.00  0.00    +0.159 HD
ENDBRANCH   9  15
ENDBRANCH   8   9
ENDBRANCH   1   8
BRANCH   4  19
ATOM     19  C   UNL     1       1.480 -10.181   4.471  0.00  0.00    +0.117 C 
BRANCH  19  20
ATOM     20  C   UNL     1       2.341 -10.652   5.614  0.00  0.00    -0.026 A 
ATOM     21  C   UNL     1       2.307  -9.986   6.825  0.00  0.00    +0.008 A 
ATOM     22  C   UNL     1       3.095 -10.418   7.874  0.00  0.00    +0.038 A 
ATOM     23  C   UNL     1       3.920 -11.518   7.713  0.00  0.00    +0.123 A 
ATOM     24  C   UNL     1       3.954 -12.184   6.500  0.00  0.00    +0.038 A 
ATOM     25  C   UNL     1       3.160 -11.754   5.453  0.00  0.00    +0.008 A 
ATOM     26  F   UNL     1       4.692 -11.941   8.738  0.00  0.00    -0.205 F 
ENDBRANCH  19  20
BRANCH  19  27
ATOM     27  C   UNL     1       0.070 -10.675   4.666  0.00  0.00    -0.026 A 
ATOM     28  C   UNL     1      -0.781 -10.010   5.529  0.00  0.00    +0.008 A 
ATOM     29  C   UNL     1      -2.075 -10.462   5.710  0.00  0.00    +0.038 A 
ATOM     30  C   UNL     1      -2.518 -11.581   5.025  0.00  0.00    +0.123 A 
ATOM     31  C   UNL     1      -1.665 -12.246   4.161  0.00  0.00    +0.038 A 
ATOM     32  C   UNL     1      -0.373 -11.789   3.979  0.00  0.00    +0.008 A 
ATOM     33  F   UNL     1      -3.782 -12.024   5.201  0.00  0.00    -0.205 F 
ENDBRANCH  19  27
ENDBRANCH   4  19
TORSDOF 6
