REMARK  Name = ZINC05277331
REMARK  8 active torsions:
REMARK  status: ('A' for Active; 'I' for Inactive)
REMARK    1  A    between atoms: C_1  and  C_2
REMARK    2  A    between atoms: C_5  and  C_8
REMARK    3  A    between atoms: N_10  and  C_11
REMARK    4  A    between atoms: C_11  and  C_13
REMARK    5  A    between atoms: C_11  and  N_39
REMARK    6  A    between atoms: C_17  and  C_18
REMARK    7  A    between atoms: C_18  and  C_19
REMARK    8  A    between atoms: C_18  and  C_20
REMARK                            x       y       z     vdW  Elec       q    Type
REMARK                         _______ _______ _______ _____ _____    ______ ____
ROOT
ATOM      1  C   UNL     1       0.048   0.987  -0.296  0.00  0.00    +0.220 C 
ENDROOT
BRANCH   1   6
ATOM      2  C   UNL     1      -1.809   2.517  -0.778  0.00  0.00    +0.069 C 
ATOM      3  N   UNL     1      -2.066   2.659   0.560  0.00  0.00    -0.348 N 
ATOM      4  H   UNL     1      -1.399   2.393   1.213  0.00  0.00    +0.143 HD
ATOM      5  H   UNL     1      -2.914   3.026   0.854  0.00  0.00    +0.143 HD
ATOM      6  N   UNL     1      -0.782   1.812  -1.240  0.00  0.00    -0.355 N 
ATOM      7  H   UNL     1      -0.555   1.830  -2.241  0.00  0.00    +0.162 HD
BRANCH   2   8
ATOM      8  C   UNL     1      -2.703   3.182  -1.792  0.00  0.00    +0.044 C 
ATOM      9  C   UNL     1      -1.922   3.414  -3.087  0.00  0.00    +0.015 C 
ATOM     10  C   UNL     1      -3.908   2.283  -2.078  0.00  0.00    +0.015 C 
ENDBRANCH   2   8
ENDBRANCH   1   6
BRANCH   1  13
ATOM     11  C   UNL     1      -0.595  -1.362  -0.210  0.00  0.00    +0.246 C 
ATOM     12  O   UNL     1      -1.271  -1.111   0.768  0.00  0.00    -0.270 OA
ATOM     13  N   UNL     1       0.104  -0.382  -0.817  0.00  0.00    -0.288 N 
ATOM     14  H   UNL     1       0.643  -0.582  -1.597  0.00  0.00    +0.151 HD
BRANCH  11  19
ATOM     15  C   UNL     1      -0.378  -6.737  -2.255  0.00  0.00    +0.044 C 
ATOM     16  C   UNL     1      -0.435  -5.330  -1.719  0.00  0.00    -0.050 A 
ATOM     17  C   UNL     1      -1.204  -5.047  -0.605  0.00  0.00    +0.004 A 
ATOM     18  C   UNL     1      -1.261  -3.760  -0.110  0.00  0.00    +0.013 A 
ATOM     19  C   UNL     1      -0.539  -2.743  -0.735  0.00  0.00    +0.037 A 
ATOM     20  C   UNL     1       0.232  -3.034  -1.862  0.00  0.00    +0.013 A 
ATOM     21  C   UNL     1       0.284  -4.325  -2.344  0.00  0.00    +0.004 A 
ENDBRANCH  11  19
ENDBRANCH   1  13
BRANCH   1  22
ATOM     22  C   UNL     1       1.461   1.573  -0.252  0.00  0.00    +0.227 C 
ATOM     23 CL   UNL     1       2.158   1.590  -1.914  0.00  0.00    -0.079 Cl
ATOM     24 CL   UNL     1       1.392   3.257   0.389  0.00  0.00    -0.079 Cl
ATOM     25 CL   UNL     1       2.497   0.563   0.824  0.00  0.00    -0.079 Cl
ENDBRANCH   1  22
TORSDOF 5
