REMARK  Name = ZINC08453928
REMARK  5 active torsions:
REMARK  status: ('A' for Active; 'I' for Inactive)
REMARK    1  A    between atoms: C_1  and  C_2
REMARK    2  A    between atoms: C_18  and  C_19
REMARK    3  A    between atoms: C_18  and  N_52
REMARK    4  A    between atoms: C_19  and  C_22
REMARK    5  A    between atoms: N_20  and  O_21
REMARK                            x       y       z     vdW  Elec       q    Type
REMARK                         _______ _______ _______ _____ _____    ______ ____
ROOT
ATOM      1  C   UNL     1      -2.189   9.158  -1.072  0.00  0.00    +0.044 C 
ATOM      2  C   UNL     1      -1.696   7.857  -1.653  0.00  0.00    -0.050 A 
ATOM      3  C   UNL     1      -1.251   7.834  -2.965  0.00  0.00    +0.005 A 
ATOM      4  C   UNL     1      -0.783   6.679  -3.564  0.00  0.00    +0.026 A 
ATOM      5  C   UNL     1      -0.774   5.519  -2.792  0.00  0.00    +0.049 A 
ATOM      6  C   UNL     1      -1.238   5.546  -1.442  0.00  0.00    +0.003 A 
ATOM      7  C   UNL     1      -1.703   6.733  -0.866  0.00  0.00    +0.013 A 
ATOM      8  C   UNL     1      -1.098   4.204  -0.947  0.00  0.00    -0.020 A 
ATOM      9  C   UNL     1      -0.616   3.467  -1.967  0.00  0.00    +0.009 A 
ATOM     10  N   UNL     1      -0.383   4.244  -3.068  0.00  0.00    -0.347 N 
ATOM     11  C   UNL     1       0.208   3.676  -4.290  0.00  0.00    +0.103 C 
ATOM     12  C   UNL     1       0.094   2.149  -4.209  0.00  0.00    -0.056 C 
ATOM     13  C   UNL     1      -0.349   1.985  -1.829  0.00  0.00    -0.020 C 
ATOM     14  C   UNL     1       0.297   1.743  -0.475  0.00  0.00    -0.009 C 
ATOM     15  C   UNL     1      -0.236   2.560   0.676  0.00  0.00    +0.003 C 
ATOM     16  C   UNL     1      -1.364   3.534   0.372  0.00  0.00    +0.037 C 
ATOM     17  N   UNL     1       0.611   1.658  -2.915  0.00  0.00    +0.390 N 
ATOM     18  H   UNL     1       1.508   2.118  -2.718  0.00  0.00    -0.080 HD
ENDROOT
BRANCH  17  19
ATOM     19  C   UNL     1       0.824   0.196  -2.977  0.00  0.00    -0.017 C 
BRANCH  19  20
ATOM     20  C   UNL     1      -0.461  -0.510  -3.326  0.00  0.00    +0.071 C 
ATOM     21  N   UNL     1      -1.546   0.172  -3.501  0.00  0.00    -0.093 NA
BRANCH  20  22
ATOM     22  C   UNL     1      -0.482  -1.979  -3.467  0.00  0.00    -0.002 A 
ATOM     23  C   UNL     1      -1.587  -2.710  -3.028  0.00  0.00    +0.011 A 
ATOM     24  C   UNL     1      -1.603  -4.082  -3.168  0.00  0.00    +0.016 A 
ATOM     25  C   UNL     1      -0.520  -4.736  -3.732  0.00  0.00    +0.018 A 
ATOM     26  C   UNL     1       0.581  -4.017  -4.164  0.00  0.00    +0.016 A 
ATOM     27  C   UNL     1       0.607  -2.644  -4.035  0.00  0.00    +0.011 A 
ATOM     28 BR   UNL     1      -0.547  -6.618  -3.912  0.00  0.00    -0.050 Br
ENDBRANCH  20  22
BRANCH  21  29
ATOM     29  O   UNL     1      -2.719  -0.471  -3.964  0.00  0.00    -0.409 OA
ATOM     30  H   UNL     1      -3.478   0.120  -4.065  0.00  0.00    +0.328 HD
ENDBRANCH  21  29
ENDBRANCH  19  20
ENDBRANCH  17  19
TORSDOF 4
