REMARK  Name = ZINC63870540
REMARK  2 active torsions:
REMARK  status: ('A' for Active; 'I' for Inactive)
REMARK    1  A    between atoms: C_4  and  C_8
REMARK    2  A    between atoms: C_8  and  N_9
REMARK                            x       y       z     vdW  Elec       q    Type
REMARK                         _______ _______ _______ _____ _____    ______ ____
ROOT
ATOM      1  N   UNL     1       4.155  -0.953   1.337  0.00  0.00    -0.324 N 
ATOM      2  C   UNL     1       5.336  -1.613   1.572  0.00  0.00    +0.131 C 
ATOM      3  N   UNL     1       6.143  -2.057   0.600  0.00  0.00    -0.201 NA
ATOM      4  C   UNL     1       7.290  -2.690   0.890  0.00  0.00    +0.190 C 
ATOM      5  N   UNL     1       7.625  -3.211   2.042  0.00  0.00    -0.331 N 
ATOM      6  C   UNL     1       6.671  -3.175   3.150  0.00  0.00    +0.258 C 
ATOM      7  C   UNL     1       5.851  -1.900   2.913  0.00  0.00    +0.058 C 
ATOM      8  C   UNL     1       5.837  -1.293   4.091  0.00  0.00    +0.145 C 
ATOM      9  N   UNL     1       6.737  -1.882   4.919  0.00  0.00    -0.160 NA
ATOM     10  N   UNL     1       7.266  -2.936   4.461  0.00  0.00    -0.157 NA
ATOM     11  N   UNL     1       8.210  -2.805  -0.133  0.00  0.00    -0.329 N 
ATOM     12  H   UNL     1       3.613  -0.649   2.082  0.00  0.00    +0.148 HD
ATOM     13  H   UNL     1       8.011  -2.436  -1.008  0.00  0.00    +0.145 HD
ATOM     14  H   UNL     1       9.056  -3.253   0.024  0.00  0.00    +0.145 HD
ATOM     15  H   UNL     1       8.498  -3.616   2.161  0.00  0.00    +0.165 HD
ENDROOT
BRANCH   1  16
ATOM     16  C   UNL     1       3.715  -0.707  -0.038  0.00  0.00    +0.144 C 
BRANCH  16  20
ATOM     17  C   UNL     1      -0.017   1.378   0.010  0.00  0.00    +0.006 A 
ATOM     18  C   UNL     1       1.170   2.086   0.002  0.00  0.00    +0.039 A 
ATOM     19  C   UNL     1       2.379   1.412  -0.013  0.00  0.00    +0.131 A 
ATOM     20  C   UNL     1       2.399   0.028  -0.021  0.00  0.00    +0.040 A 
ATOM     21  C   UNL     1       1.210  -0.681  -0.013  0.00  0.00    +0.131 A 
ATOM     22  C   UNL     1       0.002  -0.004   0.002  0.00  0.00    +0.039 A 
ATOM     23  F   UNL     1       1.228  -2.031  -0.020  0.00  0.00    -0.205 F 
ATOM     24  F   UNL     1       3.539   2.104  -0.022  0.00  0.00    -0.205 F 
ENDBRANCH  16  20
ENDBRANCH   1  16
TORSDOF 2
