REMARK  Name = ZINC52094623
REMARK  6 active torsions:
REMARK  status: ('A' for Active; 'I' for Inactive)
REMARK    1  A    between atoms: C_1  and  C_2
REMARK    2  A    between atoms: C_2  and  N_3
REMARK    3  A    between atoms: N_3  and  C_4
REMARK    4  A    between atoms: C_4  and  C_6
REMARK    5  A    between atoms: C_4  and  C_11
REMARK    6  A    between atoms: C_6  and  C_7
REMARK                            x       y       z     vdW  Elec       q    Type
REMARK                         _______ _______ _______ _____ _____    ______ ____
ROOT
ATOM      1  C   UNL     1      -2.772  -2.770  -0.268  0.00  0.00    -0.045 A 
ATOM      2  C   UNL     1      -3.859  -1.919  -0.244  0.00  0.00    +0.031 A 
ATOM      3  C   UNL     1      -5.135  -2.422  -0.446  0.00  0.00    +0.067 A 
ATOM      4  C   UNL     1      -5.316  -3.788  -0.673  0.00  0.00    +0.068 A 
ATOM      5  C   UNL     1      -4.220  -4.636  -0.696  0.00  0.00    +0.043 A 
ATOM      6  C   UNL     1      -2.951  -4.124  -0.498  0.00  0.00    +0.022 A 
ATOM      7 BR   UNL     1      -1.454  -5.279  -0.537  0.00  0.00    -0.050 Br
ATOM      8  N   UNL     1      -6.684  -3.990  -0.839  0.00  0.00    -0.306 N 
ATOM      9  H   UNL     1      -7.115  -4.842  -1.011  0.00  0.00    +0.170 HD
ATOM     10  C   UNL     1      -7.307  -2.803  -0.718  0.00  0.00    +0.325 A 
ATOM     11  O   UNL     1      -8.508  -2.629  -0.808  0.00  0.00    -0.247 OA
ATOM     12  N   UNL     1      -6.399  -1.837  -0.481  0.00  0.00    -0.306 N 
ATOM     13  H   UNL     1      -6.592  -0.895  -0.355  0.00  0.00    +0.170 HD
ENDROOT
BRANCH   1  14
ATOM     14  C   UNL     1      -1.385  -2.223  -0.048  0.00  0.00    -0.031 C 
BRANCH  14  15
ATOM     15  N   UNL     1      -1.384  -0.776  -0.301  0.00  0.00    +0.384 N 
ATOM     16  H   UNL     1      -0.478  -0.396  -0.072  0.00  0.00    -0.085 HD
ATOM     17  H   UNL     1      -2.089  -0.334   0.270  0.00  0.00    -0.085 HD
BRANCH  15  19
ATOM     18  C   UNL     1      -1.793   0.979  -1.959  0.00  0.00    -0.017 C 
ATOM     19  C   UNL     1      -1.675  -0.527  -1.719  0.00  0.00    -0.085 C 
ENDBRANCH  15  19
ENDBRANCH  14  15
BRANCH  14  20
ATOM     20  C   UNL     1      -0.956  -2.489   1.396  0.00  0.00    +0.102 C 
BRANCH  20  21
ATOM     21  C   UNL     1       0.503  -2.065   1.580  0.00  0.00    +0.389 C 
ATOM     22  F   UNL     1       0.608  -0.678   1.433  0.00  0.00    -0.171 F 
ATOM     23  F   UNL     1       0.938  -2.432   2.858  0.00  0.00    -0.171 F 
ATOM     24  F   UNL     1       1.298  -2.698   0.618  0.00  0.00    -0.171 F 
ENDBRANCH  20  21
ENDBRANCH  14  20
ENDBRANCH   1  14
TORSDOF 5
