REMARK  Name = ZINC13981386
REMARK  9 active torsions:
REMARK  status: ('A' for Active; 'I' for Inactive)
REMARK    1  A    between atoms: C_1  and  C_2
REMARK    2  A    between atoms: C_2  and  C_4
REMARK    3  A    between atoms: C_2  and  O_22
REMARK    4  A    between atoms: N_6  and  N_7
REMARK    5  A    between atoms: N_7  and  C_8
REMARK    6  A    between atoms: C_8  and  N_10
REMARK    7  A    between atoms: C_11  and  C_13
REMARK    8  A    between atoms: C_14  and  C_15
REMARK    9  A    between atoms: O_22  and  C_23
REMARK                            x       y       z     vdW  Elec       q    Type
REMARK                         _______ _______ _______ _____ _____    ______ ____
ROOT
ATOM      1  N   UNL     1      -0.030   1.397  -0.505  0.00  0.00    -0.245 N 
ATOM      2  H   UNL     1      -0.857   1.888  -0.633  0.00  0.00    +0.172 HD
ENDROOT
BRANCH   1   5
ATOM      3  C   UNL     1       1.171   3.435  -0.234  0.00  0.00    +0.270 C 
ATOM      4  O   UNL     1       0.136   4.049  -0.389  0.00  0.00    -0.270 OA
ATOM      5  N   UNL     1       1.168   2.088  -0.280  0.00  0.00    -0.232 N 
ATOM      6  H   UNL     1       1.995   1.597  -0.156  0.00  0.00    +0.173 HD
BRANCH   3   8
ATOM      7  C   UNL     1       3.413   3.942  -1.164  0.00  0.00    +0.062 C 
ATOM      8  C   UNL     1       2.459   4.178   0.009  0.00  0.00    +0.257 C 
BRANCH   8   9
ATOM      9  O   UNL     1       2.188   5.575   0.129  0.00  0.00    -0.478 OA
BRANCH   9  10
ATOM     10  C   UNL     1       3.078   6.319   0.838  0.00  0.00    +0.140 A 
ATOM     11  C   UNL     1       4.245   5.739   1.311  0.00  0.00    +0.048 A 
ATOM     12  C   UNL     1       5.151   6.496   2.028  0.00  0.00    +0.023 A 
ATOM     13  C   UNL     1       4.890   7.831   2.283  0.00  0.00    +0.043 A 
ATOM     14  C   UNL     1       3.723   8.411   1.817  0.00  0.00    +0.043 A 
ATOM     15  C   UNL     1       2.817   7.657   1.095  0.00  0.00    +0.084 A 
ATOM     16 CL   UNL     1       1.353   8.385   0.510  0.00  0.00    -0.080 Cl
ATOM     17 CL   UNL     1       6.027   8.779   3.190  0.00  0.00    -0.083 Cl
ENDBRANCH   9  10
ENDBRANCH   8   9
ENDBRANCH   3   8
ENDBRANCH   1   5
BRANCH   1  18
ATOM     18  C   UNL     1      -0.033   0.050  -0.551  0.00  0.00    +0.153 C 
ATOM     19  S   UNL     1      -1.497  -0.794  -0.827  0.00  0.00    -0.017 S 
BRANCH  18  20
ATOM     20  N   UNL     1       1.116  -0.633  -0.379  0.00  0.00    -0.263 N 
ATOM     21  C   UNL     1       1.114  -1.980  -0.424  0.00  0.00    +0.242 C 
ATOM     22  O   UNL     1       0.073  -2.579  -0.620  0.00  0.00    -0.270 OA
ATOM     23  H   UNL     1       1.946  -0.154  -0.223  0.00  0.00    +0.157 HD
BRANCH  21  24
ATOM     24  C   UNL     1       2.361  -2.720  -0.238  0.00  0.00    +0.068 C 
ATOM     25  C   UNL     1       2.358  -4.069  -0.283  0.00  0.00    +0.014 C 
BRANCH  25  26
ATOM     26  C   UNL     1       3.613  -4.814  -0.095  0.00  0.00    -0.007 A 
ATOM     27  C   UNL     1       4.811  -4.128   0.130  0.00  0.00    +0.009 A 
ATOM     28  C   UNL     1       5.982  -4.833   0.305  0.00  0.00    +0.001 A 
ATOM     29  C   UNL     1       5.976  -6.217   0.259  0.00  0.00    +0.001 A 
ATOM     30  C   UNL     1       4.796  -6.904   0.035  0.00  0.00    +0.020 A 
ATOM     31  C   UNL     1       3.613  -6.213  -0.136  0.00  0.00    +0.048 A 
ATOM     32 CL   UNL     1       2.132  -7.077  -0.408  0.00  0.00    -0.083 Cl
ENDBRANCH  25  26
ENDBRANCH  21  24
ENDBRANCH  18  20
ENDBRANCH   1  18
TORSDOF 8
