REMARK  Name = ZINC50593906
REMARK  2 active torsions:
REMARK  status: ('A' for Active; 'I' for Inactive)
REMARK    1  A    between atoms: C_1  and  C_2
REMARK    2  A    between atoms: C_4  and  C_14
REMARK                            x       y       z     vdW  Elec       q    Type
REMARK                         _______ _______ _______ _____ _____    ______ ____
ROOT
ATOM      1  C   UNL     1      -0.018   1.503   0.010  0.00  0.00    +0.069 C 
ATOM      2  C   UNL     1       0.002  -0.004   0.002  0.00  0.00    +0.075 A 
ATOM      3  C   UNL     1       0.008  -0.817  -1.138  0.00  0.00    +0.062 A 
ATOM      4  C   UNL     1       0.027  -2.107  -0.731  0.00  0.00    +0.058 A 
ATOM      5  N   UNL     1       0.034  -2.108   0.629  0.00  0.00    -0.217 N 
ATOM      6  N   UNL     1       0.023  -0.775   1.058  0.00  0.00    -0.169 NA
ATOM      7  C   UNL     1       0.052  -3.237   1.450  0.00  0.00    +0.159 A 
ATOM      8  C   UNL     1       0.559  -3.160   2.746  0.00  0.00    +0.088 A 
ATOM      9  C   UNL     1       0.557  -4.307   3.521  0.00  0.00    +0.134 A 
ATOM     10  N   UNL     1       0.075  -5.432   3.009  0.00  0.00    -0.224 NA
ATOM     11  C   UNL     1      -0.397  -5.469   1.780  0.00  0.00    +0.225 A 
ATOM     12  N   UNL     1      -0.417  -4.399   1.010  0.00  0.00    -0.217 NA
ATOM     13 CL   UNL     1       1.176  -4.274   5.143  0.00  0.00    -0.062 Cl
ATOM     14  C   UNL     1       0.039  -3.322  -1.622  0.00  0.00    +0.067 C 
ATOM     15 BR   UNL     1      -0.009  -0.218  -2.932  0.00  0.00    -0.047 Br
ENDROOT
TORSDOF 0
