REMARK  Name = ZINC18155307
REMARK  4 active torsions:
REMARK  status: ('A' for Active; 'I' for Inactive)
REMARK    1  A    between atoms: C_4  and  N_7
REMARK    2  A    between atoms: C_12  and  C_30
REMARK    3  A    between atoms: C_30  and  C_31
REMARK    4  A    between atoms: C_34  and  O_37
REMARK                            x       y       z     vdW  Elec       q    Type
REMARK                         _______ _______ _______ _____ _____    ______ ____
ROOT
ATOM      1  N   UNL     1       3.624  -0.652  -0.037  0.00  0.00    -0.210 N 
ATOM      2  C   UNL     1       4.801  -0.025  -0.139  0.00  0.00    +0.232 C 
ATOM      3  O   UNL     1       4.950   1.175  -0.226  0.00  0.00    -0.274 OA
ATOM      4  C   UNL     1       5.917  -1.045  -0.127  0.00  0.00    +0.108 C 
ATOM      5  C   UNL     1       6.585  -1.080  -1.518  0.00  0.00    +0.072 C 
ATOM      6  N   UNL     1       6.716  -2.526  -1.841  0.00  0.00    -0.295 NA
ATOM      7  C   UNL     1       5.467  -3.123  -1.329  0.00  0.00    +0.136 C 
ATOM      8  C   UNL     1       5.163  -2.398   0.004  0.00  0.00    +0.123 C 
ATOM      9  C   UNL     1       3.710  -1.984   0.053  0.00  0.00    +0.233 C 
ATOM     10  O   UNL     1       2.769  -2.742   0.154  0.00  0.00    -0.274 OA
ATOM     11  C   UNL     1       4.345  -2.977  -2.317  0.00  0.00    +0.006 A 
ATOM     12  C   UNL     1       3.735  -1.891  -2.905  0.00  0.00    +0.046 A 
ATOM     13  C   UNL     1       2.698  -2.081  -3.804  0.00  0.00    +0.124 A 
ATOM     14  C   UNL     1       2.277  -3.365  -4.107  0.00  0.00    +0.040 A 
ATOM     15  C   UNL     1       2.885  -4.454  -3.518  0.00  0.00    +0.026 A 
ATOM     16  C   UNL     1       3.928  -4.271  -2.614  0.00  0.00    +0.039 A 
ATOM     17  N   UNL     1       4.689  -5.200  -1.898  0.00  0.00    -0.283 N 
ATOM     18  C   UNL     1       5.615  -4.606  -1.120  0.00  0.00    +0.243 C 
ATOM     19  O   UNL     1       6.412  -5.159  -0.393  0.00  0.00    -0.273 OA
ATOM     20  F   UNL     1       2.099  -1.017  -4.382  0.00  0.00    -0.205 F 
ATOM     21  H   UNL     1       6.803  -2.668  -2.836  0.00  0.00    +0.124 HD
ATOM     22  H   UNL     1       4.565  -6.160  -1.955  0.00  0.00    +0.155 HD
ENDROOT
BRANCH   1  26
ATOM     23  C   UNL     1      -0.016   1.380   0.011  0.00  0.00    +0.000 A 
ATOM     24  C   UNL     1       0.415   0.710   1.141  0.00  0.00    +0.002 A 
ATOM     25  C   UNL     1       1.621   0.035   1.128  0.00  0.00    +0.024 A 
ATOM     26  C   UNL     1       2.399   0.031  -0.021  0.00  0.00    +0.044 A 
ATOM     27  C   UNL     1       1.963   0.704  -1.154  0.00  0.00    +0.024 A 
ATOM     28  C   UNL     1       0.757   1.377  -1.135  0.00  0.00    +0.002 A 
ENDBRANCH   1  26
BRANCH   5  29
ATOM     29  C   UNL     1       7.964  -0.418  -1.463  0.00  0.00    +0.054 C 
BRANCH  29  30
ATOM     30  C   UNL     1       8.545  -0.354  -2.852  0.00  0.00    -0.046 A 
ATOM     31  C   UNL     1       9.316  -1.400  -3.327  0.00  0.00    +0.007 A 
ATOM     32  C   UNL     1       9.850  -1.343  -4.599  0.00  0.00    +0.045 A 
ATOM     33  C   UNL     1       9.614  -0.236  -5.401  0.00  0.00    +0.117 A 
ATOM     34  C   UNL     1       8.840   0.812  -4.923  0.00  0.00    +0.045 A 
ATOM     35  C   UNL     1       8.303   0.748  -3.651  0.00  0.00    +0.007 A 
BRANCH  33  36
ATOM     36  O   UNL     1      10.139  -0.177  -6.653  0.00  0.00    -0.507 OA
ATOM     37  H   UNL     1       9.566  -0.549  -7.338  0.00  0.00    +0.292 HD
ENDBRANCH  33  36
ENDBRANCH  29  30
ENDBRANCH   5  29
TORSDOF 4
