REMARK  Name = ZINC47042806
REMARK  5 active torsions:
REMARK  status: ('A' for Active; 'I' for Inactive)
REMARK    1  A    between atoms: C_1  and  C_2
REMARK    2  A    between atoms: C_3  and  C_7
REMARK    3  A    between atoms: N_9  and  N_10
REMARK    4  A    between atoms: N_13  and  C_14
REMARK    5  A    between atoms: C_14  and  C_15
REMARK                            x       y       z     vdW  Elec       q    Type
REMARK                         _______ _______ _______ _____ _____    ______ ____
ROOT
ATOM      1  N   UNL     1      -4.827  -0.946   0.021  0.00  0.00    -0.218 N 
ATOM      2  C   UNL     1      -5.800  -1.878   0.020  0.00  0.00    +0.316 C 
ATOM      3  O   UNL     1      -6.968  -1.538   0.028  0.00  0.00    -0.251 OA
ATOM      4  N   UNL     1      -5.479  -3.187   0.010  0.00  0.00    -0.294 N 
ATOM      5  H   UNL     1      -5.058  -0.004   0.028  0.00  0.00    +0.174 HD
ATOM      6  H   UNL     1      -4.548  -3.458   0.004  0.00  0.00    +0.151 HD
ENDROOT
BRANCH   1   9
ATOM      7  C   UNL     1      -2.508  -0.405   0.012  0.00  0.00    +0.263 C 
ATOM      8  O   UNL     1      -2.798   0.776   0.021  0.00  0.00    -0.269 OA
ATOM      9  N   UNL     1      -3.482  -1.337   0.011  0.00  0.00    -0.229 N 
ATOM     10  H   UNL     1      -3.251  -2.280   0.005  0.00  0.00    +0.173 HD
BRANCH   7  13
ATOM     11  C   UNL     1      -0.018   1.503   0.010  0.00  0.00    +0.087 C 
ATOM     12  C   UNL     1       0.002  -0.004   0.002  0.00  0.00    +0.114 A 
ATOM     13  C   UNL     1      -1.093  -0.817   0.003  0.00  0.00    +0.079 A 
ATOM     14  C   UNL     1      -0.567  -2.190  -0.008  0.00  0.00    +0.054 A 
ATOM     15  C   UNL     1       0.769  -2.073  -0.014  0.00  0.00    +0.196 A 
ATOM     16  O   UNL     1       1.097  -0.771  -0.013  0.00  0.00    -0.467 OA
ENDBRANCH   7  13
ENDBRANCH   1   9
BRANCH   4  17
ATOM     17  C   UNL     1      -6.537  -4.201   0.010  0.00  0.00    +0.141 C 
BRANCH  17  18
ATOM     18  C   UNL     1      -5.917  -5.574  -0.002  0.00  0.00    -0.022 A 
ATOM     19  C   UNL     1      -5.630  -6.204  -1.198  0.00  0.00    +0.028 A 
ATOM     20  C   UNL     1      -5.072  -7.440  -1.173  0.00  0.00    +0.055 A 
ATOM     21  S   UNL     1      -4.937  -7.748   0.580  0.00  0.00    -0.090 S 
ATOM     22  C   UNL     1      -5.628  -6.208   1.161  0.00  0.00    +0.051 A 
ATOM     23 BR   UNL     1      -4.568  -8.550  -2.619  0.00  0.00    -0.043 Br
ENDBRANCH  17  18
ENDBRANCH   4  17
TORSDOF 4
