REMARK  Name = ZINC12228356
REMARK  5 active torsions:
REMARK  status: ('A' for Active; 'I' for Inactive)
REMARK    1  A    between atoms: C_3  and  C_19
REMARK    2  A    between atoms: C_5  and  S_7
REMARK    3  A    between atoms: S_7  and  N_10
REMARK    4  A    between atoms: N_10  and  C_11
REMARK    5  A    between atoms: N_21  and  C_22
REMARK                            x       y       z     vdW  Elec       q    Type
REMARK                         _______ _______ _______ _____ _____    ______ ____
ROOT
ATOM      1  C   UNL     1      -1.512   3.580  -3.030  0.00  0.00    +0.003 A 
ATOM      2  C   UNL     1      -2.435   2.725  -3.597  0.00  0.00    +0.013 A 
ATOM      3  C   UNL     1      -2.636   1.458  -3.049  0.00  0.00    +0.039 A 
ATOM      4  C   UNL     1      -1.896   1.061  -1.933  0.00  0.00    +0.041 A 
ATOM      5  C   UNL     1      -0.981   1.927  -1.373  0.00  0.00    +0.106 A 
ATOM      6  C   UNL     1      -0.787   3.183  -1.922  0.00  0.00    +0.028 A 
ENDROOT
BRANCH   3   7
ATOM      7  C   UNL     1      -3.622   0.536  -3.652  0.00  0.00    +0.248 C 
ATOM      8  O   UNL     1      -3.795  -0.568  -3.172  0.00  0.00    -0.270 OA
ATOM      9  N   UNL     1      -4.331   0.920  -4.732  0.00  0.00    -0.279 N 
ATOM     10  H   UNL     1      -4.241   1.823  -5.075  0.00  0.00    +0.155 HD
BRANCH   9  11
ATOM     11  C   UNL     1      -5.197   0.016  -5.359  0.00  0.00    +0.069 A 
ATOM     12  C   UNL     1      -5.888  -0.922  -4.604  0.00  0.00    +0.027 A 
ATOM     13  C   UNL     1      -6.742  -1.813  -5.225  0.00  0.00    +0.022 A 
ATOM     14  C   UNL     1      -6.909  -1.773  -6.598  0.00  0.00    +0.044 A 
ATOM     15  C   UNL     1      -6.221  -0.840  -7.354  0.00  0.00    +0.060 A 
ATOM     16  C   UNL     1      -5.370   0.059  -6.738  0.00  0.00    +0.146 A 
ATOM     17  F   UNL     1      -4.703   0.974  -7.475  0.00  0.00    -0.203 F 
ATOM     18 CL   UNL     1      -7.982  -2.895  -7.373  0.00  0.00    -0.083 Cl
ENDBRANCH   9  11
ENDBRANCH   3   7
BRANCH   5  19
ATOM     19  S   UNL     1      -0.051   1.432   0.039  0.00  0.00    +0.059 S 
ATOM     20  O   UNL     1      -0.025   0.011   0.030  0.00  0.00    -0.153 OA
ATOM     21  O   UNL     1       1.134   2.215   0.041  0.00  0.00    -0.153 OA
BRANCH  19  22
ATOM     22  N   UNL     1      -0.917   1.881   1.377  0.00  0.00    -0.185 NA
ATOM     23  H   UNL     1      -0.563   2.552   1.982  0.00  0.00    +0.148 HD
BRANCH  22  24
ATOM     24  C   UNL     1      -2.218   1.265   1.649  0.00  0.00    +0.099 C 
ATOM     25  C   UNL     1      -2.034   0.092   2.626  0.00  0.00    +0.044 C 
ATOM     26  C   UNL     1      -3.438  -0.339   3.136  0.00  0.00    +0.167 C 
ATOM     27  S   UNL     1      -4.228   1.308   3.377  0.00  0.00    -0.029 S 
ATOM     28  O   UNL     1      -4.024   1.728   4.719  0.00  0.00    -0.174 OA
ATOM     29  O   UNL     1      -5.547   1.271   2.849  0.00  0.00    -0.174 OA
ATOM     30  C   UNL     1      -3.168   2.320   2.265  0.00  0.00    +0.186 C 
ENDBRANCH  22  24
ENDBRANCH  19  22
ENDBRANCH   5  19
TORSDOF 5
