REMARK  Name = ZINC09591576
REMARK  10 active torsions:
REMARK  status: ('A' for Active; 'I' for Inactive)
REMARK    1  A    between atoms: C_1  and  C_2
REMARK    2  A    between atoms: C_2  and  O_3
REMARK    3  A    between atoms: O_3  and  C_4
REMARK    4  A    between atoms: C_4  and  C_6
REMARK    5  A    between atoms: C_7  and  C_21
REMARK    6  A    between atoms: C_12  and  C_14
REMARK    7  A    between atoms: C_21  and  O_22
REMARK    8  A    between atoms: O_22  and  C_23
REMARK    9  A    between atoms: C_23  and  C_25
REMARK   10  A    between atoms: C_34  and  O_37
REMARK                            x       y       z     vdW  Elec       q    Type
REMARK                         _______ _______ _______ _____ _____    ______ ____
ROOT
ATOM      1  C   UNL     1      -4.834   1.413  -0.070  0.00  0.00    +0.081 C 
ATOM      2  C   UNL     1      -3.631   1.940   0.248  0.00  0.00    +0.061 C 
ATOM      3  N   UNL     1      -3.459   3.291   0.353  0.00  0.00    -0.269 N 
ATOM      4  C   UNL     1      -4.440   4.181   0.160  0.00  0.00    +0.304 C 
ATOM      5  O   UNL     1      -4.190   5.365   0.275  0.00  0.00    -0.252 OA
ATOM      6  N   UNL     1      -5.695   3.808  -0.158  0.00  0.00    -0.288 N 
ATOM      7  C   UNL     1      -5.986   2.371  -0.295  0.00  0.00    +0.144 C 
ATOM      8  H   UNL     1      -2.577   3.623   0.580  0.00  0.00    +0.156 HD
ATOM      9  H   UNL     1      -6.391   4.471  -0.294  0.00  0.00    +0.151 HD
ENDROOT
BRANCH   7  10
ATOM     10  C   UNL     1      -6.516   2.135  -1.686  0.00  0.00    -0.022 A 
ATOM     11  C   UNL     1      -5.960   2.804  -2.760  0.00  0.00    +0.007 A 
ATOM     12  C   UNL     1      -6.442   2.583  -4.036  0.00  0.00    +0.020 A 
ATOM     13  C   UNL     1      -7.489   1.701  -4.237  0.00  0.00    +0.041 A 
ATOM     14  C   UNL     1      -8.048   1.036  -3.161  0.00  0.00    +0.020 A 
ATOM     15  C   UNL     1      -7.562   1.253  -1.886  0.00  0.00    +0.007 A 
ATOM     16 CL   UNL     1      -8.100   1.429  -5.839  0.00  0.00    -0.084 Cl
ENDBRANCH   7  10
BRANCH   1  17
ATOM     17  C   UNL     1      -5.012   0.015  -0.184  0.00  0.00    +0.339 C 
ATOM     18  O   UNL     1      -4.053  -0.730  -0.102  0.00  0.00    -0.245 OA
BRANCH  17  19
ATOM     19  O   UNL     1      -6.246  -0.494  -0.384  0.00  0.00    -0.462 OA
BRANCH  19  21
ATOM     20  C   UNL     1      -7.816  -2.301  -0.712  0.00  0.00    +0.048 C 
ATOM     21  C   UNL     1      -6.353  -1.915  -0.489  0.00  0.00    +0.229 C 
ENDBRANCH  19  21
ENDBRANCH  17  19
ENDBRANCH   1  17
BRANCH   2  22
ATOM     22  C   UNL     1      -2.460   1.022   0.486  0.00  0.00    +0.283 C 
BRANCH  22  23
ATOM     23  O   UNL     1      -1.299   1.808   0.866  0.00  0.00    -0.458 OA
BRANCH  23  24
ATOM     24  C   UNL     1      -0.164   1.137   1.115  0.00  0.00    +0.314 C 
ATOM     25  O   UNL     1      -0.141  -0.067   1.019  0.00  0.00    -0.250 OA
BRANCH  24  26
ATOM     26  C   UNL     1       1.083   1.886   1.509  0.00  0.00    +0.071 C 
ATOM     27  C   UNL     1       1.463   2.865   0.396  0.00  0.00    +0.021 C 
ATOM     28  C   UNL     1       2.729   3.625   0.796  0.00  0.00    -0.007 C 
ATOM     29  C   UNL     1       2.472   4.399   2.091  0.00  0.00    +0.007 C 
ATOM     30  C   UNL     1       2.092   3.420   3.203  0.00  0.00    -0.007 C 
ATOM     31  C   UNL     1       0.826   2.659   2.804  0.00  0.00    +0.021 C 
ATOM     32  C   UNL     1       3.236   2.427   3.421  0.00  0.00    +0.038 C 
ATOM     33  C   UNL     1       3.493   1.653   2.127  0.00  0.00    +0.068 C 
ATOM     34  C   UNL     1       3.873   2.632   1.014  0.00  0.00    +0.038 C 
ATOM     35  C   UNL     1       2.227   0.893   1.727  0.00  0.00    +0.052 C 
BRANCH  33  36
ATOM     36  O   UNL     1       4.561   0.726   2.330  0.00  0.00    -0.389 OA
ATOM     37  H   UNL     1       5.397   1.139   2.587  0.00  0.00    +0.210 HD
ENDBRANCH  33  36
ENDBRANCH  24  26
ENDBRANCH  23  24
ENDBRANCH  22  23
ENDBRANCH   2  22
TORSDOF 9
