REMARK  Name = ZINC66870054
REMARK  7 active torsions:
REMARK  status: ('A' for Active; 'I' for Inactive)
REMARK    1  A    between atoms: C_1  and  C_2
REMARK    2  A    between atoms: C_5  and  S_8
REMARK    3  A    between atoms: S_8  and  N_11
REMARK    4  A    between atoms: N_11  and  C_12
REMARK    5  A    between atoms: C_15  and  O_18
REMARK    6  A    between atoms: C_19  and  C_21
REMARK    7  A    between atoms: C_23  and  C_26
REMARK                            x       y       z     vdW  Elec       q    Type
REMARK                         _______ _______ _______ _____ _____    ______ ____
ROOT
ATOM      1  N   UNL     1       1.710  -5.987  -0.379  0.00  0.00    -0.133 N 
ATOM      2  C   UNL     1       2.171  -6.036  -1.645  0.00  0.00    +0.308 C 
ATOM      3  O   UNL     1       3.350  -6.244  -1.856  0.00  0.00    -0.265 OA
ENDROOT
BRANCH   1   4
ATOM      4  C   UNL     1       2.560  -6.305   0.687  0.00  0.00    +0.060 A 
ATOM      5  C   UNL     1       2.947  -5.318   1.584  0.00  0.00    +0.029 A 
ATOM      6  C   UNL     1       3.785  -5.632   2.636  0.00  0.00    +0.047 A 
ATOM      7  C   UNL     1       4.240  -6.933   2.796  0.00  0.00    +0.117 A 
ATOM      8  C   UNL     1       3.854  -7.919   1.900  0.00  0.00    +0.047 A 
ATOM      9  C   UNL     1       3.011  -7.608   0.852  0.00  0.00    +0.029 A 
BRANCH   7  10
ATOM     10  O   UNL     1       5.065  -7.241   3.832  0.00  0.00    -0.507 OA
ATOM     11  H   UNL     1       4.602  -7.514   4.636  0.00  0.00    +0.292 HD
ENDBRANCH   7  10
ENDBRANCH   1   4
BRANCH   2  12
ATOM     12  C   UNL     1       1.244  -5.836  -2.775  0.00  0.00    +0.224 A 
ATOM     13  C   UNL     1       1.002  -6.720  -3.781  0.00  0.00    +0.080 A 
ATOM     14  C   UNL     1       0.059  -6.143  -4.647  0.00  0.00    +0.081 A 
ATOM     15  N   UNL     1      -0.254  -4.965  -4.185  0.00  0.00    -0.083 NA
ATOM     16  O   UNL     1       0.480  -4.748  -2.994  0.00  0.00    -0.350 OA
ATOM     17  C   UNL     1      -0.497  -6.776  -5.896  0.00  0.00    +0.069 C 
ENDBRANCH   2  12
BRANCH   1  18
ATOM     18  S   UNL     1       0.140  -5.553  -0.086  0.00  0.00    +0.081 S 
ATOM     19  O   UNL     1      -0.268  -6.263   1.075  0.00  0.00    -0.149 OA
ATOM     20  O   UNL     1      -0.549  -5.657  -1.324  0.00  0.00    -0.149 OA
BRANCH  18  25
ATOM     21  C   UNL     1       0.151   0.297   1.392  0.00  0.00    +0.044 C 
ATOM     22  C   UNL     1       0.148  -1.164   1.023  0.00  0.00    -0.050 A 
ATOM     23  C   UNL     1      -0.011  -1.543  -0.297  0.00  0.00    +0.005 A 
ATOM     24  C   UNL     1      -0.013  -2.883  -0.635  0.00  0.00    +0.029 A 
ATOM     25  C   UNL     1       0.144  -3.844   0.346  0.00  0.00    +0.109 A 
ATOM     26  C   UNL     1       0.304  -3.465   1.665  0.00  0.00    +0.029 A 
ATOM     27  C   UNL     1       0.311  -2.125   2.003  0.00  0.00    +0.005 A 
ENDBRANCH  18  25
ENDBRANCH   1  18
TORSDOF 5
