REMARK  Name = ZINC02141489
REMARK  6 active torsions:
REMARK  status: ('A' for Active; 'I' for Inactive)
REMARK    1  A    between atoms: C_4  and  O_24
REMARK    2  A    between atoms: C_5  and  C_7
REMARK    3  A    between atoms: N_8  and  N_9
REMARK    4  A    between atoms: C_10  and  C_12
REMARK    5  A    between atoms: C_12  and  N_13
REMARK    6  A    between atoms: C_14  and  C_16
REMARK                            x       y       z     vdW  Elec       q    Type
REMARK                         _______ _______ _______ _____ _____    ______ ____
ROOT
ATOM      1  N   UNL     1      -4.837   0.936   0.030  0.00  0.00    -0.206 N 
ATOM      2  C   UNL     1      -6.011   1.599   0.039  0.00  0.00    +0.249 C 
ATOM      3  O   UNL     1      -6.022   2.812   0.046  0.00  0.00    -0.272 OA
ATOM      4  H   UNL     1      -4.828  -0.034   0.025  0.00  0.00    +0.177 HD
ENDROOT
BRANCH   1   6
ATOM      5  C   UNL     1      -2.500   1.010   0.019  0.00  0.00    +0.142 C 
ATOM      6  N   UNL     1      -3.630   1.648   0.028  0.00  0.00    -0.188 NA
BRANCH   5  11
ATOM      7  C   UNL     1       1.171   1.783   0.000  0.00  0.00    +0.001 A 
ATOM      8  C   UNL     1       1.158   3.167   0.007  0.00  0.00    +0.004 A 
ATOM      9  C   UNL     1      -0.041   3.854   0.023  0.00  0.00    +0.046 A 
ATOM     10  C   UNL     1      -1.240   3.160   0.030  0.00  0.00    +0.125 A 
ATOM     11  C   UNL     1      -1.231   1.759   0.017  0.00  0.00    +0.036 A 
ATOM     12  C   UNL     1      -0.013   1.076   0.008  0.00  0.00    +0.013 A 
BRANCH  10  13
ATOM     13  O   UNL     1      -2.418   3.835   0.045  0.00  0.00    -0.506 OA
ATOM     14  H   UNL     1      -2.768   4.035  -0.834  0.00  0.00    +0.292 HD
ENDBRANCH  10  13
ENDBRANCH   5  11
ENDBRANCH   1   6
BRANCH   2  15
ATOM     15  C   UNL     1      -7.308   0.834   0.041  0.00  0.00    +0.202 C 
BRANCH  15  16
ATOM     16  N   UNL     1      -8.431   1.775   0.052  0.00  0.00    -0.303 N 
ATOM     17  C   UNL     1      -9.697   1.314   0.055  0.00  0.00    +0.245 C 
ATOM     18  O   UNL     1      -9.908   0.117   0.050  0.00  0.00    -0.270 OA
ATOM     19  H   UNL     1      -8.262   2.730   0.056  0.00  0.00    +0.150 HD
BRANCH  17  20
ATOM     20  C   UNL     1     -10.829   2.264   0.066  0.00  0.00    +0.038 A 
ATOM     21  C   UNL     1     -10.590   3.639   0.078  0.00  0.00    +0.014 A 
ATOM     22  C   UNL     1     -11.650   4.521   0.083  0.00  0.00    +0.022 A 
ATOM     23  C   UNL     1     -12.951   4.045   0.086  0.00  0.00    +0.059 A 
ATOM     24  C   UNL     1     -13.195   2.681   0.080  0.00  0.00    +0.060 A 
ATOM     25  C   UNL     1     -12.142   1.789   0.069  0.00  0.00    +0.034 A 
ATOM     26 CL   UNL     1     -14.829   2.093   0.084  0.00  0.00    -0.082 Cl
ATOM     27 CL   UNL     1     -14.280   5.162   0.099  0.00  0.00    -0.082 Cl
ENDBRANCH  17  20
ENDBRANCH  15  16
ENDBRANCH   2  15
TORSDOF 6
