REMARK  Name = ZINC20813555
REMARK  7 active torsions:
REMARK  status: ('A' for Active; 'I' for Inactive)
REMARK    1  A    between atoms: C_1  and  C_2
REMARK    2  A    between atoms: C_2  and  C_32
REMARK    3  A    between atoms: N_10  and  C_13
REMARK    4  A    between atoms: C_13  and  C_14
REMARK    5  A    between atoms: C_14  and  C_16
REMARK    6  A    between atoms: C_14  and  O_31
REMARK    7  A    between atoms: C_16  and  N_17
REMARK                            x       y       z     vdW  Elec       q    Type
REMARK                         _______ _______ _______ _____ _____    ______ ____
ROOT
ATOM      1  C   UNL     1      -1.409  -0.535   0.263  0.00  0.00    +0.148 C 
ENDROOT
BRANCH   1   2
ATOM      2  O   UNL     1      -1.864  -0.071   1.536  0.00  0.00    -0.389 OA
ATOM      3  H   UNL     1      -2.864  -0.353   1.899  0.00  0.00    +0.210 HD
ENDBRANCH   1   2
BRANCH   1   4
ATOM      4  C   UNL     1       0.002  -0.004   0.002  0.00  0.00    +0.117 C 
BRANCH   4  14
ATOM      5  C   UNL     1       0.562   8.614  -3.193  0.00  0.00    +0.024 C 
ATOM      6  C   UNL     1       1.067   7.190  -3.432  0.00  0.00    +0.035 C 
ATOM      7  C   UNL     1       2.237   6.843  -2.485  0.00  0.00    +0.132 C 
ATOM      8  N   UNL     1       1.930   5.747  -1.595  0.00  0.00    -0.366 N 
ATOM      9  C   UNL     1       0.784   5.142  -1.619  0.00  0.00    +0.131 C 
ATOM     10  S   UNL     1      -0.167   5.942  -2.896  0.00  0.00    -0.085 S 
ATOM     11  N   UNL     1       0.385   4.093  -0.824  0.00  0.00    -0.309 N 
ATOM     12  C   UNL     1       1.287   3.529   0.191  0.00  0.00    +0.122 C 
ATOM     13  C   UNL     1       1.346   2.010   0.000  0.00  0.00    +0.103 C 
ATOM     14  N   UNL     1      -0.018   1.465   0.010  0.00  0.00    -0.297 NA
ATOM     15  C   UNL     1      -0.809   1.987  -1.113  0.00  0.00    +0.103 C 
ATOM     16  C   UNL     1      -0.956   3.505  -0.967  0.00  0.00    +0.122 C 
ATOM     17  C   UNL     1       1.459   6.983  -4.897  0.00  0.00    +0.024 C 
ATOM     18  H   UNL     1       2.705   5.428  -0.883  0.00  0.00    +0.161 HD
ENDBRANCH   4  14
ENDBRANCH   1   4
BRANCH   1  19
ATOM     19  C   UNL     1      -1.388  -2.064   0.255  0.00  0.00    +0.155 C 
BRANCH  19  20
ATOM     20  N   UNL     1      -2.756  -2.572   0.386  0.00  0.00    -0.337 N 
ATOM     21  C   UNL     1      -3.604  -2.841  -0.674  0.00  0.00    +0.050 A 
ATOM     22  C   UNL     1      -3.447  -2.729  -2.052  0.00  0.00    +0.026 A 
ATOM     23  C   UNL     1      -4.481  -3.075  -2.895  0.00  0.00    +0.002 A 
ATOM     24  C   UNL     1      -5.684  -3.537  -2.383  0.00  0.00    +0.001 A 
ATOM     25  C   UNL     1      -5.859  -3.656  -1.021  0.00  0.00    +0.010 A 
ATOM     26  C   UNL     1      -4.822  -3.309  -0.158  0.00  0.00    +0.008 A 
ATOM     27  C   UNL     1      -4.680  -3.316   1.310  0.00  0.00    +0.009 A 
ATOM     28  C   UNL     1      -3.383  -2.857   1.586  0.00  0.00    +0.050 A 
ATOM     29  C   UNL     1      -2.966  -2.749   2.909  0.00  0.00    +0.027 A 
ATOM     30  C   UNL     1      -3.819  -3.103   3.933  0.00  0.00    +0.017 A 
ATOM     31  C   UNL     1      -5.098  -3.562   3.658  0.00  0.00    +0.019 A 
ATOM     32  C   UNL     1      -5.532  -3.670   2.353  0.00  0.00    +0.026 A 
ATOM     33 BR   UNL     1      -6.252  -4.042   5.077  0.00  0.00    -0.050 Br
ENDBRANCH  19  20
ENDBRANCH   1  19
TORSDOF 5
