REMARK  Name = ZINC62038738
REMARK  8 active torsions:
REMARK  status: ('A' for Active; 'I' for Inactive)
REMARK    1  A    between atoms: C_1  and  C_2
REMARK    2  A    between atoms: C_2  and  C_4
REMARK    3  A    between atoms: C_2  and  S_16
REMARK    4  A    between atoms: N_6  and  C_7
REMARK    5  A    between atoms: C_9  and  C_14
REMARK    6  A    between atoms: C_12  and  O_13
REMARK    7  A    between atoms: S_16  and  C_17
REMARK    8  A    between atoms: C_22  and  C_27
REMARK                            x       y       z     vdW  Elec       q    Type
REMARK                         _______ _______ _______ _____ _____    ______ ____
ROOT
ATOM      1  C   UNL     1       2.525  -0.005   1.247  0.00  0.00    +0.171 A 
ATOM      2  N   UNL     1       2.821   0.691   0.169  0.00  0.00    -0.185 NA
ATOM      3  C   UNL     1       4.051   1.157  -0.066  0.00  0.00    +0.283 A 
ATOM      4  O   UNL     1       4.284   1.799  -1.078  0.00  0.00    -0.265 OA
ATOM      5  C   UNL     1       5.128   0.888   0.914  0.00  0.00    +0.080 A 
ATOM      6  C   UNL     1       6.531   1.286   0.881  0.00  0.00    +0.004 A 
ATOM      7  C   UNL     1       7.336   0.918   1.907  0.00  0.00    +0.056 A 
ATOM      8  S   UNL     1       6.240   0.009   2.980  0.00  0.00    -0.078 S 
ATOM      9  C   UNL     1       4.748   0.146   2.033  0.00  0.00    +0.093 A 
ATOM     10  N   UNL     1       3.466  -0.285   2.192  0.00  0.00    -0.328 N 
ATOM     11  H   UNL     1       3.223  -0.796   2.979  0.00  0.00    +0.168 HD
ENDROOT
BRANCH   6  12
ATOM     12  C   UNL     1       7.066   2.078  -0.252  0.00  0.00    -0.016 A 
ATOM     13  C   UNL     1       6.824   1.673  -1.564  0.00  0.00    +0.010 A 
ATOM     14  C   UNL     1       7.324   2.414  -2.615  0.00  0.00    +0.020 A 
ATOM     15  C   UNL     1       8.065   3.558  -2.369  0.00  0.00    +0.041 A 
ATOM     16  C   UNL     1       8.308   3.964  -1.068  0.00  0.00    +0.020 A 
ATOM     17  C   UNL     1       7.808   3.233  -0.010  0.00  0.00    +0.010 A 
ATOM     18 CL   UNL     1       8.691   4.485  -3.697  0.00  0.00    -0.084 Cl
ENDBRANCH   6  12
BRANCH   1  19
ATOM     19  S   UNL     1       0.875  -0.581   1.476  0.00  0.00    -0.075 S 
BRANCH  19  21
ATOM     20  C   UNL     1      -0.037   1.542   0.012  0.00  0.00    +0.029 C 
ATOM     21  C   UNL     1      -0.005   0.013   0.005  0.00  0.00    +0.137 C 
BRANCH  21  22
ATOM     22  C   UNL     1      -1.414  -0.520   0.014  0.00  0.00    +0.230 C 
ATOM     23  O   UNL     1      -1.941  -0.825   1.063  0.00  0.00    -0.274 OA
ATOM     24  N   UNL     1      -2.090  -0.657  -1.144  0.00  0.00    -0.282 N 
ATOM     25  H   UNL     1      -1.694  -0.353  -1.976  0.00  0.00    +0.155 HD
BRANCH  24  26
ATOM     26  C   UNL     1      -3.365  -1.240  -1.147  0.00  0.00    +0.076 A 
ATOM     27  C   UNL     1      -4.221  -1.033  -0.082  0.00  0.00    +0.038 A 
ATOM     28  C   UNL     1      -5.494  -1.617  -0.089  0.00  0.00    +0.016 A 
ATOM     29  C   UNL     1      -5.892  -2.407  -1.174  0.00  0.00    +0.015 A 
ATOM     30  C   UNL     1      -5.033  -2.607  -2.231  0.00  0.00    +0.048 A 
ATOM     31  C   UNL     1      -3.772  -2.024  -2.228  0.00  0.00    +0.138 A 
BRANCH  31  32
ATOM     32  O   UNL     1      -2.932  -2.221  -3.276  0.00  0.00    -0.505 OA
ATOM     33  H   UNL     1      -2.362  -2.996  -3.182  0.00  0.00    +0.292 HD
ENDBRANCH  31  32
BRANCH  28  34
ATOM     34  C   UNL     1      -6.408  -1.402   1.040  0.00  0.00    +0.258 C 
ATOM     35  O   UNL     1      -7.510  -1.909   1.033  0.00  0.00    -0.296 OA
ENDBRANCH  28  34
ENDBRANCH  24  26
ENDBRANCH  21  22
ENDBRANCH  19  21
ENDBRANCH   1  19
TORSDOF 7
