REMARK  Name = ZINC38966437
REMARK  7 active torsions:
REMARK  status: ('A' for Active; 'I' for Inactive)
REMARK    1  A    between atoms: C_7  and  C_10
REMARK    2  A    between atoms: C_10  and  C_11
REMARK    3  A    between atoms: C_11  and  C_13
REMARK    4  A    between atoms: C_11  and  N_30
REMARK    5  A    between atoms: C_17  and  S_20
REMARK    6  A    between atoms: S_20  and  C_21
REMARK    7  A    between atoms: C_21  and  C_22
REMARK                            x       y       z     vdW  Elec       q    Type
REMARK                         _______ _______ _______ _____ _____    ______ ____
ROOT
ATOM      1  C   UNL     1      -5.101   5.058  -1.373  0.00  0.00    +0.188 C 
ATOM      2  N   UNL     1      -5.224   5.573  -2.756  0.00  0.00    -0.228 NA
ATOM      3  N   UNL     1      -6.513   6.265  -2.811  0.00  0.00    -0.218 NA
ATOM      4  C   UNL     1      -7.101   6.132  -1.458  0.00  0.00    +0.263 C 
ATOM      5  O   UNL     1      -6.462   4.963  -0.896  0.00  0.00    -0.334 OA
ATOM      6  H   UNL     1      -4.467   6.202  -2.977  0.00  0.00    +0.143 HD
ATOM      7  H   UNL     1      -6.393   7.236  -3.059  0.00  0.00    +0.144 HD
ENDROOT
BRANCH   1   8
ATOM      8  C   UNL     1      -4.437   3.680  -1.374  0.00  0.00    -0.025 C 
BRANCH   8   9
ATOM      9  N   UNL     1      -3.082   3.789  -1.931  0.00  0.00    +0.383 N 
ATOM     10  H   UNL     1      -2.537   4.425  -1.367  0.00  0.00    -0.089 HD
ATOM     11  H   UNL     1      -2.644   2.880  -1.931  0.00  0.00    -0.089 HD
ATOM     12  H   UNL     1      -3.134   4.138  -2.876  0.00  0.00    -0.089 HD
ENDBRANCH   8   9
BRANCH   8  13
ATOM     13  C   UNL     1      -4.358   3.151   0.060  0.00  0.00    +0.025 C 
BRANCH  13  20
ATOM     14  C   UNL     1      -0.017   1.384   0.010  0.00  0.00    +0.001 A 
ATOM     15  C   UNL     1       0.002  -0.004   0.002  0.00  0.00    +0.002 A 
ATOM     16  C   UNL     1      -1.173  -0.723   0.009  0.00  0.00    +0.026 A 
ATOM     17  C   UNL     1      -2.392  -0.053   0.024  0.00  0.00    +0.047 A 
ATOM     18  N   UNL     1      -3.704  -0.472   0.034  0.00  0.00    -0.360 N 
ATOM     19  C   UNL     1      -4.539   0.612   0.047  0.00  0.00    +0.087 A 
ATOM     20  C   UNL     1      -3.818   1.744   0.047  0.00  0.00    -0.024 A 
ATOM     21  C   UNL     1      -2.406   1.353   0.032  0.00  0.00    +0.003 A 
ATOM     22  C   UNL     1      -1.203   2.062   0.030  0.00  0.00    +0.010 A 
ATOM     23  H   UNL     1      -3.993  -1.398   0.030  0.00  0.00    +0.165 HD
ENDBRANCH  13  20
ENDBRANCH   8  13
ENDBRANCH   1   8
BRANCH   4  24
ATOM     24  S   UNL     1      -8.895   5.887  -1.568  0.00  0.00    -0.108 S 
BRANCH  24  25
ATOM     25  C   UNL     1      -9.072   4.383  -2.567  0.00  0.00    +0.109 C 
BRANCH  25  26
ATOM     26  C   UNL     1     -10.534   4.062  -2.738  0.00  0.00    -0.019 A 
ATOM     27  C   UNL     1     -11.177   3.255  -1.818  0.00  0.00    +0.007 A 
ATOM     28  C   UNL     1     -12.518   2.960  -1.973  0.00  0.00    +0.020 A 
ATOM     29  C   UNL     1     -13.219   3.474  -3.050  0.00  0.00    +0.042 A 
ATOM     30  C   UNL     1     -12.577   4.282  -3.971  0.00  0.00    +0.040 A 
ATOM     31  C   UNL     1     -11.235   4.580  -3.812  0.00  0.00    +0.046 A 
ATOM     32 CL   UNL     1     -10.430   5.599  -4.964  0.00  0.00    -0.083 Cl
ATOM     33 CL   UNL     1     -14.903   3.103  -3.246  0.00  0.00    -0.083 Cl
ENDBRANCH  25  26
ENDBRANCH  24  25
ENDBRANCH   4  24
TORSDOF 7
