REMARK  Name = ZINC09576222
REMARK  10 active torsions:
REMARK  status: ('A' for Active; 'I' for Inactive)
REMARK    1  A    between atoms: C_1  and  C_2
REMARK    2  A    between atoms: C_3  and  C_35
REMARK    3  A    between atoms: C_9  and  C_34
REMARK    4  A    between atoms: C_10  and  C_16
REMARK    5  A    between atoms: C_16  and  C_17
REMARK    6  A    between atoms: C_17  and  C_18
REMARK    7  A    between atoms: N_20  and  C_21
REMARK    8  A    between atoms: C_21  and  C_22
REMARK    9  A    between atoms: C_22  and  C_23
REMARK   10  A    between atoms: C_25  and  C_28
REMARK                            x       y       z     vdW  Elec       q    Type
REMARK                         _______ _______ _______ _____ _____    ______ ____
ROOT
ATOM      1  C   UNL     1      -0.729   1.579   1.267  0.00  0.00    +0.052 C 
ENDROOT
BRANCH   1  11
ATOM      2  C   UNL     1       5.195   3.236   6.707  0.00  0.00    +0.048 C 
ATOM      3  C   UNL     1       4.417   1.951   6.830  0.00  0.00    -0.002 A 
ATOM      4  C   UNL     1       4.579   0.999   7.757  0.00  0.00    +0.106 A 
ATOM      5  O   UNL     1       3.707  -0.004   7.552  0.00  0.00    -0.460 OA
ATOM      6  C   UNL     1       2.930   0.243   6.477  0.00  0.00    +0.139 A 
ATOM      7  C   UNL     1       3.330   1.490   5.955  0.00  0.00    +0.024 A 
ATOM      8  C   UNL     1       2.705   2.016   4.833  0.00  0.00    +0.023 A 
ATOM      9  C   UNL     1       1.675   1.297   4.225  0.00  0.00    +0.022 A 
ATOM     10  C   UNL     1       0.994   1.823   3.038  0.00  0.00    -0.030 A 
ATOM     11  C   UNL     1       0.000   1.080   2.488  0.00  0.00    +0.041 A 
ATOM     12  C   UNL     1      -0.353  -0.158   3.065  0.00  0.00    +0.341 A 
ATOM     13  O   UNL     1      -1.250  -0.811   2.565  0.00  0.00    -0.245 OA
ATOM     14  O   UNL     1       0.277  -0.637   4.149  0.00  0.00    -0.422 OA
ATOM     15  C   UNL     1       1.276   0.050   4.747  0.00  0.00    +0.143 A 
ATOM     16  C   UNL     1       1.906  -0.465   5.867  0.00  0.00    +0.093 A 
ATOM     17  C   UNL     1       1.386   3.151   2.445  0.00  0.00    +0.045 C 
ATOM     18  C   UNL     1       5.592   1.045   8.871  0.00  0.00    +0.086 C 
ENDBRANCH   1  11
BRANCH   1  19
ATOM     19  C   UNL     1      -0.013   1.086   0.008  0.00  0.00    +0.100 C 
BRANCH  19  20
ATOM     20  C   UNL     1      -0.742   1.585  -1.213  0.00  0.00    +0.213 C 
ATOM     21  O   UNL     1      -1.736   2.268  -1.088  0.00  0.00    -0.276 OA
ATOM     22  N   UNL     1      -0.288   1.272  -2.443  0.00  0.00    -0.315 N 
ATOM     23  H   UNL     1       0.507   0.726  -2.543  0.00  0.00    +0.149 HD
BRANCH  22  24
ATOM     24  C   UNL     1      -0.997   1.758  -3.630  0.00  0.00    +0.113 C 
BRANCH  24  25
ATOM     25  C   UNL     1      -0.281   1.264  -4.889  0.00  0.00    +0.117 C 
BRANCH  25  26
ATOM     26  C   UNL     1      -1.010   1.763  -6.110  0.00  0.00    +0.229 A 
ATOM     27  N   UNL     1      -0.789   2.890  -6.741  0.00  0.00    -0.191 NA
ATOM     28  C   UNL     1      -1.673   2.911  -7.765  0.00  0.00    +0.202 A 
ATOM     29  N   UNL     1      -2.370   1.807  -7.696  0.00  0.00    -0.056 NA
ATOM     30  O   UNL     1      -1.999   1.137  -6.755  0.00  0.00    -0.338 OA
BRANCH  28  31
ATOM     31  C   UNL     1      -1.822   3.986  -8.777  0.00  0.00    +0.022 A 
ATOM     32  C   UNL     1      -1.008   5.115  -8.723  0.00  0.00    +0.012 A 
ATOM     33  C   UNL     1      -1.147   6.109  -9.670  0.00  0.00    +0.001 A 
ATOM     34  C   UNL     1      -2.101   5.991 -10.665  0.00  0.00    +0.000 A 
ATOM     35  C   UNL     1      -2.916   4.875 -10.720  0.00  0.00    +0.001 A 
ATOM     36  C   UNL     1      -2.781   3.872  -9.781  0.00  0.00    +0.012 A 
ENDBRANCH  28  31
ENDBRANCH  25  26
ENDBRANCH  24  25
ENDBRANCH  22  24
ENDBRANCH  19  20
ENDBRANCH   1  19
TORSDOF 7
