REMARK  Name = ZINC50362110
REMARK  7 active torsions:
REMARK  status: ('A' for Active; 'I' for Inactive)
REMARK    1  A    between atoms: C_1  and  C_2
REMARK    2  A    between atoms: C_2  and  C_3
REMARK    3  A    between atoms: C_7  and  C_22
REMARK    4  A    between atoms: N_10  and  C_11
REMARK    5  A    between atoms: C_11  and  C_13
REMARK    6  A    between atoms: C_11  and  C_15
REMARK    7  A    between atoms: C_13  and  N_14
REMARK                            x       y       z     vdW  Elec       q    Type
REMARK                         _______ _______ _______ _____ _____    ______ ____
ROOT
ATOM      1  C   UNL     1       2.403   1.143  -1.024  0.00  0.00    +0.106 C 
ENDROOT
BRANCH   1   7
ATOM      2  C   UNL     1       0.667  -0.541  -1.155  0.00  0.00    +0.083 C 
ATOM      3  C   UNL     1       0.406  -2.050  -1.135  0.00  0.00    +0.179 C 
ATOM      4  O   UNL     1       1.128  -2.667  -2.205  0.00  0.00    -0.374 OA
ATOM      5  C   UNL     1       2.540  -2.451  -2.146  0.00  0.00    +0.129 C 
ATOM      6  C   UNL     1       2.823  -0.947  -2.176  0.00  0.00    +0.116 C 
ATOM      7  N   UNL     1       2.114  -0.297  -1.064  0.00  0.00    -0.287 NA
ATOM      8  C   UNL     1       3.096  -3.050  -0.853  0.00  0.00    +0.039 C 
BRANCH   2  10
ATOM      9  C   UNL     1      -1.552  -0.022  -0.132  0.00  0.00    +0.005 C 
ATOM     10  C   UNL     1      -0.037   0.115   0.034  0.00  0.00    +0.018 C 
ENDBRANCH   2  10
ENDBRANCH   1   7
BRANCH   1  11
ATOM     11  C   UNL     1       1.860   1.799  -2.266  0.00  0.00    +0.123 A 
ATOM     12  C   UNL     1       1.125   2.925  -2.303  0.00  0.00    +0.062 A 
ATOM     13  C   UNL     1       0.833   3.180  -3.663  0.00  0.00    +0.070 A 
ATOM     14  C   UNL     1       1.407   2.193  -4.377  0.00  0.00    +0.184 A 
ATOM     15  O   UNL     1       2.032   1.363  -3.525  0.00  0.00    -0.450 OA
ATOM     16 BR   UNL     1       1.350   2.010  -6.258  0.00  0.00    -0.007 Br
ATOM     17 BR   UNL     1      -0.173   4.628  -4.348  0.00  0.00    -0.046 Br
ENDBRANCH   1  11
BRANCH   1  18
ATOM     18  C   UNL     1       3.917   1.357  -0.954  0.00  0.00    -0.059 C 
BRANCH  18  19
ATOM     19  N   UNL     1       4.464   0.617   0.191  0.00  0.00    +0.379 N 
ATOM     20  H   UNL     1       5.462   0.758   0.237  0.00  0.00    -0.090 HD
ATOM     21  H   UNL     1       4.037   0.951   1.042  0.00  0.00    -0.090 HD
ATOM     22  H   UNL     1       4.268  -0.367   0.080  0.00  0.00    -0.090 HD
ENDBRANCH  18  19
ENDBRANCH   1  18
TORSDOF 5
