REMARK  Name = ZINC39666882
REMARK  11 active torsions:
REMARK  status: ('A' for Active; 'I' for Inactive)
REMARK    1  A    between atoms: C_1  and  C_2
REMARK    2  A    between atoms: C_2  and  C_3
REMARK    3  A    between atoms: C_3  and  C_4
REMARK    4  A    between atoms: C_3  and  C_6
REMARK    5  A    between atoms: C_4  and  C_5
REMARK    6  A    between atoms: C_6  and  N_7
REMARK    7  A    between atoms: C_8  and  C_10
REMARK    8  A    between atoms: C_21  and  C_23
REMARK    9  A    between atoms: C_23  and  O_24
REMARK   10  A    between atoms: O_24  and  C_25
REMARK   11  A    between atoms: C_35  and  C_36
REMARK                            x       y       z     vdW  Elec       q    Type
REMARK                         _______ _______ _______ _____ _____    ______ ____
ROOT
ATOM      1  C   UNL     1       2.644  -4.222  -1.987  0.00  0.00    +0.100 C 
ATOM      2  C   UNL     1       4.108  -3.728  -1.998  0.00  0.00    +0.121 C 
ATOM      3  N   UNL     1       4.884  -4.843  -1.404  0.00  0.00    -0.297 N 
ATOM      4  C   UNL     1       4.256  -6.066  -1.959  0.00  0.00    +0.115 C 
ATOM      5  C   UNL     1       2.745  -5.757  -1.965  0.00  0.00    -0.004 C 
ATOM      6  C   UNL     1       2.091  -6.347  -3.211  0.00  0.00    -0.010 C 
ATOM      7  C   UNL     1       2.152  -7.876  -3.138  0.00  0.00    -0.082 C 
ATOM      8  N   UNL     1       1.458  -8.338  -1.930  0.00  0.00    +0.379 N 
ATOM      9  C   UNL     1       2.150  -7.841  -0.734  0.00  0.00    -0.082 C 
ATOM     10  C   UNL     1       2.089  -6.312  -0.705  0.00  0.00    -0.010 C 
ATOM     11  C   UNL     1       5.925  -4.762  -0.552  0.00  0.00    +0.253 C 
ATOM     12  O   UNL     1       6.460  -5.774  -0.152  0.00  0.00    -0.272 OA
ATOM     13  H   UNL     1       0.510  -7.994  -1.935  0.00  0.00    -0.086 HD
ATOM     14  H   UNL     1       1.447  -9.347  -1.915  0.00  0.00    -0.086 HD
ENDROOT
BRANCH   1  16
ATOM     15  N   UNL     1       0.596  -3.548  -0.775  0.00  0.00    -0.315 N 
ATOM     16  C   UNL     1       1.932  -3.726  -0.755  0.00  0.00    +0.218 C 
ATOM     17  O   UNL     1       2.561  -3.487   0.254  0.00  0.00    -0.275 OA
ATOM     18  H   UNL     1       0.093  -3.739  -1.582  0.00  0.00    +0.149 HD
BRANCH  15  19
ATOM     19  C   UNL     1      -0.096  -3.065   0.422  0.00  0.00    +0.107 C 
BRANCH  19  20
ATOM     20  C   UNL     1      -1.594  -2.951   0.134  0.00  0.00    +0.006 C 
BRANCH  20  22
ATOM     21  C   UNL     1      -3.634  -4.218  -0.557  0.00  0.00    +0.004 C 
ATOM     22  C   UNL     1      -2.170  -4.344  -0.133  0.00  0.00    +0.002 C 
ENDBRANCH  20  22
BRANCH  20  23
ATOM     23  C   UNL     1      -2.300  -2.330   1.341  0.00  0.00    +0.002 C 
ATOM     24  C   UNL     1      -1.830  -0.886   1.520  0.00  0.00    +0.004 C 
ENDBRANCH  20  23
ENDBRANCH  19  20
ENDBRANCH  15  19
ENDBRANCH   1  16
BRANCH  11  25
ATOM     25  C   UNL     1       6.425  -3.415  -0.098  0.00  0.00    +0.324 C 
BRANCH  25  26
ATOM     26  O   UNL     1       7.527  -3.592   0.794  0.00  0.00    -0.479 OA
BRANCH  26  27
ATOM     27  C   UNL     1       8.099  -2.467   1.300  0.00  0.00    +0.164 A 
ATOM     28  C   UNL     1       7.607  -1.222   0.950  0.00  0.00    +0.049 A 
ATOM     29  C   UNL     1       8.182  -0.067   1.459  0.00  0.00    +0.004 A 
ATOM     30  C   UNL     1       9.252  -0.143   2.321  0.00  0.00    +0.012 A 
ATOM     31  C   UNL     1       9.762  -1.394   2.686  0.00  0.00    +0.024 A 
ATOM     32  C   UNL     1       9.178  -2.565   2.176  0.00  0.00    +0.181 A 
ATOM     33  O   UNL     1       9.669  -3.772   2.533  0.00  0.00    -0.418 OA
ATOM     34  C   UNL     1      10.707  -3.884   3.375  0.00  0.00    +0.338 A 
ATOM     35  O   UNL     1      11.116  -4.993   3.669  0.00  0.00    -0.245 OA
ATOM     36  C   UNL     1      11.338  -2.749   3.930  0.00  0.00    +0.096 A 
ATOM     37  C   UNL     1      10.901  -1.507   3.602  0.00  0.00    -0.033 A 
ATOM     38  C   UNL     1      11.556  -0.279   4.179  0.00  0.00    +0.045 C 
ENDBRANCH  26  27
ENDBRANCH  25  26
ENDBRANCH  11  25
TORSDOF 8
