REMARK  Name = ZINC25783463
REMARK  7 active torsions:
REMARK  status: ('A' for Active; 'I' for Inactive)
REMARK    1  A    between atoms: C_1  and  C_2
REMARK    2  A    between atoms: N_8  and  C_9
REMARK    3  A    between atoms: C_9  and  C_10
REMARK    4  A    between atoms: C_11  and  C_21
REMARK    5  A    between atoms: N_23  and  N_24
REMARK    6  A    between atoms: C_25  and  C_26
REMARK    7  A    between atoms: C_25  and  C_27
REMARK                            x       y       z     vdW  Elec       q    Type
REMARK                         _______ _______ _______ _____ _____    ______ ____
ROOT
ATOM      1  C   UNL     1      -7.031   2.654  -0.175  0.00  0.00    +0.063 A 
ATOM      2  C   UNL     1      -7.154   4.003   0.008  0.00  0.00    +0.170 A 
ATOM      3  N   UNL     1      -7.758   4.526  -1.073  0.00  0.00    -0.124 NA
ATOM      4  N   UNL     1      -8.020   3.589  -1.917  0.00  0.00    -0.058 NA
ATOM      5  N   UNL     1      -7.566   2.374  -1.384  0.00  0.00    -0.194 N 
ATOM      6  C   UNL     1      -7.652   1.114  -1.987  0.00  0.00    +0.240 A 
ATOM      7  C   UNL     1      -8.242   0.829  -3.299  0.00  0.00    +0.206 A 
ATOM      8  N   UNL     1      -8.138  -0.451  -3.526  0.00  0.00    -0.032 NA
ATOM      9  O   UNL     1      -7.506  -1.041  -2.403  0.00  0.00    -0.239 OA
ATOM     10  N   UNL     1      -7.228  -0.006  -1.476  0.00  0.00    -0.027 NA
ATOM     11  N   UNL     1      -8.811   1.765  -4.156  0.00  0.00    -0.337 N 
ATOM     12  H   UNL     1      -9.227   1.444  -5.122  0.00  0.00    +0.144 HD
ATOM     13  H   UNL     1      -8.844   2.826  -3.868  0.00  0.00    +0.144 HD
ENDROOT
BRANCH   2  14
ATOM     14  C   UNL     1      -6.699   4.757   1.191  0.00  0.00    +0.285 C 
ATOM     15  O   UNL     1      -6.162   4.175   2.114  0.00  0.00    -0.267 OA
ATOM     16  N   UNL     1      -6.880   6.091   1.249  0.00  0.00    -0.201 N 
ATOM     17  H   UNL     1      -7.365   6.618   0.415  0.00  0.00    +0.178 HD
BRANCH  16  18
ATOM     18  N   UNL     1      -6.448   6.808   2.373  0.00  0.00    -0.184 NA
ATOM     19  C   UNL     1      -6.712   8.075   2.476  0.00  0.00    +0.063 C 
ATOM     20  C   UNL     1      -6.106   8.882   3.595  0.00  0.00    +0.068 C 
BRANCH  19  21
ATOM     21  C   UNL     1      -7.604   8.723   1.498  0.00  0.00    -0.002 A 
ATOM     22  C   UNL     1      -7.329  10.034   1.065  0.00  0.00    +0.010 A 
ATOM     23  C   UNL     1      -8.133  10.650   0.161  0.00  0.00    +0.009 A 
ATOM     24  C   UNL     1      -9.263   9.983  -0.347  0.00  0.00    -0.018 A 
ATOM     25  C   UNL     1     -10.113  10.604  -1.278  0.00  0.00    +0.008 A 
ATOM     26  C   UNL     1     -11.199   9.934  -1.752  0.00  0.00    +0.001 A 
ATOM     27  C   UNL     1     -11.484   8.638  -1.327  0.00  0.00    +0.001 A 
ATOM     28  C   UNL     1     -10.685   8.004  -0.426  0.00  0.00    +0.008 A 
ATOM     29  C   UNL     1      -9.553   8.664   0.086  0.00  0.00    -0.017 A 
ATOM     30  C   UNL     1      -8.709   8.040   1.016  0.00  0.00    +0.018 A 
ENDBRANCH  19  21
ENDBRANCH  16  18
ENDBRANCH   2  14
BRANCH   1  31
ATOM     31  C   UNL     1      -6.413   1.670   0.784  0.00  0.00    -0.019 C 
BRANCH  31  38
ATOM     32  C   UNL     1      -4.597   1.348   2.909  0.00  0.00    -0.013 C 
ATOM     33  C   UNL     1      -4.303   0.748   1.533  0.00  0.00    -0.071 C 
ATOM     34  C   UNL     1      -2.792   0.759   1.284  0.00  0.00    -0.016 C 
ATOM     35  C   UNL     1      -2.506   0.177  -0.103  0.00  0.00    -0.003 C 
ATOM     36  C   UNL     1      -3.258   0.994  -1.157  0.00  0.00    -0.019 C 
ATOM     37  C   UNL     1      -4.755   0.976  -0.837  0.00  0.00    -0.078 C 
ATOM     38  N   UNL     1      -4.978   1.543   0.498  0.00  0.00    +0.385 N 
ATOM     39  H   UNL     1      -4.539   2.552   0.511  0.00  0.00    -0.081 HD
ENDBRANCH  31  38
ENDBRANCH   1  31
TORSDOF 5
