REMARK  Name = ZINC22057909
REMARK  4 active torsions:
REMARK  status: ('A' for Active; 'I' for Inactive)
REMARK    1  A    between atoms: C_2  and  N_12
REMARK    2  A    between atoms: C_13  and  C_15
REMARK    3  A    between atoms: C_15  and  N_16
REMARK    4  A    between atoms: C_19  and  C_22
REMARK                            x       y       z     vdW  Elec       q    Type
REMARK                         _______ _______ _______ _____ _____    ______ ____
ROOT
ATOM      1  N   UNL     1       0.982   1.770  -0.191  0.00  0.00    -0.286 N 
ATOM      2  C   UNL     1      -0.159   1.059  -0.085  0.00  0.00    +0.201 C 
ATOM      3  O   UNL     1      -0.114  -0.150   0.002  0.00  0.00    -0.278 OA
ATOM      4  H   UNL     1       0.939   2.856  -0.360  0.00  0.00    +0.155 HD
ENDROOT
BRANCH   1   6
ATOM      5  C   UNL     1       2.346  -0.205  -0.460  0.00  0.00    +0.073 A 
ATOM      6  C   UNL     1       2.221   1.125  -0.087  0.00  0.00    +0.051 A 
ATOM      7  C   UNL     1       3.328   1.819   0.385  0.00  0.00    +0.043 A 
ATOM      8  C   UNL     1       4.550   1.183   0.491  0.00  0.00    +0.066 A 
ATOM      9  C   UNL     1       4.678  -0.147   0.118  0.00  0.00    +0.163 A 
ATOM     10  C   UNL     1       3.572  -0.843  -0.358  0.00  0.00    +0.164 A 
ATOM     11  O   UNL     1       3.677  -2.150  -0.725  0.00  0.00    -0.485 OA
ATOM     12  C   UNL     1       4.998  -2.649  -0.960  0.00  0.00    +0.270 C 
ATOM     13  C   UNL     1       5.899  -2.187   0.193  0.00  0.00    +0.270 C 
ATOM     14  O   UNL     1       5.892  -0.755   0.221  0.00  0.00    -0.485 OA
ATOM     15 BR   UNL     1       3.161   3.635   0.888  0.00  0.00    -0.048 Br
ENDBRANCH   1   6
BRANCH   2  16
ATOM     16  C   UNL     1      -1.490   1.766  -0.081  0.00  0.00    +0.019 C 
BRANCH  16  17
ATOM     17  N   UNL     1      -2.572   0.773  -0.104  0.00  0.00    +0.385 N 
ATOM     18  C   UNL     1      -3.872   1.405   0.153  0.00  0.00    -0.077 C 
ATOM     19  C   UNL     1      -4.952   0.326   0.265  0.00  0.00    -0.006 C 
ATOM     20  C   UNL     1      -5.002  -0.476  -1.038  0.00  0.00    +0.071 C 
ATOM     21  C   UNL     1      -3.623  -1.084  -1.308  0.00  0.00    -0.006 C 
ATOM     22  C   UNL     1      -2.582   0.035  -1.374  0.00  0.00    -0.077 C 
ATOM     23  H   UNL     1      -2.385   0.048   0.702  0.00  0.00    -0.081 HD
BRANCH  20  24
ATOM     24  C   UNL     1      -6.022  -1.579  -0.911  0.00  0.00    +0.213 C 
ATOM     25  O   UNL     1      -5.681  -2.737  -1.026  0.00  0.00    -0.276 OA
ATOM     26  N   UNL     1      -7.314  -1.277  -0.671  0.00  0.00    -0.329 N 
ATOM     27  H   UNL     1      -8.058  -2.082  -0.579  0.00  0.00    +0.145 HD
ATOM     28  H   UNL     1      -7.623  -0.227  -0.568  0.00  0.00    +0.145 HD
ENDBRANCH  20  24
ENDBRANCH  16  17
ENDBRANCH   2  16
TORSDOF 4
