REMARK  Name = ZINC16397493
REMARK  12 active torsions:
REMARK  status: ('A' for Active; 'I' for Inactive)
REMARK    1  A    between atoms: C_1  and  C_2
REMARK    2  A    between atoms: C_2  and  N_3
REMARK    3  A    between atoms: C_12  and  S_14
REMARK    4  A    between atoms: S_14  and  C_15
REMARK    5  A    between atoms: C_15  and  C_17
REMARK    6  A    between atoms: C_15  and  C_18
REMARK    7  A    between atoms: N_20  and  C_21
REMARK    8  A    between atoms: C_24  and  S_27
REMARK    9  A    between atoms: S_27  and  N_30
REMARK   10  A    between atoms: N_30  and  C_31
REMARK   11  A    between atoms: C_31  and  C_32
REMARK   12  A    between atoms: C_31  and  C_33
REMARK                            x       y       z     vdW  Elec       q    Type
REMARK                         _______ _______ _______ _____ _____    ______ ____
ROOT
ATOM      1  C   UNL     1      -2.806   4.216   5.426  0.00  0.00    +0.230 C 
ATOM      2  O   UNL     1      -2.000   4.979   4.938  0.00  0.00    -0.274 OA
ATOM      3  N   UNL     1      -3.077   3.043   4.819  0.00  0.00    -0.285 N 
ATOM      4  H   UNL     1      -3.776   2.468   5.167  0.00  0.00    +0.155 HD
ENDROOT
BRANCH   3   5
ATOM      5  C   UNL     1      -2.351   2.657   3.688  0.00  0.00    +0.034 A 
ATOM      6  C   UNL     1      -1.014   3.011   3.565  0.00  0.00    +0.025 A 
ATOM      7  C   UNL     1      -0.299   2.627   2.447  0.00  0.00    +0.030 A 
ATOM      8  C   UNL     1      -0.914   1.891   1.451  0.00  0.00    +0.105 A 
ATOM      9  C   UNL     1      -2.247   1.541   1.568  0.00  0.00    +0.030 A 
ATOM     10  C   UNL     1      -2.965   1.917   2.686  0.00  0.00    +0.025 A 
BRANCH   8  11
ATOM     11  S   UNL     1       0.001   1.403   0.026  0.00  0.00    +0.059 S 
ATOM     12  O   UNL     1       1.076   2.324  -0.101  0.00  0.00    -0.153 OA
ATOM     13  O   UNL     1      -0.946   1.190  -1.011  0.00  0.00    -0.153 OA
BRANCH  11  14
ATOM     14  N   UNL     1       0.678  -0.071   0.360  0.00  0.00    -0.187 NA
ATOM     15  H   UNL     1       1.642  -0.161   0.413  0.00  0.00    +0.148 HD
BRANCH  14  16
ATOM     16  C   UNL     1      -0.180  -1.239   0.574  0.00  0.00    +0.070 C 
ATOM     17  C   UNL     1       0.508  -2.486   0.015  0.00  0.00    +0.025 C 
ATOM     18  C   UNL     1      -0.427  -1.422   2.073  0.00  0.00    +0.025 C 
ENDBRANCH  14  16
ENDBRANCH  11  14
ENDBRANCH   8  11
ENDBRANCH   3   5
BRANCH   1  19
ATOM     19  C   UNL     1      -3.504   4.578   6.712  0.00  0.00    +0.137 C 
ATOM     20  C   UNL     1      -4.905   5.108   6.399  0.00  0.00    +0.029 C 
BRANCH  19  21
ATOM     21  S   UNL     1      -2.555   5.855   7.574  0.00  0.00    -0.073 S 
BRANCH  21  31
ATOM     22  N   UNL     1      -3.333   7.876  12.093  0.00  0.00    -0.329 N 
ATOM     23  C   UNL     1      -3.752   6.975  11.137  0.00  0.00    +0.131 A 
ATOM     24  C   UNL     1      -4.899   6.169  11.350  0.00  0.00    +0.040 A 
ATOM     25  C   UNL     1      -5.653   6.249  12.526  0.00  0.00    +0.013 A 
ATOM     26  C   UNL     1      -6.748   5.450  12.678  0.00  0.00    +0.001 A 
ATOM     27  C   UNL     1      -7.126   4.558  11.679  0.00  0.00    +0.002 A 
ATOM     28  C   UNL     1      -6.412   4.456  10.521  0.00  0.00    +0.028 A 
ATOM     29  C   UNL     1      -5.281   5.262  10.333  0.00  0.00    +0.077 A 
ATOM     30  N   UNL     1      -4.549   5.204   9.210  0.00  0.00    -0.222 NA
ATOM     31  C   UNL     1      -3.486   5.974   9.065  0.00  0.00    +0.191 A 
ATOM     32  N   UNL     1      -3.092   6.840   9.996  0.00  0.00    -0.206 NA
ATOM     33  H   UNL     1      -3.825   7.965  12.924  0.00  0.00    +0.147 HD
BRANCH  22  35
ATOM     34  C   UNL     1      -1.902   9.606  13.060  0.00  0.00    +0.024 C 
ATOM     35  C   UNL     1      -2.146   8.699  11.853  0.00  0.00    +0.099 C 
ENDBRANCH  22  35
ENDBRANCH  21  31
ENDBRANCH  19  21
ENDBRANCH   1  19
TORSDOF 8
