REMARK  Name = ZINC04236287
REMARK  7 active torsions:
REMARK  status: ('A' for Active; 'I' for Inactive)
REMARK    1  A    between atoms: C_1  and  O_2
REMARK    2  A    between atoms: O_2  and  C_3
REMARK    3  A    between atoms: C_6  and  C_9
REMARK    4  A    between atoms: N_11  and  C_12
REMARK    5  A    between atoms: N_26  and  S_28
REMARK    6  A    between atoms: S_28  and  C_31
REMARK    7  A    between atoms: C_36  and  C_37
REMARK                            x       y       z     vdW  Elec       q    Type
REMARK                         _______ _______ _______ _____ _____    ______ ____
ROOT
ATOM      1  C   UNL     1       1.159   1.793   0.004  0.00  0.00    +0.099 A 
ATOM      2  C   UNL     1      -0.013   1.085   0.021  0.00  0.00    +0.030 A 
ATOM      3  C   UNL     1      -1.224   1.785   0.033  0.00  0.00    +0.024 A 
ATOM      4  C   UNL     1      -1.240   3.144   0.029  0.00  0.00    +0.026 A 
ATOM      5  N   UNL     1      -0.085   3.846  -0.070  0.00  0.00    -0.310 N 
ATOM      6  C   UNL     1       1.106   3.200  -0.022  0.00  0.00    +0.273 A 
ATOM      7  O   UNL     1       2.143   3.844  -0.002  0.00  0.00    -0.266 OA
ATOM      8  C   UNL     1      -0.044   5.295  -0.267  0.00  0.00    +0.130 C 
ATOM      9  C   UNL     1      -1.344   5.972   0.129  0.00  0.00    +0.025 C 
ATOM     10  C   UNL     1      -2.529   5.213  -0.469  0.00  0.00    +0.017 C 
ATOM     11  C   UNL     1      -2.583   3.822   0.169  0.00  0.00    +0.052 C 
ATOM     12  C   UNL     1      -2.868   3.990   1.671  0.00  0.00    +0.119 C 
ATOM     13  N   UNL     1      -1.774   4.795   2.238  0.00  0.00    -0.176 NA
ATOM     14  C   UNL     1      -1.483   6.103   1.639  0.00  0.00    +0.114 C 
ENDROOT
BRANCH   1  17
ATOM     15  C   UNL     1       3.263   1.311  -1.000  0.00  0.00    +0.248 C 
ATOM     16  O   UNL     1       3.017   2.118  -1.876  0.00  0.00    -0.270 OA
ATOM     17  N   UNL     1       2.391   1.127   0.012  0.00  0.00    -0.277 N 
ATOM     18  H   UNL     1       2.618   0.535   0.746  0.00  0.00    +0.155 HD
BRANCH  15  22
ATOM     19  C   UNL     1       6.867  -0.931  -1.130  0.00  0.00    +0.120 A 
ATOM     20  C   UNL     1       6.588  -0.008  -2.132  0.00  0.00    +0.046 A 
ATOM     21  C   UNL     1       5.420   0.720  -2.093  0.00  0.00    +0.016 A 
ATOM     22  C   UNL     1       4.515   0.532  -1.045  0.00  0.00    +0.037 A 
ATOM     23  C   UNL     1       4.803  -0.392  -0.037  0.00  0.00    +0.016 A 
ATOM     24  C   UNL     1       5.970  -1.121  -0.086  0.00  0.00    +0.046 A 
BRANCH  19  26
ATOM     25  C   UNL     1       8.243  -2.577  -0.110  0.00  0.00    +0.277 C 
ATOM     26  O   UNL     1       8.019  -1.647  -1.171  0.00  0.00    -0.495 OA
ENDBRANCH  19  26
ENDBRANCH  15  22
ENDBRANCH   1  17
BRANCH  13  27
ATOM     27  S   UNL     1      -0.890   4.237   3.523  0.00  0.00    +0.062 S 
ATOM     28  O   UNL     1      -1.000   2.820   3.507  0.00  0.00    -0.153 OA
ATOM     29  O   UNL     1       0.364   4.904   3.474  0.00  0.00    -0.153 OA
BRANCH  27  30
ATOM     30  C   UNL     1      -1.696   4.788   4.989  0.00  0.00    +0.123 A 
ATOM     31  C   UNL     1      -2.252   3.873   5.859  0.00  0.00    +0.030 A 
ATOM     32  C   UNL     1      -2.885   4.304   7.011  0.00  0.00    +0.002 A 
ATOM     33  C   UNL     1      -2.967   5.655   7.299  0.00  0.00    +0.001 A 
ATOM     34  C   UNL     1      -2.416   6.581   6.438  0.00  0.00    +0.021 A 
ATOM     35  C   UNL     1      -1.770   6.152   5.276  0.00  0.00    +0.078 A 
BRANCH  35  36
ATOM     36  C   UNL     1      -1.190   7.108   4.381  0.00  0.00    +0.101 C 
ATOM     37  N   UNL     1      -0.730   7.866   3.671  0.00  0.00    -0.191 NA
ENDBRANCH  35  36
ENDBRANCH  27  30
ENDBRANCH  13  27
TORSDOF 6
