REMARK  Name = ZINC13109644
REMARK  15 active torsions:
REMARK  status: ('A' for Active; 'I' for Inactive)
REMARK    1  A    between atoms: C_1  and  C_2
REMARK    2  A    between atoms: C_2  and  C_3
REMARK    3  A    between atoms: C_3  and  C_4
REMARK    4  A    between atoms: C_4  and  C_5
REMARK    5  A    between atoms: C_5  and  C_6
REMARK    6  A    between atoms: C_6  and  C_7
REMARK    7  A    between atoms: C_11  and  S_13
REMARK    8  A    between atoms: S_13  and  C_14
REMARK    9  A    between atoms: C_14  and  C_16
REMARK   10  A    between atoms: C_14  and  C_22
REMARK   11  A    between atoms: N_27  and  C_28
REMARK   12  A    between atoms: N_31  and  C_38
REMARK   13  A    between atoms: N_34  and  C_35
REMARK   14  A    between atoms: C_35  and  C_36
REMARK   15  A    between atoms: C_36  and  C_37
REMARK                            x       y       z     vdW  Elec       q    Type
REMARK                         _______ _______ _______ _____ _____    ______ ____
ROOT
ATOM      1  C   UNL     1       3.781  -2.682  -0.545  0.00  0.00    +0.133 A 
ATOM      2  N   UNL     1       2.803  -2.005   0.029  0.00  0.00    -0.214 NA
ATOM      3  C   UNL     1       1.802  -2.641   0.621  0.00  0.00    +0.154 A 
ATOM      4  C   UNL     1       1.801  -4.049   0.626  0.00  0.00    +0.114 A 
ATOM      5  C   UNL     1       2.860  -4.727   0.004  0.00  0.00    +0.116 A 
ATOM      6  N   UNL     1       3.822  -3.998  -0.565  0.00  0.00    -0.225 NA
ATOM      7  C   UNL     1       0.691  -4.747   1.283  0.00  0.00    +0.268 A 
ATOM      8  O   UNL     1       0.646  -5.962   1.314  0.00  0.00    -0.267 OA
ATOM      9  N   UNL     1      -0.281  -4.000   1.855  0.00  0.00    -0.263 N 
ATOM     10  C   UNL     1      -0.232  -2.659   1.828  0.00  0.00    +0.333 A 
ATOM     11  O   UNL     1      -1.128  -2.034   2.361  0.00  0.00    -0.246 OA
ATOM     12  N   UNL     1       0.762  -1.976   1.234  0.00  0.00    -0.278 N 
ATOM     13  C   UNL     1      -1.403  -4.667   2.520  0.00  0.00    +0.157 C 
ENDROOT
BRANCH   1  14
ATOM     14  C   UNL     1       4.898  -1.915  -1.205  0.00  0.00    +0.076 C 
BRANCH  14  15
ATOM     15  C   UNL     1       4.543  -1.659  -2.671  0.00  0.00    +0.008 C 
BRANCH  15  16
ATOM     16  C   UNL     1       5.676  -0.881  -3.342  0.00  0.00    +0.000 C 
BRANCH  16  17
ATOM     17  C   UNL     1       5.321  -0.625  -4.808  0.00  0.00    -0.000 C 
BRANCH  17  19
ATOM     18  C   UNL     1       6.100   0.410  -6.945  0.00  0.00    +0.004 C 
ATOM     19  C   UNL     1       6.455   0.154  -5.479  0.00  0.00    -0.003 C 
ENDBRANCH  17  19
ENDBRANCH  16  17
ENDBRANCH  15  16
ENDBRANCH  14  15
ENDBRANCH   1  14
BRANCH   5  20
ATOM     20  S   UNL     1       2.918  -6.488  -0.024  0.00  0.00    -0.087 S 
BRANCH  20  21
ATOM     21  C   UNL     1       4.463  -6.737  -0.934  0.00  0.00    +0.169 C 
BRANCH  21  22
ATOM     22  C   UNL     1       4.789  -8.207  -0.978  0.00  0.00    +0.238 C 
ATOM     23  O   UNL     1       3.902  -9.028  -0.876  0.00  0.00    -0.274 OA
ATOM     24  N   UNL     1       6.066  -8.610  -1.130  0.00  0.00    -0.239 N 
ATOM     25  C   UNL     1       6.357  -9.925  -1.169  0.00  0.00    +0.306 C 
ATOM     26  O   UNL     1       5.469 -10.748  -1.067  0.00  0.00    -0.252 OA
ATOM     27  N   UNL     1       7.635 -10.328  -1.322  0.00  0.00    -0.302 N 
ATOM     28  C   UNL     1       7.952 -11.758  -1.364  0.00  0.00    +0.129 C 
ATOM     29  H   UNL     1       6.775  -7.953  -1.212  0.00  0.00    +0.159 HD
ATOM     30  H   UNL     1       8.344  -9.671  -1.403  0.00  0.00    +0.150 HD
ENDBRANCH  21  22
BRANCH  21  31
ATOM     31  C   UNL     1       4.308  -6.214  -2.339  0.00  0.00    -0.025 A 
ATOM     32  C   UNL     1       3.345  -6.750  -3.173  0.00  0.00    +0.005 A 
ATOM     33  C   UNL     1       3.199  -6.268  -4.461  0.00  0.00    +0.000 A 
ATOM     34  C   UNL     1       4.024  -5.257  -4.917  0.00  0.00    +0.000 A 
ATOM     35  C   UNL     1       4.991  -4.725  -4.085  0.00  0.00    +0.000 A 
ATOM     36  C   UNL     1       5.133  -5.204  -2.796  0.00  0.00    +0.005 A 
ENDBRANCH  21  31
ENDBRANCH  20  21
ENDBRANCH   5  20
BRANCH  12  37
ATOM     37  C   UNL     1       0.742  -0.511   1.242  0.00  0.00    +0.128 C 
BRANCH  37  38
ATOM     38  C   UNL     1       0.002  -0.004   0.002  0.00  0.00    +0.018 C 
ATOM     39  C   UNL     1      -0.019   1.526   0.010  0.00  0.00    +0.005 C 
ENDBRANCH  37  38
ENDBRANCH  12  37
TORSDOF 11
