REMARK  Name = ZINC39637379
REMARK  7 active torsions:
REMARK  status: ('A' for Active; 'I' for Inactive)
REMARK    1  A    between atoms: C_1  and  C_2
REMARK    2  A    between atoms: C_7  and  N_12
REMARK    3  A    between atoms: C_9  and  C_11
REMARK    4  A    between atoms: C_13  and  C_15
REMARK    5  A    between atoms: C_26  and  C_28
REMARK    6  A    between atoms: C_30  and  O_35
REMARK    7  A    between atoms: O_35  and  C_36
REMARK                            x       y       z     vdW  Elec       q    Type
REMARK                         _______ _______ _______ _____ _____    ______ ____
ROOT
ATOM      1  C   UNL     1       2.294  -0.173   6.472  0.00  0.00    +0.100 C 
ATOM      2  C   UNL     1       1.470  -1.468   6.645  0.00  0.00    +0.121 C 
ATOM      3  N   UNL     1       1.132  -1.507   8.087  0.00  0.00    -0.296 N 
ATOM      4  C   UNL     1       0.829  -0.097   8.432  0.00  0.00    +0.115 C 
ATOM      5  C   UNL     1       1.870   0.725   7.646  0.00  0.00    -0.004 C 
ATOM      6  C   UNL     1       1.240   2.013   7.125  0.00  0.00    -0.010 C 
ATOM      7  C   UNL     1       0.879   2.915   8.309  0.00  0.00    -0.082 C 
ATOM      8  N   UNL     1       2.090   3.217   9.083  0.00  0.00    +0.379 N 
ATOM      9  C   UNL     1       2.637   1.982   9.658  0.00  0.00    -0.082 C 
ATOM     10  C   UNL     1       3.072   1.041   8.531  0.00  0.00    -0.010 C 
ATOM     11  C   UNL     1       1.105  -2.580   8.902  0.00  0.00    +0.248 C 
ATOM     12  O   UNL     1       0.724  -2.463  10.050  0.00  0.00    -0.270 OA
ATOM     13  H   UNL     1       2.778   3.638   8.478  0.00  0.00    -0.086 HD
ATOM     14  H   UNL     1       1.860   3.859   9.827  0.00  0.00    -0.086 HD
ENDROOT
BRANCH  11  15
ATOM     15  C   UNL     1       1.539  -3.900   8.398  0.00  0.00    +0.054 A 
ATOM     16  C   UNL     1       1.165  -4.321   7.121  0.00  0.00    +0.059 A 
ATOM     17  C   UNL     1       1.575  -5.558   6.657  0.00  0.00    +0.121 A 
ATOM     18  C   UNL     1       2.358  -6.378   7.459  0.00  0.00    +0.047 A 
ATOM     19  C   UNL     1       2.730  -5.964   8.724  0.00  0.00    +0.019 A 
ATOM     20  C   UNL     1       2.330  -4.729   9.197  0.00  0.00    +0.030 A 
ATOM     21 BR   UNL     1       2.849  -4.164  10.925  0.00  0.00    -0.050 Br
BRANCH  17  22
ATOM     22  O   UNL     1       1.212  -5.971   5.413  0.00  0.00    -0.495 OA
ATOM     23  C   UNL     1       1.671  -7.259   4.998  0.00  0.00    +0.277 C 
ENDBRANCH  17  22
ENDBRANCH  11  15
BRANCH   1  25
ATOM     24  N   UNL     1       2.892   1.228   4.522  0.00  0.00    -0.312 N 
ATOM     25  C   UNL     1       1.962   0.488   5.159  0.00  0.00    +0.218 C 
ATOM     26  O   UNL     1       0.858   0.355   4.675  0.00  0.00    -0.275 OA
ATOM     27  H   UNL     1       3.775   1.334   4.909  0.00  0.00    +0.149 HD
BRANCH  24  33
ATOM     28  C   UNL     1       1.674   4.207   1.722  0.00  0.00    +0.008 C 
ATOM     29  C   UNL     1       3.136   3.759   1.712  0.00  0.00    -0.009 C 
ATOM     30  C   UNL     1       3.357   2.765   0.570  0.00  0.00    +0.003 C 
ATOM     31  C   UNL     1       2.452   1.548   0.771  0.00  0.00    +0.002 C 
ATOM     32  C   UNL     1       2.789   0.876   2.104  0.00  0.00    +0.022 C 
ATOM     33  C   UNL     1       2.569   1.871   3.246  0.00  0.00    +0.076 C 
ATOM     34  C   UNL     1       3.474   3.088   3.045  0.00  0.00    +0.009 C 
ATOM     35  C   UNL     1       3.253   4.082   4.187  0.00  0.00    +0.009 C 
ENDBRANCH  24  33
ENDBRANCH   1  25
TORSDOF 4
