REMARK  Name = ZINC15183982
REMARK  11 active torsions:
REMARK  status: ('A' for Active; 'I' for Inactive)
REMARK    1  A    between atoms: C_1  and  C_2
REMARK    2  A    between atoms: C_2  and  C_4
REMARK    3  A    between atoms: C_2  and  S_15
REMARK    4  A    between atoms: N_6  and  C_7
REMARK    5  A    between atoms: C_7  and  C_13
REMARK    6  A    between atoms: S_15  and  C_16
REMARK    7  A    between atoms: C_19  and  C_30
REMARK    8  A    between atoms: N_20  and  C_21
REMARK    9  A    between atoms: C_26  and  C_27
REMARK   10  A    between atoms: C_27  and  C_28
REMARK   11  A    between atoms: C_27  and  C_29
REMARK                            x       y       z     vdW  Elec       q    Type
REMARK                         _______ _______ _______ _____ _____    ______ ____
ROOT
ATOM      1  C   UNL     1       2.533  -0.042   1.241  0.00  0.00    +0.197 A 
ATOM      2  N   UNL     1       2.984   0.657   0.223  0.00  0.00    -0.122 NA
ATOM      3  N   UNL     1       4.237   0.898   0.373  0.00  0.00    -0.128 NA
ATOM      4  C   UNL     1       4.666   0.368   1.495  0.00  0.00    +0.171 A 
ATOM      5  N   UNL     1       3.586  -0.246   2.090  0.00  0.00    -0.270 N 
ENDROOT
BRANCH   5   6
ATOM      6  C   UNL     1       3.570  -0.939   3.309  0.00  0.00    +0.054 A 
ATOM      7  C   UNL     1       3.835  -2.301   3.338  0.00  0.00    +0.026 A 
ATOM      8  C   UNL     1       3.819  -2.981   4.540  0.00  0.00    +0.002 A 
ATOM      9  C   UNL     1       3.539  -2.305   5.714  0.00  0.00    +0.000 A 
ATOM     10  C   UNL     1       3.275  -0.948   5.688  0.00  0.00    +0.006 A 
ATOM     11  C   UNL     1       3.296  -0.262   4.489  0.00  0.00    -0.021 A 
BRANCH  11  12
ATOM     12  C   UNL     1       3.014   1.218   4.462  0.00  0.00    +0.015 C 
ATOM     13  C   UNL     1       1.614   1.481   5.020  0.00  0.00    +0.012 C 
ATOM     14  C   UNL     1       4.050   1.950   5.318  0.00  0.00    +0.012 C 
ENDBRANCH  11  12
ENDBRANCH   5   6
BRANCH   4  15
ATOM     15  C   UNL     1       6.046   0.425   2.022  0.00  0.00    +0.038 A 
ATOM     16  C   UNL     1       7.108   0.812   1.197  0.00  0.00    +0.014 A 
ATOM     17  C   UNL     1       8.380   0.849   1.740  0.00  0.00    +0.020 A 
ATOM     18  C   UNL     1       8.560   0.506   3.068  0.00  0.00    +0.111 A 
ATOM     19  N   UNL     1       7.540   0.144   3.822  0.00  0.00    -0.263 NA
ATOM     20  C   UNL     1       6.310   0.100   3.353  0.00  0.00    +0.122 A 
ENDBRANCH   4  15
BRANCH   1  21
ATOM     21  S   UNL     1       0.879  -0.605   1.472  0.00  0.00    -0.073 S 
BRANCH  21  23
ATOM     22  C   UNL     1      -0.019   1.526   0.010  0.00  0.00    +0.029 C 
ATOM     23  C   UNL     1       0.002  -0.004   0.002  0.00  0.00    +0.137 C 
BRANCH  23  24
ATOM     24  C   UNL     1      -1.412  -0.526   0.013  0.00  0.00    +0.227 C 
ATOM     25  O   UNL     1      -1.939  -0.827   1.062  0.00  0.00    -0.275 OA
ATOM     26  N   UNL     1      -2.090  -0.657  -1.144  0.00  0.00    -0.296 N 
ATOM     27  H   UNL     1      -1.669  -0.416  -1.984  0.00  0.00    +0.150 HD
BRANCH  26  28
ATOM     28  C   UNL     1      -3.465  -1.164  -1.134  0.00  0.00    +0.121 C 
ATOM     29  C   UNL     1      -3.485  -2.571  -0.532  0.00  0.00    +0.041 C 
ATOM     30  C   UNL     1      -4.920  -3.100  -0.521  0.00  0.00    +0.003 C 
ATOM     31  C   UNL     1      -5.456  -3.151  -1.953  0.00  0.00    +0.000 C 
ATOM     32  C   UNL     1      -5.436  -1.745  -2.555  0.00  0.00    +0.003 C 
ATOM     33  C   UNL     1      -4.000  -1.215  -2.566  0.00  0.00    +0.041 C 
BRANCH  28  34
ATOM     34  C   UNL     1      -4.311  -0.272  -0.325  0.00  0.00    +0.088 C 
ATOM     35  N   UNL     1      -4.964   0.417   0.299  0.00  0.00    -0.194 NA
ENDBRANCH  28  34
ENDBRANCH  26  28
ENDBRANCH  23  24
ENDBRANCH  21  23
ENDBRANCH   1  21
TORSDOF 8
