REMARK  Name = ZINC23264906
REMARK  10 active torsions:
REMARK  status: ('A' for Active; 'I' for Inactive)
REMARK    1  A    between atoms: C_1  and  C_2
REMARK    2  A    between atoms: C_4  and  C_22
REMARK    3  A    between atoms: C_6  and  C_19
REMARK    4  A    between atoms: N_9  and  C_11
REMARK    5  A    between atoms: C_22  and  O_24
REMARK    6  A    between atoms: O_24  and  C_25
REMARK    7  A    between atoms: C_25  and  C_26
REMARK    8  A    between atoms: N_28  and  C_29
REMARK    9  A    between atoms: N_28  and  C_30
REMARK   10  A    between atoms: C_30  and  C_31
REMARK                            x       y       z     vdW  Elec       q    Type
REMARK                         _______ _______ _______ _____ _____    ______ ____
ROOT
ATOM      1  C   UNL     1       3.542   3.969   0.167  0.00  0.00    +0.068 C 
ATOM      2  C   UNL     1       2.049   4.170   0.152  0.00  0.00    +0.070 A 
ATOM      3  C   UNL     1       1.087   3.177  -0.130  0.00  0.00    +0.055 A 
ATOM      4  C   UNL     1       1.163   1.804  -0.459  0.00  0.00    +0.073 A 
ATOM      5  C   UNL     1      -0.032   1.121  -0.675  0.00  0.00    +0.039 A 
ATOM      6  C   UNL     1      -1.235   1.803  -0.567  0.00  0.00    +0.048 A 
ATOM      7  N   UNL     1      -1.279   3.079  -0.255  0.00  0.00    -0.232 NA
ATOM      8  C   UNL     1      -0.180   3.787  -0.036  0.00  0.00    +0.160 A 
ATOM      9  N   UNL     1       0.047   5.098   0.292  0.00  0.00    -0.241 N 
ATOM     10  N   UNL     1       1.430   5.289   0.397  0.00  0.00    -0.174 NA
ENDROOT
BRANCH   9  11
ATOM     11  C   UNL     1      -0.980   6.123   0.495  0.00  0.00    +0.132 C 
ATOM     12  C   UNL     1      -0.769   7.265  -0.512  0.00  0.00    +0.051 C 
ATOM     13  C   UNL     1      -1.657   8.465  -0.078  0.00  0.00    +0.168 C 
ATOM     14  S   UNL     1      -1.418   8.418   1.748  0.00  0.00    -0.029 S 
ATOM     15  O   UNL     1      -0.338   9.274   2.096  0.00  0.00    -0.174 OA
ATOM     16  O   UNL     1      -2.678   8.587   2.384  0.00  0.00    -0.174 OA
ATOM     17  C   UNL     1      -0.881   6.670   1.940  0.00  0.00    +0.192 C 
ENDBRANCH   9  11
BRANCH   6  18
ATOM     18  C   UNL     1      -2.524   1.061  -0.809  0.00  0.00    +0.038 C 
ATOM     19  C   UNL     1      -2.440  -0.287  -1.526  0.00  0.00    +0.010 C 
ATOM     20  C   UNL     1      -3.005   0.933  -2.256  0.00  0.00    +0.010 C 
ENDBRANCH   6  18
BRANCH   4  21
ATOM     21  C   UNL     1       2.466   1.117  -0.570  0.00  0.00    +0.340 C 
ATOM     22  O   UNL     1       3.418   1.696  -1.052  0.00  0.00    -0.245 OA
BRANCH  21  23
ATOM     23  O   UNL     1       2.597  -0.152  -0.137  0.00  0.00    -0.452 OA
BRANCH  23  24
ATOM     24  C   UNL     1       3.906  -0.764  -0.278  0.00  0.00    +0.328 C 
BRANCH  24  25
ATOM     25  C   UNL     1       3.862  -2.172   0.257  0.00  0.00    +0.253 C 
ATOM     26  O   UNL     1       2.829  -2.616   0.712  0.00  0.00    -0.272 OA
ATOM     27  N   UNL     1       4.971  -2.939   0.229  0.00  0.00    -0.294 N 
ATOM     28  C   UNL     1       6.218  -2.402  -0.320  0.00  0.00    +0.132 C 
BRANCH  27  29
ATOM     29  C   UNL     1       4.928  -4.308   0.749  0.00  0.00    +0.181 C 
BRANCH  29  30
ATOM     30  C   UNL     1       4.551  -5.255  -0.361  0.00  0.00    +0.122 A 
ATOM     31  C   UNL     1       5.409  -5.877  -1.190  0.00  0.00    +0.046 A 
ATOM     32  C   UNL     1       4.631  -6.663  -2.070  0.00  0.00    +0.041 A 
ATOM     33  C   UNL     1       3.344  -6.475  -1.727  0.00  0.00    +0.195 A 
ATOM     34  O   UNL     1       3.302  -5.625  -0.688  0.00  0.00    -0.466 OA
ENDBRANCH  29  30
ENDBRANCH  27  29
ENDBRANCH  24  25
ENDBRANCH  23  24
ENDBRANCH  21  23
ENDBRANCH   4  21
TORSDOF 8
