REMARK  Name = ZINC39665963
REMARK  9 active torsions:
REMARK  status: ('A' for Active; 'I' for Inactive)
REMARK    1  A    between atoms: C_1  and  C_2
REMARK    2  A    between atoms: C_5  and  O_8
REMARK    3  A    between atoms: O_8  and  C_9
REMARK    4  A    between atoms: C_9  and  C_11
REMARK    5  A    between atoms: C_9  and  C_12
REMARK    6  A    between atoms: C_12  and  N_13
REMARK    7  A    between atoms: C_14  and  C_16
REMARK    8  A    between atoms: C_27  and  C_29
REMARK    9  A    between atoms: C_34  and  C_35
REMARK                            x       y       z     vdW  Elec       q    Type
REMARK                         _______ _______ _______ _____ _____    ______ ____
ROOT
ATOM      1  C   UNL     1      -3.075  -7.478   0.073  0.00  0.00    +0.100 C 
ATOM      2  C   UNL     1      -3.253  -6.725  -1.265  0.00  0.00    +0.121 C 
ATOM      3  N   UNL     1      -3.635  -7.776  -2.237  0.00  0.00    -0.296 N 
ATOM      4  C   UNL     1      -4.549  -8.664  -1.480  0.00  0.00    +0.115 C 
ATOM      5  C   UNL     1      -3.930  -8.748  -0.071  0.00  0.00    -0.004 C 
ATOM      6  C   UNL     1      -5.028  -8.768   0.988  0.00  0.00    -0.010 C 
ATOM      7  C   UNL     1      -5.828 -10.068   0.862  0.00  0.00    -0.082 C 
ATOM      8  N   UNL     1      -4.931 -11.216   1.036  0.00  0.00    +0.379 N 
ATOM      9  C   UNL     1      -3.934 -11.241  -0.042  0.00  0.00    -0.082 C 
ATOM     10  C   UNL     1      -3.054  -9.991   0.046  0.00  0.00    -0.010 C 
ATOM     11  C   UNL     1      -3.240  -7.897  -3.520  0.00  0.00    +0.247 C 
ATOM     12  O   UNL     1      -3.580  -8.865  -4.172  0.00  0.00    -0.270 OA
ATOM     13  H   UNL     1      -4.461 -11.142   1.925  0.00  0.00    -0.086 HD
ATOM     14  H   UNL     1      -5.470 -12.069   1.013  0.00  0.00    -0.086 HD
ENDROOT
BRANCH  11  15
ATOM     15  C   UNL     1      -2.394  -6.852  -4.135  0.00  0.00    +0.049 A 
ATOM     16  C   UNL     1      -2.659  -5.503  -3.893  0.00  0.00    +0.013 A 
ATOM     17  C   UNL     1      -1.866  -4.533  -4.469  0.00  0.00    +0.001 A 
ATOM     18  C   UNL     1      -0.809  -4.894  -5.286  0.00  0.00    +0.001 A 
ATOM     19  C   UNL     1      -0.541  -6.229  -5.530  0.00  0.00    +0.013 A 
ATOM     20  C   UNL     1      -1.323  -7.210  -4.955  0.00  0.00    +0.067 A 
BRANCH  20  21
ATOM     21  C   UNL     1      -1.026  -8.664  -5.218  0.00  0.00    +0.418 C 
ATOM     22  F   UNL     1       0.085  -8.768  -6.062  0.00  0.00    -0.166 F 
ATOM     23  F   UNL     1      -0.754  -9.310  -4.007  0.00  0.00    -0.166 F 
ATOM     24  F   UNL     1      -2.133  -9.263  -5.828  0.00  0.00    -0.166 F 
ENDBRANCH  20  21
ENDBRANCH  11  15
BRANCH   1  26
ATOM     25  N   UNL     1      -1.139  -7.975   1.531  0.00  0.00    -0.312 N 
ATOM     26  C   UNL     1      -1.627  -7.841   0.282  0.00  0.00    +0.218 C 
ATOM     27  O   UNL     1      -0.901  -8.013  -0.674  0.00  0.00    -0.275 OA
ATOM     28  H   UNL     1      -1.720  -7.837   2.296  0.00  0.00    +0.149 HD
BRANCH  25  29
ATOM     29  C   UNL     1       0.268  -8.328   1.734  0.00  0.00    +0.148 C 
BRANCH  29  30
ATOM     30  C   UNL     1       0.561  -8.415   3.233  0.00  0.00    +0.187 C 
ATOM     31  C   UNL     1       2.030  -8.784   3.445  0.00  0.00    +0.053 C 
BRANCH  30  32
ATOM     32  O   UNL     1       0.294  -7.152   3.845  0.00  0.00    -0.488 OA
BRANCH  32  37
ATOM     33  C   UNL     1      -0.944  -7.182   9.340  0.00  0.00    +0.044 C 
ATOM     34  C   UNL     1      -0.613  -7.174   7.870  0.00  0.00    -0.050 A 
ATOM     35  C   UNL     1      -0.239  -8.347   7.240  0.00  0.00    +0.007 A 
ATOM     36  C   UNL     1       0.065  -8.342   5.893  0.00  0.00    +0.046 A 
ATOM     37  C   UNL     1      -0.005  -7.159   5.171  0.00  0.00    +0.121 A 
ATOM     38  C   UNL     1      -0.381  -5.984   5.805  0.00  0.00    +0.046 A 
ATOM     39  C   UNL     1      -0.689  -5.995   7.151  0.00  0.00    +0.007 A 
ENDBRANCH  32  37
ENDBRANCH  30  32
ENDBRANCH  29  30
ENDBRANCH  25  29
ENDBRANCH   1  26
TORSDOF 7
