REMARK  Name = ZINC12886942
REMARK  7 active torsions:
REMARK  status: ('A' for Active; 'I' for Inactive)
REMARK    1  A    between atoms: C_1  and  C_2
REMARK    2  A    between atoms: C_2  and  C_3
REMARK    3  A    between atoms: C_3  and  C_5
REMARK    4  A    between atoms: C_3  and  N_6
REMARK    5  A    between atoms: C_11  and  C_28
REMARK    6  A    between atoms: C_20  and  C_27
REMARK    7  A    between atoms: C_28  and  C_29
REMARK                            x       y       z     vdW  Elec       q    Type
REMARK                         _______ _______ _______ _____ _____    ______ ____
ROOT
ATOM      1  N   UNL     1      -2.095   1.069   1.253  0.00  0.00    -0.239 N 
ATOM      2  C   UNL     1      -2.386  -0.228   1.405  0.00  0.00    +0.224 C 
ATOM      3  O   UNL     1      -1.575  -1.114   1.565  0.00  0.00    -0.275 OA
ATOM      4  C   UNL     1      -3.886  -0.416   1.348  0.00  0.00    +0.073 C 
ATOM      5  C   UNL     1      -4.250  -1.184   0.059  0.00  0.00    -0.053 C 
ATOM      6  C   UNL     1      -5.082   0.995  -0.248  0.00  0.00    +0.050 C 
ATOM      7  C   UNL     1      -4.420   1.028   1.135  0.00  0.00    +0.088 C 
ATOM      8  C   UNL     1      -3.160   1.864   1.099  0.00  0.00    +0.225 C 
ATOM      9  O   UNL     1      -3.122   3.067   0.952  0.00  0.00    -0.275 OA
ATOM     10  C   UNL     1      -6.301   1.871  -0.298  0.00  0.00    -0.027 A 
ATOM     11  C   UNL     1      -7.483   1.892   0.408  0.00  0.00    +0.008 A 
ATOM     12  C   UNL     1      -8.443   2.848   0.123  0.00  0.00    -0.050 A 
ATOM     13  C   UNL     1      -8.211   3.780  -0.871  0.00  0.00    +0.005 A 
ATOM     14  C   UNL     1      -7.029   3.763  -1.581  0.00  0.00    +0.024 A 
ATOM     15  C   UNL     1      -6.057   2.805  -1.301  0.00  0.00    +0.036 A 
ATOM     16  N   UNL     1      -4.801   2.585  -1.871  0.00  0.00    -0.286 N 
ATOM     17  C   UNL     1      -4.164   1.540  -1.309  0.00  0.00    +0.211 C 
ATOM     18  O   UNL     1      -3.065   1.120  -1.601  0.00  0.00    -0.277 OA
ATOM     19  C   UNL     1      -9.737   2.872   0.895  0.00  0.00    +0.044 C 
ATOM     20  H   UNL     1      -4.431   3.123  -2.588  0.00  0.00    +0.155 HD
ATOM     21  N   UNL     1      -5.389  -0.405  -0.486  0.00  0.00    +0.394 N 
ATOM     22  H   UNL     1      -6.258  -0.664  -0.005  0.00  0.00    -0.083 HD
ATOM     23  H   UNL     1      -5.489  -0.580  -1.492  0.00  0.00    -0.083 HD
ENDROOT
BRANCH   1  24
ATOM     24  C   UNL     1      -0.721   1.578   1.260  0.00  0.00    +0.081 C 
ATOM     25  C   UNL     1      -0.432   2.285  -0.066  0.00  0.00    +0.028 C 
BRANCH  24  27
ATOM     26  C   UNL     1      -0.708   1.833   3.745  0.00  0.00    +0.006 C 
ATOM     27  C   UNL     1      -0.550   2.569   2.413  0.00  0.00    +0.019 C 
ENDBRANCH  24  27
ENDBRANCH   1  24
BRANCH   5  28
ATOM     28  C   UNL     1      -4.665  -2.618   0.394  0.00  0.00    +0.022 C 
BRANCH  28  29
ATOM     29  C   UNL     1      -4.898  -3.384  -0.883  0.00  0.00    -0.024 A 
ATOM     30  C   UNL     1      -6.075  -3.566  -1.502  0.00  0.00    +0.087 A 
ATOM     31  N   UNL     1      -5.896  -4.313  -2.634  0.00  0.00    -0.360 N 
ATOM     32  H   UNL     1      -6.602  -4.574  -3.247  0.00  0.00    +0.165 HD
ATOM     33  C   UNL     1      -4.566  -4.639  -2.775  0.00  0.00    +0.047 A 
ATOM     34  C   UNL     1      -3.881  -4.066  -1.687  0.00  0.00    +0.003 A 
ATOM     35  C   UNL     1      -2.502  -4.240  -1.563  0.00  0.00    +0.010 A 
ATOM     36  C   UNL     1      -1.821  -4.957  -2.507  0.00  0.00    +0.001 A 
ATOM     37  C   UNL     1      -2.490  -5.519  -3.585  0.00  0.00    +0.002 A 
ATOM     38  C   UNL     1      -3.853  -5.364  -3.723  0.00  0.00    +0.026 A 
ENDBRANCH  28  29
ENDBRANCH   5  28
TORSDOF 4
