REMARK  Name = ZINC41323420
REMARK  4 active torsions:
REMARK  status: ('A' for Active; 'I' for Inactive)
REMARK    1  A    between atoms: C_1  and  C_2
REMARK    2  A    between atoms: C_5  and  N_9
REMARK    3  A    between atoms: C_7  and  C_8
REMARK    4  A    between atoms: C_12  and  C_18
REMARK                            x       y       z     vdW  Elec       q    Type
REMARK                         _______ _______ _______ _____ _____    ______ ____
ROOT
ATOM      1  N   UNL     1       0.059  -4.170  -0.021  0.00  0.00    -0.144 N 
ATOM      2  C   UNL     1      -0.389  -4.971   0.958  0.00  0.00    +0.243 C 
ATOM      3  O   UNL     1      -0.896  -4.505   1.957  0.00  0.00    -0.273 OA
ATOM      4  C   UNL     1      -0.251  -6.453   0.788  0.00  0.00    +0.097 C 
ATOM      5  C   UNL     1      -0.039  -6.763  -0.718  0.00  0.00    +0.201 C 
ATOM      6  S   UNL     1       0.637  -5.141  -1.256  0.00  0.00    +0.053 S 
ATOM      7  O   UNL     1      -0.010  -4.687  -2.437  0.00  0.00    -0.155 OA
ATOM      8  O   UNL     1       2.053  -5.117  -1.133  0.00  0.00    -0.155 OA
ATOM      9  C   UNL     1       0.955  -6.952   1.588  0.00  0.00    +0.019 C 
ENDROOT
BRANCH   1  14
ATOM     10  C   UNL     1      -0.018   1.503   0.010  0.00  0.00    +0.044 C 
ATOM     11  C   UNL     1       0.002  -0.004   0.002  0.00  0.00    -0.047 A 
ATOM     12  C   UNL     1       0.006  -0.688  -1.200  0.00  0.00    +0.005 A 
ATOM     13  C   UNL     1       0.025  -2.068  -1.211  0.00  0.00    +0.025 A 
ATOM     14  C   UNL     1       0.040  -2.771  -0.013  0.00  0.00    +0.060 A 
ATOM     15  C   UNL     1       0.037  -2.082   1.192  0.00  0.00    +0.029 A 
ATOM     16  C   UNL     1       0.023  -0.700   1.196  0.00  0.00    -0.046 A 
ATOM     17  C   UNL     1       0.025   0.049   2.504  0.00  0.00    +0.044 C 
ENDBRANCH   1  14
TORSDOF 1
