REMARK  Name = ZINC38733181
REMARK  6 active torsions:
REMARK  status: ('A' for Active; 'I' for Inactive)
REMARK    1  A    between atoms: C_1  and  C_2
REMARK    2  A    between atoms: C_2  and  C_38
REMARK    3  A    between atoms: C_7  and  C_12
REMARK    4  A    between atoms: C_12  and  N_13
REMARK    5  A    between atoms: C_14  and  C_16
REMARK    6  A    between atoms: C_22  and  C_24
REMARK                            x       y       z     vdW  Elec       q    Type
REMARK                         _______ _______ _______ _____ _____    ______ ____
ROOT
ATOM      1  C   UNL     1       4.098   2.767   5.092  0.00  0.00    +0.091 C 
ATOM      2  C   UNL     1       4.791   1.542   5.694  0.00  0.00    +0.040 C 
ATOM      3  C   UNL     1       5.906   1.974   6.601  0.00  0.00    -0.030 C 
ATOM      4  C   UNL     1       6.029   3.170   7.080  0.00  0.00    -0.030 C 
ATOM      5  C   UNL     1       5.080   4.294   6.789  0.00  0.00    +0.040 C 
ATOM      6  C   UNL     1       3.768   3.748   6.223  0.00  0.00    +0.091 C 
ENDROOT
BRANCH   6   7
ATOM      7  C   UNL     1       2.934   4.881   5.684  0.00  0.00    +0.220 C 
ATOM      8  O   UNL     1       3.122   5.290   4.558  0.00  0.00    -0.275 OA
ATOM      9  N   UNL     1       1.978   5.440   6.452  0.00  0.00    -0.298 N 
ATOM     10  C   UNL     1       1.823   5.044   7.859  0.00  0.00    +0.126 C 
ATOM     11  C   UNL     1       1.905   6.300   8.734  0.00  0.00    +0.125 C 
ATOM     12  N   UNL     1       0.999   7.317   8.181  0.00  0.00    -0.314 N 
ATOM     13  C   UNL     1       1.155   7.714   6.775  0.00  0.00    +0.125 C 
ATOM     14  C   UNL     1       1.077   6.461   5.901  0.00  0.00    +0.126 C 
ATOM     15  C   UNL     1       0.014   7.894   8.974  0.00  0.00    +0.099 A 
ATOM     16  C   UNL     1      -0.040   7.596  10.332  0.00  0.00    +0.042 A 
ATOM     17  C   UNL     1      -1.026   8.177  11.109  0.00  0.00    +0.005 A 
ATOM     18  C   UNL     1      -1.928   9.039  10.500  0.00  0.00    +0.018 A 
ATOM     19  C   UNL     1      -1.816   9.290   9.148  0.00  0.00    +0.084 A 
ATOM     20  N   UNL     1      -0.862   8.726   8.431  0.00  0.00    -0.350 N 
ATOM     21  H   UNL     1      -0.803   8.922   7.483  0.00  0.00    +0.166 HD
ENDBRANCH   6   7
BRANCH   1  23
ATOM     22  N   UNL     1       2.875   1.469   3.377  0.00  0.00    -0.315 N 
ATOM     23  C   UNL     1       2.827   2.341   4.403  0.00  0.00    +0.217 C 
ATOM     24  O   UNL     1       1.760   2.784   4.772  0.00  0.00    -0.275 OA
ATOM     25  H   UNL     1       3.729   1.115   3.081  0.00  0.00    +0.149 HD
BRANCH  22  26
ATOM     26  C   UNL     1       1.640   1.056   2.707  0.00  0.00    +0.108 C 
BRANCH  26  32
ATOM     27  C   UNL     1       0.017   1.652  -0.090  0.00  0.00    +0.011 C 
ATOM     28  C   UNL     1       0.023   0.127  -0.124  0.00  0.00    -0.029 C 
ATOM     29  C   UNL     1       1.136  -0.500  -0.982  0.00  0.00    -0.005 C 
ATOM     30  C   UNL     1       2.444   0.289  -0.915  0.00  0.00    +0.004 C 
ATOM     31  C   UNL     1       2.794   0.739   0.497  0.00  0.00    +0.005 C 
ATOM     32  C   UNL     1       1.973   0.068   1.585  0.00  0.00    +0.010 C 
ATOM     33  C   UNL     1       0.705  -0.590   1.043  0.00  0.00    -0.000 C 
ATOM     34  C   UNL     1       1.107  -1.675   0.012  0.00  0.00    +0.008 C 
ATOM     35  C   UNL     1      -1.374  -0.430  -0.452  0.00  0.00    +0.011 C 
ENDBRANCH  26  32
ENDBRANCH  22  26
ENDBRANCH   1  23
TORSDOF 4
