REMARK  Name = ZINC12151351
REMARK  8 active torsions:
REMARK  status: ('A' for Active; 'I' for Inactive)
REMARK    1  A    between atoms: C_1  and  N_2
REMARK    2  A    between atoms: C_6  and  C_7
REMARK    3  A    between atoms: C_7  and  C_9
REMARK    4  A    between atoms: C_7  and  O_36
REMARK    5  A    between atoms: C_15  and  C_17
REMARK    6  A    between atoms: C_17  and  C_18
REMARK    7  A    between atoms: C_18  and  N_69
REMARK    8  A    between atoms: C_27  and  C_30
REMARK                            x       y       z     vdW  Elec       q    Type
REMARK                         _______ _______ _______ _____ _____    ______ ____
ROOT
ATOM      1  C   UNL     1       1.629  -1.019   3.248  0.00  0.00    -0.069 C 
ENDROOT
BRANCH   1  12
ATOM      2  C   UNL     1       1.527   1.224   2.348  0.00  0.00    -0.039 C 
ATOM      3  C   UNL     1       2.025   1.947   1.110  0.00  0.00    -0.022 A 
ATOM      4  C   UNL     1       3.279   2.520   1.098  0.00  0.00    +0.005 A 
ATOM      5  C   UNL     1       3.712   3.196  -0.030  0.00  0.00    +0.000 A 
ATOM      6  C   UNL     1       2.887   3.298  -1.135  0.00  0.00    +0.004 A 
ATOM      7  C   UNL     1       1.634   2.716  -1.125  0.00  0.00    +0.046 A 
ATOM      8  C   UNL     1       1.204   2.027   0.002  0.00  0.00    +0.123 A 
ATOM      9  O   UNL     1      -0.017   1.429   0.010  0.00  0.00    -0.486 OA
ATOM     10  C   UNL     1       0.002  -0.004   0.002  0.00  0.00    +0.187 C 
ATOM     11  C   UNL     1       0.139  -0.544   1.409  0.00  0.00    -0.028 C 
ATOM     12  N   UNL     1       1.444  -0.220   2.026  0.00  0.00    +0.385 N 
ATOM     13  H   UNL     1       2.190  -0.453   1.361  0.00  0.00    -0.081 HD
BRANCH  10  14
ATOM     14  C   UNL     1      -1.280  -0.515  -0.603  0.00  0.00    -0.009 A 
ATOM     15  C   UNL     1      -2.465   0.163  -0.385  0.00  0.00    +0.007 A 
ATOM     16  C   UNL     1      -3.640  -0.303  -0.944  0.00  0.00    +0.000 A 
ATOM     17  C   UNL     1      -3.633  -1.452  -1.712  0.00  0.00    +0.000 A 
ATOM     18  C   UNL     1      -2.449  -2.133  -1.925  0.00  0.00    +0.000 A 
ATOM     19  C   UNL     1      -1.272  -1.664  -1.371  0.00  0.00    +0.007 A 
ENDBRANCH  10  14
ENDBRANCH   1  12
BRANCH   1  20
ATOM     20  C   UNL     1       3.064  -0.822   3.743  0.00  0.00    +0.077 C 
BRANCH  20  27
ATOM     21  C   UNL     1       6.496  -0.793   7.395  0.00  0.00    +0.028 C 
ATOM     22  C   UNL     1       5.259  -1.536   7.904  0.00  0.00    +0.025 C 
ATOM     23  C   UNL     1       4.723  -2.448   6.796  0.00  0.00    +0.108 C 
ATOM     24  N   UNL     1       4.489  -1.640   5.591  0.00  0.00    -0.302 N 
ATOM     25  C   UNL     1       5.588  -0.820   5.065  0.00  0.00    +0.108 C 
ATOM     26  C   UNL     1       6.112   0.078   6.196  0.00  0.00    +0.025 C 
ATOM     27  C   UNL     1       3.289  -1.655   4.977  0.00  0.00    +0.214 C 
ATOM     28  O   UNL     1       2.391  -2.341   5.418  0.00  0.00    -0.276 OA
BRANCH  21  29
ATOM     29  C   UNL     1       7.054   0.093   8.511  0.00  0.00    +0.183 C 
BRANCH  29  35
ATOM     30  C   UNL     1      10.003  -0.533   9.224  0.00  0.00    +0.150 C 
ATOM     31  N   UNL     1       9.552   0.537   8.332  0.00  0.00    -0.335 N 
ATOM     32  C   UNL     1      10.348   1.430   7.666  0.00  0.00    +0.106 A 
ATOM     33  C   UNL     1       9.527   2.238   6.968  0.00  0.00    +0.130 A 
ATOM     34  N   UNL     1       8.265   1.845   7.196  0.00  0.00    -0.238 NA
ATOM     35  C   UNL     1       8.272   0.825   8.009  0.00  0.00    +0.138 A 
ENDBRANCH  29  35
BRANCH  29  36
ATOM     36  O   UNL     1       6.060   1.039   8.909  0.00  0.00    -0.384 OA
ATOM     37  H   UNL     1       5.768   1.626   8.198  0.00  0.00    +0.210 HD
ENDBRANCH  29  36
ENDBRANCH  21  29
ENDBRANCH  20  27
ENDBRANCH   1  20
TORSDOF 7
