REMARK  Name = ZINC13726504
REMARK  15 active torsions:
REMARK  status: ('A' for Active; 'I' for Inactive)
REMARK    1  A    between atoms: C_1  and  N_60
REMARK    2  A    between atoms: C_2  and  N_60
REMARK    3  A    between atoms: C_3  and  C_4
REMARK    4  A    between atoms: C_3  and  N_60
REMARK    5  A    between atoms: C_7  and  C_9
REMARK    6  A    between atoms: C_9  and  S_10
REMARK    7  A    between atoms: S_10  and  C_11
REMARK    8  A    between atoms: C_11  and  C_12
REMARK    9  A    between atoms: C_12  and  N_13
REMARK   10  A    between atoms: N_13  and  C_14
REMARK   11  A    between atoms: C_16  and  N_26
REMARK   12  A    between atoms: C_17  and  N_23
REMARK   13  A    between atoms: C_19  and  N_20
REMARK   14  A    between atoms: N_26  and  C_27
REMARK   15  A    between atoms: C_27  and  C_28
REMARK                            x       y       z     vdW  Elec       q    Type
REMARK                         _______ _______ _______ _____ _____    ______ ____
ROOT
ATOM      1  C   UNL     1      -5.894   5.162  -3.794  0.00  0.00    +0.060 A 
ATOM      2  C   UNL     1      -5.205   4.889  -4.967  0.00  0.00    +0.050 A 
ATOM      3  C   UNL     1      -5.610   5.474  -6.159  0.00  0.00    +0.060 A 
ATOM      4  C   UNL     1      -6.705   6.330  -6.174  0.00  0.00    +0.149 A 
ATOM      5  C   UNL     1      -7.389   6.599  -5.005  0.00  0.00    +0.069 A 
ATOM      6  C   UNL     1      -6.992   6.015  -3.817  0.00  0.00    +0.149 A 
ENDROOT
BRANCH   6   7
ATOM      7  N   UNL     1      -7.731   6.301  -2.568  0.00  0.00    +0.058 N 
ATOM      8  O   UNL     1      -8.945   6.406  -2.589  0.00  0.00    -0.126 OA
ATOM      9  O   UNL     1      -7.127   6.432  -1.519  0.00  0.00    -0.126 OA
ENDBRANCH   6   7
BRANCH   4  10
ATOM     10  N   UNL     1      -7.138   6.954  -7.444  0.00  0.00    +0.058 N 
ATOM     11  O   UNL     1      -7.500   8.117  -7.459  0.00  0.00    -0.126 OA
ATOM     12  O   UNL     1      -7.131   6.305  -8.475  0.00  0.00    -0.126 OA
ENDBRANCH   4  10
BRANCH   1  13
ATOM     13  N   UNL     1      -5.490   4.575  -2.593  0.00  0.00    -0.341 N 
ATOM     14  H   UNL     1      -5.944   4.802  -1.766  0.00  0.00    +0.146 HD
BRANCH  13  15
ATOM     15  C   UNL     1      -4.381   3.618  -2.582  0.00  0.00    +0.112 C 
BRANCH  15  16
ATOM     16  C   UNL     1      -4.144   3.130  -1.152  0.00  0.00    +0.088 C 
BRANCH  16  17
ATOM     17  S   UNL     1      -2.771   1.944  -1.138  0.00  0.00    -0.151 S 
BRANCH  17  18
ATOM     18  C   UNL     1      -2.619   1.468   0.606  0.00  0.00    +0.143 C 
BRANCH  18  22
ATOM     19  C   UNL     1      -0.414  -1.432   0.858  0.00  0.00    +0.089 A 
ATOM     20  C   UNL     1       0.490  -0.457   1.060  0.00  0.00    +0.043 A 
ATOM     21  C   UNL     1      -0.208   0.770   0.996  0.00  0.00    +0.046 A 
ATOM     22  C   UNL     1      -1.498   0.472   0.759  0.00  0.00    +0.115 A 
ATOM     23  O   UNL     1      -1.617  -0.863   0.676  0.00  0.00    -0.466 OA
BRANCH  19  24
ATOM     24  C   UNL     1      -0.127  -2.911   0.839  0.00  0.00    -0.004 C 
BRANCH  24  27
ATOM     25  C   UNL     1      -1.664  -3.375   2.652  0.00  0.00    -0.096 C 
ATOM     26  C   UNL     1       0.229  -4.835   2.266  0.00  0.00    -0.096 C 
ATOM     27  N   UNL     1      -0.254  -3.439   2.214  0.00  0.00    +0.381 N 
ATOM     28  H   UNL     1       0.317  -2.865   2.846  0.00  0.00    -0.082 HD
ENDBRANCH  24  27
ENDBRANCH  19  24
ENDBRANCH  18  22
ENDBRANCH  17  18
ENDBRANCH  16  17
ENDBRANCH  15  16
ENDBRANCH  13  15
ENDBRANCH   1  13
BRANCH   3  29
ATOM     29  N   UNL     1      -4.918   5.203  -7.341  0.00  0.00    -0.338 N 
ATOM     30  H   UNL     1      -5.137   5.686  -8.153  0.00  0.00    +0.146 HD
BRANCH  29  31
ATOM     31  C   UNL     1      -3.861   4.188  -7.356  0.00  0.00    +0.138 C 
BRANCH  31  32
ATOM     32  C   UNL     1      -3.278   4.090  -8.742  0.00  0.00    -0.012 A 
ATOM     33  C   UNL     1      -3.809   3.203  -9.666  0.00  0.00    +0.008 A 
ATOM     34  C   UNL     1      -3.244   3.150 -10.930  0.00  0.00    +0.020 A 
ATOM     35  C   UNL     1      -2.170   3.970 -11.223  0.00  0.00    +0.111 A 
ATOM     36  N   UNL     1      -1.687   4.798 -10.317  0.00  0.00    -0.263 NA
ATOM     37  C   UNL     1      -2.203   4.878  -9.106  0.00  0.00    +0.115 A 
ENDBRANCH  31  32
ENDBRANCH  29  31
ENDBRANCH   3  29
TORSDOF 13
