REMARK  Name = ZINC36249903
REMARK  18 active torsions:
REMARK  status: ('A' for Active; 'I' for Inactive)
REMARK    1  A    between atoms: C_1  and  C_2
REMARK    2  A    between atoms: C_2  and  C_3
REMARK    3  A    between atoms: C_3  and  C_4
REMARK    4  A    between atoms: C_4  and  O_6
REMARK    5  A    between atoms: O_6  and  C_7
REMARK    6  A    between atoms: C_7  and  C_8
REMARK    7  A    between atoms: C_8  and  C_10
REMARK    8  A    between atoms: C_8  and  O_37
REMARK    9  A    between atoms: C_10  and  N_11
REMARK   10  A    between atoms: N_11  and  C_12
REMARK   11  A    between atoms: N_11  and  C_33
REMARK   12  A    between atoms: C_12  and  C_13
REMARK   13  A    between atoms: C_14  and  C_27
REMARK   14  A    between atoms: C_17  and  N_18
REMARK   15  A    between atoms: N_18  and  C_19
REMARK   16  A    between atoms: N_18  and  C_20
REMARK   17  A    between atoms: C_20  and  C_21
REMARK   18  A    between atoms: C_33  and  C_34
REMARK                            x       y       z     vdW  Elec       q    Type
REMARK                         _______ _______ _______ _____ _____    ______ ____
ROOT
ATOM      1  C   UNL     1      -6.563  -8.607  -0.502  0.00  0.00    +0.025 A 
ATOM      2  C   UNL     1      -7.467  -8.940   0.527  0.00  0.00    +0.117 A 
ATOM      3  N   UNL     1      -8.590  -9.330  -0.031  0.00  0.00    -0.076 NA
ATOM      4  O   UNL     1      -8.430  -9.255  -1.435  0.00  0.00    -0.339 OA
ATOM      5  C   UNL     1      -7.188  -8.807  -1.690  0.00  0.00    +0.222 A 
ENDROOT
BRANCH   2   6
ATOM      6  C   UNL     1      -7.197  -8.864   1.985  0.00  0.00    +0.004 A 
ATOM      7  C   UNL     1      -5.979  -9.307   2.495  0.00  0.00    +0.010 A 
ATOM      8  C   UNL     1      -5.733  -9.233   3.851  0.00  0.00    +0.001 A 
ATOM      9  C   UNL     1      -6.694  -8.720   4.704  0.00  0.00    +0.000 A 
ATOM     10  C   UNL     1      -7.905  -8.278   4.203  0.00  0.00    +0.001 A 
ATOM     11  C   UNL     1      -8.159  -8.343   2.848  0.00  0.00    +0.010 A 
ENDBRANCH   2   6
BRANCH   5  12
ATOM     12  N   UNL     1      -6.643  -8.591  -2.942  0.00  0.00    -0.298 N 
ATOM     13  C   UNL     1      -6.713  -7.261  -3.552  0.00  0.00    +0.132 C 
BRANCH  12  14
ATOM     14  C   UNL     1      -5.996  -9.693  -3.659  0.00  0.00    +0.142 C 
BRANCH  14  15
ATOM     15  C   UNL     1      -6.988 -10.334  -4.596  0.00  0.00    -0.030 A 
ATOM     16  C   UNL     1      -7.843 -11.315  -4.130  0.00  0.00    +0.005 A 
ATOM     17  C   UNL     1      -8.753 -11.903  -4.989  0.00  0.00    +0.000 A 
ATOM     18  C   UNL     1      -8.807 -11.510  -6.313  0.00  0.00    +0.000 A 
ATOM     19  C   UNL     1      -7.952 -10.529  -6.778  0.00  0.00    +0.000 A 
ATOM     20  C   UNL     1      -7.046  -9.937  -5.918  0.00  0.00    +0.005 A 
ENDBRANCH  14  15
ENDBRANCH  12  14
ENDBRANCH   5  12
BRANCH   1  21
ATOM     21  C   UNL     1      -5.152  -8.110  -0.317  0.00  0.00    -0.035 C 
BRANCH  21  22
ATOM     22  N   UNL     1      -5.136  -6.643  -0.389  0.00  0.00    +0.384 N 
ATOM     23  H   UNL     1      -5.572  -6.344  -1.248  0.00  0.00    -0.081 HD
BRANCH  22  24
ATOM     24  C   UNL     1      -3.748  -6.166  -0.351  0.00  0.00    -0.075 C 
BRANCH  24  25
ATOM     25  C   UNL     1      -3.009  -6.647  -1.602  0.00  0.00    -0.028 C 
ATOM     26  C   UNL     1      -1.837  -7.610  -1.404  0.00  0.00    +0.002 C 
ATOM     27  C   UNL     1      -1.574  -6.158  -1.807  0.00  0.00    +0.002 C 
ENDBRANCH  24  25
ENDBRANCH  22  24
BRANCH  22  28
ATOM     28  C   UNL     1      -5.875  -6.089   0.753  0.00  0.00    -0.043 C 
BRANCH  28  29
ATOM     29  C   UNL     1      -5.966  -4.568   0.613  0.00  0.00    +0.136 C 
BRANCH  29  30
ATOM     30  O   UNL     1      -6.748  -4.242  -0.538  0.00  0.00    -0.390 OA
ATOM     31  H   UNL     1      -7.654  -4.580  -0.507  0.00  0.00    +0.210 HD
ENDBRANCH  29  30
BRANCH  29  32
ATOM     32  C   UNL     1      -6.625  -3.978   1.861  0.00  0.00    +0.261 C 
BRANCH  32  33
ATOM     33  O   UNL     1      -6.605  -2.552   1.782  0.00  0.00    -0.462 OA
BRANCH  33  34
ATOM     34  C   UNL     1      -7.149  -1.877   2.807  0.00  0.00    +0.307 C 
ATOM     35  O   UNL     1      -7.627  -2.478   3.740  0.00  0.00    -0.251 OA
BRANCH  34  36
ATOM     36  C   UNL     1      -7.164  -0.370   2.793  0.00  0.00    +0.120 C 
BRANCH  36  38
ATOM     37  C   UNL     1      -7.851   1.675   4.054  0.00  0.00    +0.004 C 
ATOM     38  C   UNL     1      -7.836   0.145   4.068  0.00  0.00    +0.008 C 
ENDBRANCH  36  38
ENDBRANCH  34  36
ENDBRANCH  33  34
ENDBRANCH  32  33
ENDBRANCH  29  32
ENDBRANCH  28  29
ENDBRANCH  22  28
ENDBRANCH  21  22
ENDBRANCH   1  21
TORSDOF 16
