REMARK  Name = ZINC45047577
REMARK  7 active torsions:
REMARK  status: ('A' for Active; 'I' for Inactive)
REMARK    1  A    between atoms: C_1  and  C_2
REMARK    2  A    between atoms: C_2  and  N_8
REMARK    3  A    between atoms: C_9  and  C_11
REMARK    4  A    between atoms: C_11  and  C_12
REMARK    5  A    between atoms: C_11  and  C_13
REMARK    6  A    between atoms: C_11  and  C_14
REMARK    7  A    between atoms: N_15  and  O_16
REMARK                            x       y       z     vdW  Elec       q    Type
REMARK                         _______ _______ _______ _____ _____    ______ ____
ROOT
ATOM      1  N   UNL     1      -1.372  -0.511   0.012  0.00  0.00    -0.309 N 
ATOM      2  C   UNL     1      -2.216  -0.192  -0.989  0.00  0.00    +0.226 C 
ATOM      3  O   UNL     1      -1.838   0.516  -1.898  0.00  0.00    -0.275 OA
ATOM      4  H   UNL     1      -1.675  -1.077   0.740  0.00  0.00    +0.149 HD
ENDROOT
BRANCH   1   6
ATOM      5  C   UNL     1      -0.019   1.526   0.010  0.00  0.00    +0.031 C 
ATOM      6  C   UNL     1       0.002  -0.004   0.002  0.00  0.00    +0.032 C 
ATOM      7  C   UNL     1       0.718  -0.497  -1.257  0.00  0.00    +0.025 C 
ATOM      8  C   UNL     1       0.739  -2.027  -1.265  0.00  0.00    +0.002 C 
ATOM      9  C   UNL     1       1.479  -2.534  -0.026  0.00  0.00    +0.000 C 
ATOM     10  C   UNL     1       0.763  -2.041   1.233  0.00  0.00    +0.002 C 
ATOM     11  C   UNL     1       0.742  -0.511   1.242  0.00  0.00    +0.025 C 
ENDBRANCH   1   6
BRANCH   2  12
ATOM     12  C   UNL     1      -3.630  -0.713  -0.978  0.00  0.00    +0.099 C 
ATOM     13  C   UNL     1      -3.609  -2.243  -0.986  0.00  0.00    +0.028 C 
ATOM     14  C   UNL     1      -4.346  -0.220   0.281  0.00  0.00    +0.028 C 
BRANCH  12  15
ATOM     15  C   UNL     1      -4.359  -0.214  -2.199  0.00  0.00    +0.146 C 
ATOM     16  N   UNL     1      -4.846  -1.055  -3.049  0.00  0.00    -0.076 NA
ATOM     17  N   UNL     1      -4.505   1.139  -2.408  0.00  0.00    -0.343 N 
ATOM     18  H   UNL     1      -4.139   1.771  -1.770  0.00  0.00    +0.144 HD
ATOM     19  H   UNL     1      -4.974   1.461  -3.194  0.00  0.00    +0.144 HD
BRANCH  16  20
ATOM     20  O   UNL     1      -5.531  -0.586  -4.196  0.00  0.00    -0.408 OA
ATOM     21  H   UNL     1      -5.860  -1.289  -4.773  0.00  0.00    +0.328 HD
ENDBRANCH  16  20
ENDBRANCH  12  15
ENDBRANCH   2  12
TORSDOF 4
