REMARK  Name = ZINC21152016
REMARK  6 active torsions:
REMARK  status: ('A' for Active; 'I' for Inactive)
REMARK    1  A    between atoms: C_1  and  C_2
REMARK    2  A    between atoms: C_2  and  C_3
REMARK    3  A    between atoms: C_6  and  C_24
REMARK    4  A    between atoms: C_8  and  S_9
REMARK    5  A    between atoms: S_9  and  N_12
REMARK    6  A    between atoms: N_15  and  C_18
REMARK                            x       y       z     vdW  Elec       q    Type
REMARK                         _______ _______ _______ _____ _____    ______ ____
ROOT
ATOM      1  C   UNL     1       0.059  -0.769  -1.258  0.00  0.00    -0.021 A 
ATOM      2  C   UNL     1      -0.016  -2.148  -1.333  0.00  0.00    +0.006 A 
ATOM      3  C   UNL     1      -0.080  -2.902  -0.179  0.00  0.00    +0.010 A 
ATOM      4  C   UNL     1      -0.070  -2.271   1.064  0.00  0.00    +0.004 A 
ATOM      5  C   UNL     1       0.010  -0.882   1.133  0.00  0.00    +0.039 A 
ATOM      6  C   UNL     1       0.069  -0.138  -0.028  0.00  0.00    +0.109 A 
ENDROOT
BRANCH   4   7
ATOM      7  C   UNL     1      -0.140  -3.076   2.308  0.00  0.00    +0.091 A 
ATOM      8  C   UNL     1      -0.222  -4.487   2.231  0.00  0.00    +0.035 A 
ATOM      9  C   UNL     1      -0.280  -5.194   3.395  0.00  0.00    +0.073 A 
ATOM     10  C   UNL     1      -0.264  -4.472   4.609  0.00  0.00    +0.265 A 
ATOM     11  O   UNL     1      -0.319  -5.062   5.676  0.00  0.00    -0.266 OA
ATOM     12  N   UNL     1      -0.189  -3.128   4.581  0.00  0.00    -0.243 N 
ATOM     13  H   UNL     1      -0.175  -2.558   5.521  0.00  0.00    +0.192 HD
ATOM     14  N   UNL     1      -0.130  -2.478   3.475  0.00  0.00    -0.171 NA
ENDBRANCH   4   7
BRANCH   6  15
ATOM     15  S   UNL     1       0.165   1.620   0.058  0.00  0.00    +0.061 S 
ATOM     16  O   UNL     1       1.529   1.962  -0.140  0.00  0.00    -0.153 OA
ATOM     17  O   UNL     1      -0.876   2.124  -0.768  0.00  0.00    -0.153 OA
BRANCH  15  18
ATOM     18  N   UNL     1      -0.212   2.055   1.611  0.00  0.00    -0.174 NA
ATOM     19  C   UNL     1      -1.612   2.210   2.034  0.00  0.00    +0.128 C 
ATOM     20  C   UNL     1      -1.824   1.386   3.313  0.00  0.00    +0.122 C 
ATOM     21  N   UNL     1      -0.826   1.782   4.316  0.00  0.00    -0.327 N 
ATOM     22  C   UNL     1       0.537   1.480   3.859  0.00  0.00    +0.122 C 
ATOM     23  C   UNL     1       0.846   2.302   2.603  0.00  0.00    +0.128 C 
BRANCH  21  24
ATOM     24  C   UNL     1      -1.086   1.178   5.548  0.00  0.00    +0.030 A 
ATOM     25  C   UNL     1      -0.109   0.408   6.166  0.00  0.00    +0.023 A 
ATOM     26  C   UNL     1      -0.368  -0.184   7.386  0.00  0.00    +0.002 A 
ATOM     27  C   UNL     1      -1.602  -0.020   7.988  0.00  0.00    +0.000 A 
ATOM     28  C   UNL     1      -2.579   0.742   7.373  0.00  0.00    +0.002 A 
ATOM     29  C   UNL     1      -2.325   1.341   6.155  0.00  0.00    +0.023 A 
ENDBRANCH  21  24
ENDBRANCH  15  18
ENDBRANCH   6  15
BRANCH   1  31
ATOM     30  C   UNL     1       1.594   0.326  -2.869  0.00  0.00    +0.009 C 
ATOM     31  C   UNL     1       0.130   0.049  -2.522  0.00  0.00    +0.034 C 
ENDBRANCH   1  31
TORSDOF 5
