REMARK  Name = ZINC35270421
REMARK  3 active torsions:
REMARK  status: ('A' for Active; 'I' for Inactive)
REMARK    1  A    between atoms: C_6  and  N_7
REMARK    2  A    between atoms: C_13  and  C_16
REMARK    3  A    between atoms: C_16  and  O_17
REMARK                            x       y       z     vdW  Elec       q    Type
REMARK                         _______ _______ _______ _____ _____    ______ ____
ROOT
ATOM      1  C   UNL     1       1.222   1.575   1.075  0.00  0.00    +0.053 A 
ATOM      2  C   UNL     1       1.194   2.039  -0.234  0.00  0.00    +0.038 A 
ATOM      3  C   UNL     1       1.166   1.129  -1.273  0.00  0.00    +0.128 A 
ATOM      4  N   UNL     1       1.166  -0.169  -1.036  0.00  0.00    -0.237 NA
ATOM      5  C   UNL     1       1.192  -0.650   0.197  0.00  0.00    +0.152 A 
ATOM      6  C   UNL     1       1.220   0.209   1.292  0.00  0.00    +0.167 A 
ATOM      7  N   UNL     1       1.190  -2.025   0.401  0.00  0.00    -0.313 N 
ATOM      8  C   UNL     1      -0.005  -2.857   0.634  0.00  0.00    +0.107 C 
ATOM      9  C   UNL     1       0.409  -4.281   0.184  0.00  0.00    +0.026 C 
ATOM     10  C   UNL     1       1.889  -4.336   0.648  0.00  0.00    +0.033 C 
ATOM     11  C   UNL     1       2.377  -2.892   0.412  0.00  0.00    +0.112 C 
ATOM     12 BR   UNL     1       1.194   3.896  -0.590  0.00  0.00    -0.049 Br
ENDROOT
BRANCH   6  13
ATOM     13  N   UNL     1       1.250  -0.333   2.669  0.00  0.00    +0.060 N 
ATOM     14  O   UNL     1       1.170   0.416   3.615  0.00  0.00    -0.126 OA
ATOM     15  O   UNL     1       1.354  -1.524   2.848  0.00  0.00    -0.126 OA
ENDBRANCH   6  13
BRANCH  10  16
ATOM     16  C   UNL     1       2.687  -5.324  -0.205  0.00  0.00    +0.161 C 
BRANCH  16  17
ATOM     17  O   UNL     1       2.212  -6.651   0.033  0.00  0.00    -0.395 OA
ATOM     18  H   UNL     1       2.674  -7.331  -0.476  0.00  0.00    +0.209 HD
ENDBRANCH  16  17
ENDBRANCH  10  16
TORSDOF 3
