REMARK  Name = ZINC50617896
REMARK  9 active torsions:
REMARK  status: ('A' for Active; 'I' for Inactive)
REMARK    1  A    between atoms: C_1  and  C_2
REMARK    2  A    between atoms: C_2  and  C_3
REMARK    3  A    between atoms: C_2  and  C_4
REMARK    4  A    between atoms: C_2  and  N_5
REMARK    5  A    between atoms: N_5  and  C_6
REMARK    6  A    between atoms: C_6  and  C_7
REMARK    7  A    between atoms: C_7  and  C_8
REMARK    8  A    between atoms: C_8  and  C_9
REMARK    9  A    between atoms: C_12  and  C_14
REMARK                            x       y       z     vdW  Elec       q    Type
REMARK                         _______ _______ _______ _____ _____    ______ ____
ROOT
ATOM      1  C   UNL     1       4.925  -0.419  -3.727  0.00  0.00    +0.218 A 
ATOM      2  N   UNL     1       4.969   0.193  -4.877  0.00  0.00    -0.112 NA
ATOM      3  N   UNL     1       5.658  -0.506  -5.710  0.00  0.00    -0.107 NA
ATOM      4  C   UNL     1       6.079  -1.597  -5.114  0.00  0.00    +0.248 A 
ATOM      5  O   UNL     1       5.627  -1.559  -3.845  0.00  0.00    -0.420 OA
ENDROOT
BRANCH   4   6
ATOM      6  C   UNL     1       6.901  -2.665  -5.721  0.00  0.00    +0.041 A 
ATOM      7  C   UNL     1       7.272  -3.778  -4.965  0.00  0.00    +0.033 A 
ATOM      8  C   UNL     1       8.040  -4.773  -5.538  0.00  0.00    +0.043 A 
ATOM      9  C   UNL     1       8.441  -4.668  -6.859  0.00  0.00    +0.040 A 
ATOM     10  C   UNL     1       8.076  -3.566  -7.613  0.00  0.00    +0.043 A 
ATOM     11  C   UNL     1       7.304  -2.568  -7.054  0.00  0.00    +0.033 A 
ATOM     12 CL   UNL     1       8.585  -3.443  -9.269  0.00  0.00    -0.083 Cl
ATOM     13 CL   UNL     1       8.503  -6.158  -4.599  0.00  0.00    -0.083 Cl
ENDBRANCH   4   6
BRANCH   1  14
ATOM     14  C   UNL     1       4.219   0.067  -2.487  0.00  0.00    +0.096 C 
BRANCH  14  15
ATOM     15  C   UNL     1       2.784  -0.463  -2.476  0.00  0.00    -0.010 C 
BRANCH  15  16
ATOM     16  C   UNL     1       2.068   0.031  -1.217  0.00  0.00    -0.081 C 
BRANCH  16  17
ATOM     17  N   UNL     1       0.690  -0.478  -1.207  0.00  0.00    +0.382 N 
ATOM     18  H   UNL     1       0.703  -1.487  -1.212  0.00  0.00    -0.085 HD
ATOM     19  H   UNL     1       0.202  -0.144  -2.024  0.00  0.00    -0.085 HD
BRANCH  17  21
ATOM     20  C   UNL     1      -0.019   1.526   0.010  0.00  0.00    -0.011 C 
ATOM     21  C   UNL     1       0.002  -0.004   0.002  0.00  0.00    -0.077 C 
ATOM     22  C   UNL     1       0.742  -0.511   1.242  0.00  0.00    -0.011 C 
ATOM     23  C   UNL     1      -1.433  -0.534   0.013  0.00  0.00    -0.011 C 
ENDBRANCH  17  21
ENDBRANCH  16  17
ENDBRANCH  15  16
ENDBRANCH  14  15
ENDBRANCH   1  14
TORSDOF 6
