REMARK  Name = ZINC66795692
REMARK  11 active torsions:
REMARK  status: ('A' for Active; 'I' for Inactive)
REMARK    1  A    between atoms: C_1  and  C_2
REMARK    2  A    between atoms: C_2  and  O_3
REMARK    3  A    between atoms: O_3  and  C_4
REMARK    4  A    between atoms: C_6  and  C_27
REMARK    5  A    between atoms: C_7  and  O_26
REMARK    6  A    between atoms: C_8  and  C_10
REMARK    7  A    between atoms: C_10  and  N_11
REMARK    8  A    between atoms: C_14  and  N_17
REMARK    9  A    between atoms: C_18  and  C_20
REMARK   10  A    between atoms: C_24  and  C_25
REMARK   11  A    between atoms: C_27  and  C_28
REMARK                            x       y       z     vdW  Elec       q    Type
REMARK                         _______ _______ _______ _____ _____    ______ ____
ROOT
ATOM      1  N   UNL     1      -4.668  -4.785   1.371  0.00  0.00    +0.383 N 
ATOM      2  C   UNL     1      -4.740  -3.606   2.243  0.00  0.00    -0.077 C 
ATOM      3  C   UNL     1      -5.023  -4.046   3.681  0.00  0.00    +0.004 C 
ATOM      4  C   UNL     1      -6.356  -4.798   3.726  0.00  0.00    +0.070 C 
ATOM      5  C   UNL     1      -6.295  -5.983   2.757  0.00  0.00    +0.004 C 
ATOM      6  C   UNL     1      -5.965  -5.471   1.354  0.00  0.00    -0.077 C 
ATOM      7  H   UNL     1      -3.960  -5.414   1.719  0.00  0.00    -0.081 HD
ENDROOT
BRANCH   4   8
ATOM      8  N   UNL     1      -6.596  -5.289   5.085  0.00  0.00    -0.309 N 
ATOM      9  C   UNL     1      -7.855  -5.520   5.506  0.00  0.00    +0.248 C 
ATOM     10  O   UNL     1      -8.792  -5.322   4.756  0.00  0.00    -0.270 OA
ATOM     11  H   UNL     1      -5.848  -5.447   5.683  0.00  0.00    +0.149 HD
BRANCH   9  12
ATOM     12  C   UNL     1      -8.097  -6.013   6.873  0.00  0.00    +0.077 A 
ATOM     13  C   UNL     1      -7.090  -6.299   7.906  0.00  0.00    +0.054 A 
ATOM     14  C   UNL     1      -7.773  -6.722   8.980  0.00  0.00    +0.196 A 
ATOM     15  O   UNL     1      -9.085  -6.718   8.697  0.00  0.00    -0.467 OA
ATOM     16  C   UNL     1      -9.302  -6.295   7.448  0.00  0.00    +0.114 A 
ATOM     17  C   UNL     1     -10.648  -6.155   6.785  0.00  0.00    +0.087 C 
ENDBRANCH   9  12
ENDBRANCH   4   8
BRANCH   1  18
ATOM     18  C   UNL     1      -4.320  -4.363   0.008  0.00  0.00    -0.039 C 
BRANCH  18  23
ATOM     19  C   UNL     1      -1.498  -1.849   0.006  0.00  0.00    +0.121 A 
ATOM     20  C   UNL     1      -0.387  -2.679  -0.003  0.00  0.00    +0.053 A 
ATOM     21  C   UNL     1      -0.549  -4.051  -0.009  0.00  0.00    +0.001 A 
ATOM     22  C   UNL     1      -1.824  -4.598  -0.006  0.00  0.00    +0.122 A 
ATOM     23  C   UNL     1      -2.935  -3.768   0.004  0.00  0.00    -0.019 A 
ATOM     24  C   UNL     1      -2.772  -2.397   0.016  0.00  0.00    +0.051 A 
BRANCH  22  25
ATOM     25  O   UNL     1      -1.984  -5.949  -0.012  0.00  0.00    -0.506 OA
ATOM     26  H   UNL     1      -2.025  -6.344   0.869  0.00  0.00    +0.292 HD
ENDBRANCH  22  25
BRANCH  19  27
ATOM     27  O   UNL     1      -1.339  -0.499   0.012  0.00  0.00    -0.492 OA
BRANCH  27  29
ATOM     28  C   UNL     1      -0.019   1.526   0.010  0.00  0.00    +0.048 C 
ATOM     29  C   UNL     1       0.002  -0.004   0.002  0.00  0.00    +0.225 C 
ENDBRANCH  27  29
ENDBRANCH  19  27
BRANCH  21  30
ATOM     30  C   UNL     1       0.658  -4.952  -0.020  0.00  0.00    +0.065 C 
BRANCH  30  31
ATOM     31  C   UNL     1       0.979  -5.345  -1.440  0.00  0.00    -0.030 C 
ATOM     32  C   UNL     1       2.176  -5.126  -1.925  0.00  0.00    +0.004 C 
ENDBRANCH  30  31
ENDBRANCH  21  30
ENDBRANCH  18  23
ENDBRANCH   1  18
TORSDOF 9
