REMARK  Name = ZINC21486607
REMARK  15 active torsions:
REMARK  status: ('A' for Active; 'I' for Inactive)
REMARK    1  A    between atoms: C_1  and  C_2
REMARK    2  A    between atoms: C_2  and  C_3
REMARK    3  A    between atoms: C_2  and  C_4
REMARK    4  A    between atoms: C_2  and  C_5
REMARK    5  A    between atoms: C_7  and  C_16
REMARK    6  A    between atoms: C_9  and  C_12
REMARK    7  A    between atoms: C_10  and  O_11
REMARK    8  A    between atoms: C_12  and  C_13
REMARK    9  A    between atoms: C_12  and  C_14
REMARK   10  A    between atoms: C_12  and  C_15
REMARK   11  A    between atoms: C_16  and  C_18
REMARK   12  A    between atoms: C_16  and  N_24
REMARK   13  A    between atoms: N_27  and  C_30
REMARK   14  A    between atoms: C_30  and  C_31
REMARK   15  A    between atoms: C_31  and  O_32
REMARK                            x       y       z     vdW  Elec       q    Type
REMARK                         _______ _______ _______ _____ _____    ______ ____
ROOT
ATOM      1  C   UNL     1       2.418   0.968  -4.270  0.00  0.00    -0.005 C 
ENDROOT
BRANCH   1   2
ATOM      2  N   UNL     1       2.172   0.489  -5.637  0.00  0.00    +0.389 N 
ATOM      3  C   UNL     1       2.714   1.457  -6.600  0.00  0.00    -0.062 C 
ATOM      4  C   UNL     1       2.474   0.950  -8.024  0.00  0.00    +0.066 C 
ATOM      5  N   UNL     1       1.032   0.772  -8.241  0.00  0.00    -0.304 NA
ATOM      6  C   UNL     1       0.470  -0.176  -7.268  0.00  0.00    +0.066 C 
ATOM      7  C   UNL     1       0.726   0.340  -5.851  0.00  0.00    -0.062 C 
ATOM      8  H   UNL     1       2.625  -0.403  -5.767  0.00  0.00    -0.080 HD
BRANCH   5   9
ATOM      9  C   UNL     1       0.756   0.339  -9.617  0.00  0.00    +0.112 C 
BRANCH   9  10
ATOM     10  C   UNL     1      -0.749   0.404  -9.881  0.00  0.00    +0.171 C 
BRANCH  10  11
ATOM     11  O   UNL     1      -1.185   1.763  -9.818  0.00  0.00    -0.394 OA
ATOM     12  H   UNL     1      -2.132   1.880  -9.976  0.00  0.00    +0.209 HD
ENDBRANCH  10  11
ENDBRANCH   9  10
ENDBRANCH   5   9
ENDBRANCH   1   2
BRANCH   1  15
ATOM     13  C   UNL     1       0.707  -0.490  -1.238  0.00  0.00    -0.000 A 
ATOM     14  C   UNL     1       1.217   0.419  -2.145  0.00  0.00    +0.010 A 
ATOM     15  C   UNL     1       1.864  -0.026  -3.283  0.00  0.00    -0.056 A 
ATOM     16  C   UNL     1       2.003  -1.382  -3.516  0.00  0.00    +0.010 A 
ATOM     17  C   UNL     1       1.496  -2.295  -2.612  0.00  0.00    -0.000 A 
ATOM     18  C   UNL     1       0.851  -1.851  -1.467  0.00  0.00    +0.124 A 
BRANCH  13  20
ATOM     19  C   UNL     1      -0.019   1.526   0.010  0.00  0.00    +0.015 C 
ATOM     20  C   UNL     1       0.002  -0.004   0.002  0.00  0.00    -0.009 C 
ATOM     21  C   UNL     1       0.742  -0.511   1.242  0.00  0.00    +0.015 C 
ATOM     22  C   UNL     1      -1.433  -0.534   0.013  0.00  0.00    +0.015 C 
ENDBRANCH  13  20
BRANCH  17  23
ATOM     23  C   UNL     1       1.648  -3.773  -2.867  0.00  0.00    -0.009 C 
ATOM     24  C   UNL     1       2.396  -3.989  -4.184  0.00  0.00    +0.015 C 
ATOM     25  C   UNL     1       2.438  -4.409  -1.722  0.00  0.00    +0.015 C 
ATOM     26  C   UNL     1       0.264  -4.420  -2.953  0.00  0.00    +0.015 C 
ENDBRANCH  17  23
BRANCH  18  27
ATOM     27  O   UNL     1       0.356  -2.747  -0.573  0.00  0.00    -0.506 OA
ATOM     28  H   UNL     1      -0.556  -3.015  -0.749  0.00  0.00    +0.292 HD
ENDBRANCH  18  27
ENDBRANCH   1  15
BRANCH   1  29
ATOM     29  C   UNL     1       3.901   1.121  -4.051  0.00  0.00    -0.039 A 
ATOM     30  C   UNL     1       4.397   2.199  -3.335  0.00  0.00    +0.005 A 
ATOM     31  C   UNL     1       5.769   2.299  -3.158  0.00  0.00    +0.020 A 
ATOM     32  C   UNL     1       6.590   1.327  -3.698  0.00  0.00    +0.111 A 
ATOM     33  N   UNL     1       6.083   0.315  -4.374  0.00  0.00    -0.263 NA
ATOM     34  C   UNL     1       4.783   0.185  -4.556  0.00  0.00    +0.113 A 
ENDBRANCH   1  29
TORSDOF 9
