REMARK  Name = ZINC12534597
REMARK  10 active torsions:
REMARK  status: ('A' for Active; 'I' for Inactive)
REMARK    1  A    between atoms: C_1  and  C_2
REMARK    2  A    between atoms: C_5  and  N_9
REMARK    3  A    between atoms: C_6  and  C_8
REMARK    4  A    between atoms: N_9  and  C_10
REMARK    5  A    between atoms: C_10  and  C_11
REMARK    6  A    between atoms: N_13  and  N_14
REMARK    7  A    between atoms: C_15  and  C_17
REMARK    8  A    between atoms: C_18  and  C_29
REMARK    9  A    between atoms: C_20  and  N_24
REMARK   10  A    between atoms: C_21  and  C_22
REMARK                            x       y       z     vdW  Elec       q    Type
REMARK                         _______ _______ _______ _____ _____    ______ ____
ROOT
ATOM      1  N   UNL     1      -0.966   1.736  -3.578  0.00  0.00    -0.230 N 
ATOM      2  C   UNL     1      -0.513   1.424  -4.808  0.00  0.00    +0.265 C 
ATOM      3  O   UNL     1       0.484   0.739  -4.933  0.00  0.00    -0.268 OA
ATOM      4  H   UNL     1      -1.761   2.283  -3.479  0.00  0.00    +0.173 HD
ENDROOT
BRANCH   2   5
ATOM      5  C   UNL     1      -1.225   1.911  -6.001  0.00  0.00    +0.098 A 
ATOM      6  C   UNL     1      -2.236   1.290  -6.665  0.00  0.00    +0.118 A 
ATOM      7  O   UNL     1      -2.619   2.051  -7.698  0.00  0.00    -0.442 OA
ATOM      8  C   UNL     1      -1.900   3.181  -7.764  0.00  0.00    +0.223 A 
ATOM      9  C   UNL     1      -0.994   3.183  -6.723  0.00  0.00    +0.127 A 
ATOM     10  C   UNL     1      -2.831  -0.044  -6.297  0.00  0.00    +0.087 C 
BRANCH   8  11
ATOM     11  N   UNL     1      -2.047   4.182  -8.715  0.00  0.00    -0.293 N 
ATOM     12  C   UNL     1      -1.316   5.336  -8.778  0.00  0.00    +0.094 A 
ATOM     13  C   UNL     1      -1.747   6.049  -9.837  0.00  0.00    +0.020 A 
ATOM     14  C   UNL     1      -2.787   5.318 -10.447  0.00  0.00    +0.020 A 
ATOM     15  C   UNL     1      -2.950   4.181  -9.742  0.00  0.00    +0.094 A 
ENDBRANCH   8  11
BRANCH   9  16
ATOM     16  C   UNL     1      -0.033   4.197  -6.410  0.00  0.00    +0.105 C 
ATOM     17  N   UNL     1       0.730   5.002  -6.162  0.00  0.00    -0.191 NA
ENDBRANCH   9  16
ENDBRANCH   2   5
BRANCH   1  20
ATOM     18  C   UNL     1      -0.742   1.585  -1.213  0.00  0.00    +0.246 C 
ATOM     19  O   UNL     1      -1.736   2.268  -1.088  0.00  0.00    -0.273 OA
ATOM     20  N   UNL     1      -0.288   1.272  -2.443  0.00  0.00    -0.233 N 
ATOM     21  H   UNL     1       0.507   0.726  -2.543  0.00  0.00    +0.173 HD
BRANCH  18  22
ATOM     22  C   UNL     1      -0.013   1.086   0.008  0.00  0.00    +0.199 C 
BRANCH  22  23
ATOM     23  N   UNL     1      -0.698   1.558   1.213  0.00  0.00    -0.335 N 
ATOM     24  H   UNL     1      -1.495   2.106   1.135  0.00  0.00    +0.147 HD
BRANCH  23  29
ATOM     25  C   UNL     1       1.308   0.190   6.338  0.00  0.00    +0.044 C 
ATOM     26  C   UNL     1       0.774   0.553   4.976  0.00  0.00    -0.050 A 
ATOM     27  C   UNL     1       1.423   0.105   3.839  0.00  0.00    +0.005 A 
ATOM     28  C   UNL     1       0.937   0.437   2.590  0.00  0.00    +0.023 A 
ATOM     29  C   UNL     1      -0.205   1.221   2.475  0.00  0.00    +0.030 A 
ATOM     30  C   UNL     1      -0.850   1.672   3.619  0.00  0.00    -0.029 A 
ATOM     31  C   UNL     1      -0.362   1.333   4.866  0.00  0.00    +0.008 A 
ATOM     32  C   UNL     1      -2.085   2.528   3.500  0.00  0.00    +0.045 C 
ENDBRANCH  23  29
ENDBRANCH  22  23
ENDBRANCH  18  22
ENDBRANCH   1  20
TORSDOF 7
