REMARK  Name = ZINC18085249
REMARK  7 active torsions:
REMARK  status: ('A' for Active; 'I' for Inactive)
REMARK    1  A    between atoms: C_1  and  O_2
REMARK    2  A    between atoms: O_2  and  C_3
REMARK    3  A    between atoms: C_11  and  C_29
REMARK    4  A    between atoms: C_12  and  N_13
REMARK    5  A    between atoms: C_14  and  C_16
REMARK    6  A    between atoms: C_29  and  O_31
REMARK    7  A    between atoms: O_31  and  C_32
REMARK                            x       y       z     vdW  Elec       q    Type
REMARK                         _______ _______ _______ _____ _____    ______ ____
ROOT
ATOM      1  C   UNL     1      -5.767   4.048   3.635  0.00  0.00    +0.122 A 
ATOM      2  C   UNL     1      -6.977   3.699   3.036  0.00  0.00    +0.046 A 
ATOM      3  C   UNL     1      -7.151   2.457   2.501  0.00  0.00    +0.015 A 
ATOM      4  C   UNL     1      -6.113   1.520   2.561  0.00  0.00    +0.022 A 
ATOM      5  C   UNL     1      -4.890   1.863   3.169  0.00  0.00    +0.052 A 
ATOM      6  C   UNL     1      -4.730   3.137   3.705  0.00  0.00    +0.072 A 
ATOM      7  N   UNL     1      -4.057   0.771   3.091  0.00  0.00    -0.347 N 
ATOM      8  H   UNL     1      -3.042   0.823   3.510  0.00  0.00    +0.166 HD
ATOM      9  C   UNL     1      -4.708  -0.274   2.448  0.00  0.00    +0.147 A 
ATOM     10  C   UNL     1      -5.979   0.137   2.100  0.00  0.00    +0.073 A 
ENDROOT
BRANCH  10  11
ATOM     11  N   UNL     1      -6.944  -0.616   1.441  0.00  0.00    -0.283 N 
ATOM     12  C   UNL     1      -8.250  -0.435   1.723  0.00  0.00    +0.224 C 
ATOM     13  O   UNL     1      -8.589   0.444   2.487  0.00  0.00    -0.275 OA
ATOM     14  H   UNL     1      -6.642  -1.360   0.688  0.00  0.00    +0.155 HD
BRANCH  12  15
ATOM     15  C   UNL     1      -9.288  -1.325   1.089  0.00  0.00    +0.049 C 
ATOM     16  C   UNL     1      -9.217  -1.188  -0.433  0.00  0.00    +0.019 C 
ATOM     17  C   UNL     1     -10.271  -2.091  -1.076  0.00  0.00    -0.008 C 
ATOM     18  C   UNL     1     -10.005  -3.546  -0.682  0.00  0.00    +0.007 C 
ATOM     19  C   UNL     1     -10.077  -3.683   0.841  0.00  0.00    -0.008 C 
ATOM     20  C   UNL     1      -9.023  -2.779   1.484  0.00  0.00    +0.019 C 
ATOM     21  C   UNL     1     -11.468  -3.268   1.325  0.00  0.00    +0.026 C 
ATOM     22  C   UNL     1     -11.733  -1.814   0.931  0.00  0.00    +0.047 C 
ATOM     23  C   UNL     1     -11.662  -1.677  -0.591  0.00  0.00    +0.026 C 
ATOM     24  C   UNL     1     -10.679  -0.911   1.574  0.00  0.00    +0.039 C 
ATOM     25 CL   UNL     1     -13.372  -1.326   1.502  0.00  0.00    -0.118 Cl
ENDBRANCH  12  15
ENDBRANCH  10  11
BRANCH   1  27
ATOM     26  C   UNL     1      -6.718   6.185   4.055  0.00  0.00    +0.277 C 
ATOM     27  O   UNL     1      -5.609   5.291   4.160  0.00  0.00    -0.495 OA
ENDBRANCH   1  27
BRANCH   9  28
ATOM     28  C   UNL     1      -4.157  -1.553   2.190  0.00  0.00    +0.357 C 
ATOM     29  O   UNL     1      -4.850  -2.428   1.707  0.00  0.00    -0.243 OA
BRANCH  28  30
ATOM     30  O   UNL     1      -2.862  -1.800   2.479  0.00  0.00    -0.463 OA
ATOM     31  C   UNL     1      -2.372  -3.112   2.193  0.00  0.00    +0.280 C 
ENDBRANCH  28  30
ENDBRANCH   9  28
TORSDOF 5
