REMARK  Name = ZINC39711495
REMARK  13 active torsions:
REMARK  status: ('A' for Active; 'I' for Inactive)
REMARK    1  A    between atoms: C_1  and  C_2
REMARK    2  A    between atoms: C_2  and  O_3
REMARK    3  A    between atoms: O_3  and  C_4
REMARK    4  A    between atoms: C_11  and  C_16
REMARK    5  A    between atoms: C_16  and  C_18
REMARK    6  A    between atoms: C_16  and  N_28
REMARK    7  A    between atoms: N_23  and  C_24
REMARK    8  A    between atoms: C_24  and  C_25
REMARK    9  A    between atoms: C_24  and  C_26
REMARK   10  A    between atoms: C_24  and  C_27
REMARK   11  A    between atoms: N_31  and  C_34
REMARK   12  A    between atoms: C_39  and  O_40
REMARK   13  A    between atoms: O_40  and  C_41
REMARK                            x       y       z     vdW  Elec       q    Type
REMARK                         _______ _______ _______ _____ _____    ______ ____
ROOT
ATOM      1  C   UNL     1       1.512  -6.219  -5.000  0.00  0.00    -0.009 C 
ENDROOT
BRANCH   1   9
ATOM      2  C   UNL     1       0.600  -1.335  -1.936  0.00  0.00    +0.121 A 
ATOM      3  C   UNL     1       0.246  -2.062  -0.793  0.00  0.00    +0.047 A 
ATOM      4  C   UNL     1       0.458  -3.399  -0.683  0.00  0.00    +0.027 A 
ATOM      5  C   UNL     1       1.054  -4.119  -1.735  0.00  0.00    +0.041 A 
ATOM      6  N   UNL     1       1.256  -5.431  -1.613  0.00  0.00    -0.285 N 
ATOM      7  C   UNL     1       1.811  -6.168  -2.560  0.00  0.00    +0.223 C 
ATOM      8  O   UNL     1       1.969  -7.362  -2.391  0.00  0.00    -0.275 OA
ATOM      9  C   UNL     1       2.247  -5.520  -3.855  0.00  0.00    +0.088 C 
ATOM     10  C   UNL     1       2.020  -4.028  -3.999  0.00  0.00    -0.006 C 
ATOM     11  C   UNL     1       1.438  -3.380  -2.951  0.00  0.00    -0.004 A 
ATOM     12  C   UNL     1       1.177  -1.942  -3.010  0.00  0.00    +0.055 A 
ATOM     13  H   UNL     1       0.984  -5.865  -0.789  0.00  0.00    +0.155 HD
BRANCH   2  14
ATOM     14  O   UNL     1       0.358   0.002  -1.976  0.00  0.00    -0.492 OA
BRANCH  14  16
ATOM     15  C   UNL     1      -0.442   2.087  -1.052  0.00  0.00    +0.048 C 
ATOM     16  C   UNL     1      -0.249   0.587  -0.822  0.00  0.00    +0.225 C 
ENDBRANCH  14  16
ENDBRANCH   2  14
ENDBRANCH   1   9
BRANCH   1  17
ATOM     17  N   UNL     1       1.840  -7.651  -4.991  0.00  0.00    +0.387 N 
ATOM     18  C   UNL     1       3.298  -7.817  -4.927  0.00  0.00    -0.059 C 
ATOM     19  C   UNL     1       3.636  -9.306  -4.802  0.00  0.00    +0.086 C 
ATOM     20  N   UNL     1       2.992 -10.025  -5.911  0.00  0.00    -0.331 N 
ATOM     21  C   UNL     1       1.559  -9.791  -6.151  0.00  0.00    +0.086 C 
ATOM     22  C   UNL     1       1.319  -8.279  -6.212  0.00  0.00    -0.059 C 
ATOM     23  H   UNL     1       1.419  -8.086  -4.184  0.00  0.00    -0.081 HD
BRANCH  20  24
ATOM     24  C   UNL     1       3.720 -10.909  -6.716  0.00  0.00    +0.072 A 
ATOM     25  C   UNL     1       3.805 -12.251  -6.375  0.00  0.00    +0.027 A 
ATOM     26  C   UNL     1       4.525 -13.122  -7.172  0.00  0.00    +0.002 A 
ATOM     27  C   UNL     1       5.162 -12.658  -8.309  0.00  0.00    +0.004 A 
ATOM     28  C   UNL     1       5.082 -11.322  -8.654  0.00  0.00    +0.047 A 
ATOM     29  C   UNL     1       4.358 -10.444  -7.864  0.00  0.00    +0.141 A 
BRANCH  29  30
ATOM     30  O   UNL     1       4.274  -9.130  -8.206  0.00  0.00    -0.493 OA
ATOM     31  C   UNL     1       4.952  -8.725  -9.396  0.00  0.00    +0.277 C 
ENDBRANCH  29  30
ENDBRANCH  20  24
ENDBRANCH   1  17
BRANCH   1  32
ATOM     32  C   UNL     1       0.003  -6.041  -4.822  0.00  0.00    +0.205 C 
ATOM     33  N   UNL     1      -0.483  -6.868  -3.709  0.00  0.00    -0.152 NA
ATOM     34  N   UNL     1      -1.305  -7.678  -4.144  0.00  0.00    -0.070 NA
ATOM     35  N   UNL     1      -1.510  -7.559  -5.518  0.00  0.00    -0.179 N 
ATOM     36  N   UNL     1      -0.720  -6.547  -6.007  0.00  0.00    -0.183 NA
ATOM     37  H   UNL     1      -2.115  -8.103  -6.045  0.00  0.00    +0.191 HD
BRANCH  36  38
ATOM     38  C   UNL     1      -1.535  -5.489  -6.619  0.00  0.00    +0.035 C 
ATOM     39  C   UNL     1      -0.633  -4.322  -7.027  0.00  0.00    +0.029 C 
ATOM     40  C   UNL     1      -2.244  -6.042  -7.856  0.00  0.00    +0.029 C 
ATOM     41  C   UNL     1      -2.577  -5.000  -5.610  0.00  0.00    +0.029 C 
ENDBRANCH  36  38
ENDBRANCH   1  32
TORSDOF 8
