REMARK  Name = ZINC64111568
REMARK  8 active torsions:
REMARK  status: ('A' for Active; 'I' for Inactive)
REMARK    1  A    between atoms: C_1  and  C_2
REMARK    2  A    between atoms: C_3  and  C_8
REMARK    3  A    between atoms: C_4  and  C_7
REMARK    4  A    between atoms: C_8  and  N_9
REMARK    5  A    between atoms: N_12  and  C_15
REMARK    6  A    between atoms: C_15  and  N_16
REMARK    7  A    between atoms: N_19  and  C_27
REMARK    8  A    between atoms: C_20  and  C_22
REMARK                            x       y       z     vdW  Elec       q    Type
REMARK                         _______ _______ _______ _____ _____    ______ ____
ROOT
ATOM      1  N   UNL     1       1.375  -0.174  -3.042  0.00  0.00    -0.301 NA
ATOM      2  C   UNL     1       2.044   0.919  -2.321  0.00  0.00    +0.066 C 
ATOM      3  C   UNL     1       3.494   1.028  -2.798  0.00  0.00    -0.061 C 
ATOM      4  N   UNL     1       3.516   1.286  -4.244  0.00  0.00    +0.394 N 
ATOM      5  C   UNL     1       2.866   0.174  -4.952  0.00  0.00    -0.061 C 
ATOM      6  C   UNL     1       1.411   0.058  -4.493  0.00  0.00    +0.066 C 
ATOM      7  H   UNL     1       3.022   2.143  -4.440  0.00  0.00    -0.079 HD
ENDROOT
BRANCH   1   8
ATOM      8  C   UNL     1      -0.005  -0.348  -2.571  0.00  0.00    +0.124 C 
BRANCH   8  11
ATOM      9  C   UNL     1      -0.018   1.503   0.010  0.00  0.00    +0.069 C 
ATOM     10  C   UNL     1       0.002  -0.004   0.002  0.00  0.00    +0.085 A 
ATOM     11  C   UNL     1       0.008  -0.824  -1.141  0.00  0.00    +0.031 A 
ATOM     12  C   UNL     1       0.027  -2.108  -0.735  0.00  0.00    +0.139 A 
ATOM     13  O   UNL     1       0.034  -2.119   0.606  0.00  0.00    -0.359 OA
ATOM     14  N   UNL     1       0.023  -0.775   1.052  0.00  0.00    -0.083 NA
ATOM     15  C   UNL     1       0.039  -3.320  -1.631  0.00  0.00    +0.089 C 
ENDBRANCH   8  11
ENDBRANCH   1   8
BRANCH   4  16
ATOM     16  C   UNL     1       4.908   1.408  -4.698  0.00  0.00    +0.072 C 
BRANCH  16  17
ATOM     17  N   UNL     1       4.928   1.784  -6.114  0.00  0.00    -0.257 N 
ATOM     18  C   UNL     1       5.217   0.970  -7.150  0.00  0.00    +0.176 A 
ATOM     19  S   UNL     1       5.626  -0.690  -7.047  0.00  0.00    -0.011 S 
ATOM     20  N   UNL     1       5.125   1.697  -8.281  0.00  0.00    -0.304 N 
ATOM     21  C   UNL     1       4.772   2.989  -7.938  0.00  0.00    +0.198 A 
ATOM     22  N   UNL     1       4.645   3.052  -6.639  0.00  0.00    -0.149 NA
ATOM     23  C   UNL     1       5.360   1.204  -9.640  0.00  0.00    +0.153 C 
BRANCH  21  24
ATOM     24  C   UNL     1       4.568   4.104  -8.877  0.00  0.00    +0.172 A 
ATOM     25  C   UNL     1       4.226   5.379  -8.543  0.00  0.00    +0.053 A 
ATOM     26  C   UNL     1       4.140   6.105  -9.747  0.00  0.00    +0.042 A 
ATOM     27  C   UNL     1       4.431   5.248 -10.746  0.00  0.00    +0.196 A 
ATOM     28  O   UNL     1       4.694   4.043 -10.218  0.00  0.00    -0.460 OA
ENDBRANCH  21  24
ENDBRANCH  16  17
ENDBRANCH   4  16
TORSDOF 5
