REMARK  Name = ZINC46289647
REMARK  7 active torsions:
REMARK  status: ('A' for Active; 'I' for Inactive)
REMARK    1  A    between atoms: C_1  and  N_2
REMARK    2  A    between atoms: N_2  and  C_3
REMARK    3  A    between atoms: C_5  and  C_10
REMARK    4  A    between atoms: C_10  and  N_11
REMARK    5  A    between atoms: N_14  and  N_15
REMARK    6  A    between atoms: C_16  and  C_18
REMARK    7  A    between atoms: C_18  and  C_19
REMARK                            x       y       z     vdW  Elec       q    Type
REMARK                         _______ _______ _______ _____ _____    ______ ____
ROOT
ATOM      1  N   UNL     1      -1.587  -2.894   0.520  0.00  0.00    -0.294 N 
ATOM      2  C   UNL     1      -1.915  -3.530   1.663  0.00  0.00    +0.316 C 
ATOM      3  O   UNL     1      -1.051  -4.060   2.333  0.00  0.00    -0.251 OA
ATOM      4  N   UNL     1      -3.202  -3.578   2.061  0.00  0.00    -0.218 N 
ATOM      5  H   UNL     1      -2.277  -2.471  -0.015  0.00  0.00    +0.151 HD
ATOM      6  H   UNL     1      -3.438  -4.035   2.884  0.00  0.00    +0.174 HD
ENDROOT
BRANCH   4   7
ATOM      7  N   UNL     1      -4.198  -2.967   1.289  0.00  0.00    -0.233 N 
ATOM      8  C   UNL     1      -5.485  -3.015   1.688  0.00  0.00    +0.230 C 
ATOM      9  O   UNL     1      -5.780  -3.587   2.716  0.00  0.00    -0.274 OA
ATOM     10  H   UNL     1      -3.962  -2.510   0.467  0.00  0.00    +0.173 HD
BRANCH   8  11
ATOM     11  C   UNL     1      -6.556  -2.358   0.856  0.00  0.00    +0.104 C 
BRANCH  11  12
ATOM     12  C   UNL     1      -7.917  -2.559   1.528  0.00  0.00    -0.020 C 
ATOM     13  C   UNL     1      -8.211  -4.055   1.648  0.00  0.00    +0.011 C 
ATOM     14  C   UNL     1      -9.571  -4.255   2.319  0.00  0.00    -0.010 C 
ATOM     15  C   UNL     1     -10.659  -3.588   1.475  0.00  0.00    +0.007 C 
ATOM     16  C   UNL     1     -10.365  -2.092   1.355  0.00  0.00    -0.010 C 
ATOM     17  C   UNL     1      -9.005  -1.892   0.683  0.00  0.00    +0.011 C 
ATOM     18  C   UNL     1     -10.344  -1.462   2.749  0.00  0.00    +0.007 C 
ATOM     19  C   UNL     1      -9.255  -2.129   3.593  0.00  0.00    -0.010 C 
ATOM     20  C   UNL     1      -9.549  -3.626   3.713  0.00  0.00    +0.007 C 
ATOM     21  C   UNL     1      -7.895  -1.929   2.922  0.00  0.00    +0.011 C 
ENDBRANCH  11  12
ENDBRANCH   8  11
ENDBRANCH   4   7
BRANCH   1  22
ATOM     22  C   UNL     1      -0.189  -2.842   0.087  0.00  0.00    +0.144 C 
BRANCH  22  27
ATOM     23  C   UNL     1      -1.566   0.419   0.462  0.00  0.00    +0.130 C 
ATOM     24  N   UNL     1      -0.244   0.001  -0.013  0.00  0.00    -0.323 N 
ATOM     25  C   UNL     1       0.950   0.310   0.777  0.00  0.00    +0.130 C 
ATOM     26  C   UNL     1      -0.124  -0.689  -1.214  0.00  0.00    +0.103 A 
ATOM     27  C   UNL     1      -0.093  -2.080  -1.210  0.00  0.00    +0.008 A 
ATOM     28  C   UNL     1       0.027  -2.753  -2.412  0.00  0.00    +0.010 A 
ATOM     29  C   UNL     1       0.113  -2.010  -3.582  0.00  0.00    +0.018 A 
ATOM     30  C   UNL     1       0.076  -0.632  -3.513  0.00  0.00    +0.084 A 
ATOM     31  N   UNL     1      -0.045  -0.016  -2.352  0.00  0.00    -0.349 N 
ATOM     32  H   UNL     1      -0.073   0.953  -2.331  0.00  0.00    +0.167 HD
ENDBRANCH  22  27
ENDBRANCH   1  22
TORSDOF 5
