REMARK  Name = ZINC16568795
REMARK  13 active torsions:
REMARK  status: ('A' for Active; 'I' for Inactive)
REMARK    1  A    between atoms: C_1  and  C_2
REMARK    2  A    between atoms: C_5  and  N_8
REMARK    3  A    between atoms: C_9  and  C_21
REMARK    4  A    between atoms: C_12  and  S_13
REMARK    5  A    between atoms: S_13  and  C_14
REMARK    6  A    between atoms: C_14  and  C_15
REMARK    7  A    between atoms: C_21  and  C_23
REMARK    8  A    between atoms: C_21  and  N_30
REMARK    9  A    between atoms: C_23  and  C_24
REMARK   10  A    between atoms: C_31  and  C_33
REMARK   11  A    between atoms: C_33  and  C_34
REMARK   12  A    between atoms: C_33  and  C_35
REMARK   13  A    between atoms: C_33  and  C_36
REMARK                            x       y       z     vdW  Elec       q    Type
REMARK                         _______ _______ _______ _____ _____    ______ ____
ROOT
ATOM      1  N   UNL     1       2.272  -3.626   0.229  0.00  0.00    -0.273 N 
ATOM      2  C   UNL     1       1.334  -2.629   0.195  0.00  0.00    +0.159 A 
ATOM      3  N   UNL     1       1.184  -2.195   1.415  0.00  0.00    -0.131 NA
ATOM      4  N   UNL     1       1.959  -2.840   2.212  0.00  0.00    -0.122 NA
ATOM      5  C   UNL     1       2.653  -3.729   1.539  0.00  0.00    +0.196 A 
ENDROOT
BRANCH   1  10
ATOM      6  C   UNL     1       4.186  -6.686  -4.152  0.00  0.00    +0.044 C 
ATOM      7  C   UNL     1       3.678  -5.874  -2.989  0.00  0.00    -0.050 A 
ATOM      8  C   UNL     1       4.535  -5.026  -2.312  0.00  0.00    +0.005 A 
ATOM      9  C   UNL     1       4.072  -4.280  -1.246  0.00  0.00    +0.026 A 
ATOM     10  C   UNL     1       2.745  -4.382  -0.853  0.00  0.00    +0.050 A 
ATOM     11  C   UNL     1       1.888  -5.239  -1.530  0.00  0.00    +0.026 A 
ATOM     12  C   UNL     1       2.355  -5.978  -2.599  0.00  0.00    +0.005 A 
ENDBRANCH   1  10
BRANCH   5  13
ATOM     13  S   UNL     1       3.845  -4.847   2.199  0.00  0.00    -0.081 S 
BRANCH  13  14
ATOM     14  C   UNL     1       3.777  -4.382   3.947  0.00  0.00    +0.112 C 
BRANCH  14  15
ATOM     15  C   UNL     1       4.744  -5.232   4.731  0.00  0.00    -0.037 A 
ATOM     16  C   UNL     1       4.323  -6.430   5.277  0.00  0.00    +0.004 A 
ATOM     17  C   UNL     1       5.211  -7.213   5.992  0.00  0.00    +0.000 A 
ATOM     18  C   UNL     1       6.516  -6.793   6.169  0.00  0.00    +0.000 A 
ATOM     19  C   UNL     1       6.935  -5.592   5.627  0.00  0.00    +0.000 A 
ATOM     20  C   UNL     1       6.048  -4.812   4.907  0.00  0.00    +0.004 A 
ENDBRANCH  14  15
ENDBRANCH  13  14
ENDBRANCH   5  13
BRANCH   2  21
ATOM     21  C   UNL     1       0.605  -2.129  -1.026  0.00  0.00    +0.146 C 
BRANCH  21  22
ATOM     22  N   UNL     1       0.585  -0.664  -1.018  0.00  0.00    -0.305 N 
ATOM     23  C   UNL     1       0.002  -0.004   0.002  0.00  0.00    +0.220 C 
ATOM     24  O   UNL     1      -0.506  -0.622   0.913  0.00  0.00    -0.275 OA
ATOM     25  H   UNL     1       0.992  -0.170  -1.747  0.00  0.00    +0.149 HD
BRANCH  23  26
ATOM     26  C   UNL     1      -0.018   1.503   0.010  0.00  0.00    +0.055 C 
ATOM     27  C   UNL     1       1.417   2.032  -0.001  0.00  0.00    +0.022 C 
ATOM     28  C   UNL     1      -0.758   2.010  -1.229  0.00  0.00    +0.022 C 
BRANCH  26  29
ATOM     29  C   UNL     1      -0.735   1.996   1.269  0.00  0.00    +0.124 C 
ATOM     30 CL   UNL     1      -0.759   3.799   1.279  0.00  0.00    -0.124 Cl
ENDBRANCH  26  29
ENDBRANCH  23  26
ENDBRANCH  21  22
BRANCH  21  31
ATOM     31  C   UNL     1      -0.830  -2.659  -1.015  0.00  0.00    +0.065 C 
BRANCH  31  32
ATOM     32  C   UNL     1      -1.522  -2.263  -2.294  0.00  0.00    -0.045 A 
ATOM     33  C   UNL     1      -2.214  -1.068  -2.364  0.00  0.00    +0.004 A 
ATOM     34  C   UNL     1      -2.844  -0.702  -3.539  0.00  0.00    +0.000 A 
ATOM     35  C   UNL     1      -2.791  -1.536  -4.641  0.00  0.00    +0.000 A 
ATOM     36  C   UNL     1      -2.103  -2.732  -4.569  0.00  0.00    +0.000 A 
ATOM     37  C   UNL     1      -1.468  -3.096  -3.396  0.00  0.00    +0.004 A 
ENDBRANCH  31  32
ENDBRANCH  21  31
ENDBRANCH   2  21
TORSDOF 10
