REMARK  Name = ZINC42427999
REMARK  4 active torsions:
REMARK  status: ('A' for Active; 'I' for Inactive)
REMARK    1  A    between atoms: C_3  and  N_9
REMARK    2  A    between atoms: C_6  and  N_7
REMARK    3  A    between atoms: C_12  and  C_15
REMARK    4  A    between atoms: C_15  and  C_16
REMARK                            x       y       z     vdW  Elec       q    Type
REMARK                         _______ _______ _______ _____ _____    ______ ____
ROOT
ATOM      1  N   UNL     1       3.584   2.132  -0.021  0.00  0.00    -0.329 N 
ATOM      2  C   UNL     1       4.212   2.527  -1.290  0.00  0.00    +0.105 C 
ATOM      3  C   UNL     1       4.466   4.037  -1.265  0.00  0.00    +0.023 C 
ATOM      4  C   UNL     1       5.285   4.393  -0.021  0.00  0.00    +0.001 C 
ATOM      5  C   UNL     1       4.497   4.014   1.235  0.00  0.00    +0.023 C 
ATOM      6  C   UNL     1       4.240   2.509   1.239  0.00  0.00    +0.105 C 
ENDROOT
BRANCH   1   9
ATOM      7  C   UNL     1      -0.017   1.384   0.010  0.00  0.00    +0.024 A 
ATOM      8  C   UNL     1       1.170   2.091   0.002  0.00  0.00    +0.026 A 
ATOM      9  C   UNL     1       2.381   1.415  -0.013  0.00  0.00    +0.048 A 
ATOM     10  C   UNL     1       2.401   0.025  -0.021  0.00  0.00    +0.064 A 
ATOM     11  C   UNL     1       1.214  -0.682  -0.013  0.00  0.00    +0.044 A 
ATOM     12  C   UNL     1       0.002  -0.004   0.002  0.00  0.00    +0.026 A 
ATOM     13 CL   UNL     1       3.916  -0.822  -0.040  0.00  0.00    -0.082 Cl
BRANCH  12  14
ATOM     14  N   UNL     1      -1.201  -0.720   0.010  0.00  0.00    -0.358 N 
ATOM     15  H   UNL     1      -2.047  -0.247   0.020  0.00  0.00    +0.142 HD
ATOM     16  H   UNL     1      -1.188  -1.690   0.004  0.00  0.00    +0.142 HD
ENDBRANCH  12  14
ENDBRANCH   1   9
BRANCH   4  17
ATOM     17  C   UNL     1       5.570   5.896  -0.011  0.00  0.00    +0.099 C 
BRANCH  17  18
ATOM     18  C   UNL     1       6.478   6.227   1.146  0.00  0.00    +0.211 C 
ATOM     19  O   UNL     1       6.859   5.347   1.888  0.00  0.00    -0.276 OA
ATOM     20  N   UNL     1       6.866   7.500   1.354  0.00  0.00    -0.329 N 
ATOM     21  H   UNL     1       6.561   8.204   0.760  0.00  0.00    +0.145 HD
ATOM     22  H   UNL     1       7.450   7.713   2.099  0.00  0.00    +0.145 HD
ENDBRANCH  17  18
ENDBRANCH   4  17
TORSDOF 4
