REMARK  Name = ZINC63385627
REMARK  14 active torsions:
REMARK  status: ('A' for Active; 'I' for Inactive)
REMARK    1  A    between atoms: C_1  and  C_2
REMARK    2  A    between atoms: C_7  and  O_36
REMARK    3  A    between atoms: C_8  and  O_32
REMARK    4  A    between atoms: C_13  and  C_15
REMARK    5  A    between atoms: C_15  and  C_16
REMARK    6  A    between atoms: N_18  and  C_19
REMARK    7  A    between atoms: C_19  and  C_20
REMARK    8  A    between atoms: C_20  and  C_21
REMARK    9  A    between atoms: C_24  and  O_30
REMARK   10  A    between atoms: O_30  and  C_31
REMARK   11  A    between atoms: O_32  and  C_33
REMARK   12  A    between atoms: C_33  and  C_35
REMARK   13  A    between atoms: O_36  and  C_37
REMARK   14  A    between atoms: C_37  and  C_39
REMARK                            x       y       z     vdW  Elec       q    Type
REMARK                         _______ _______ _______ _____ _____    ______ ____
ROOT
ATOM      1  C   UNL     1      -0.012   1.511   0.103  0.00  0.00    +0.013 C 
ATOM      2  C   UNL     1       0.006  -0.018   0.045  0.00  0.00    +0.034 C 
ATOM      3  C   UNL     1      -1.410  -0.536   0.040  0.00  0.00    +0.003 A 
ATOM      4  C   UNL     1      -2.114  -0.521  -1.155  0.00  0.00    +0.011 A 
ATOM      5  C   UNL     1      -3.415  -0.978  -1.210  0.00  0.00    +0.051 A 
ATOM      6  C   UNL     1      -4.030  -1.457  -0.063  0.00  0.00    +0.177 A 
ATOM      7  C   UNL     1      -3.331  -1.477   1.137  0.00  0.00    +0.216 A 
ATOM      8  C   UNL     1      -2.015  -1.018   1.187  0.00  0.00    +0.181 A 
ATOM      9  O   UNL     1      -1.357  -1.072   2.378  0.00  0.00    -0.421 OA
ATOM     10  C   UNL     1      -0.168  -0.444   2.461  0.00  0.00    +0.317 C 
ATOM     11  O   UNL     1       0.148   0.186   3.443  0.00  0.00    -0.250 OA
ATOM     12  C   UNL     1       0.753  -0.564   1.266  0.00  0.00    +0.114 C 
ENDROOT
BRANCH  12  13
ATOM     13  C   UNL     1       1.117  -2.033   1.037  0.00  0.00    +0.111 C 
BRANCH  13  14
ATOM     14  C   UNL     1       1.957  -2.527   2.186  0.00  0.00    +0.214 C 
ATOM     15  O   UNL     1       2.237  -1.778   3.099  0.00  0.00    -0.276 OA
ATOM     16  N   UNL     1       2.397  -3.801   2.200  0.00  0.00    -0.315 N 
ATOM     17  H   UNL     1       2.174  -4.399   1.471  0.00  0.00    +0.149 HD
BRANCH  16  18
ATOM     18  C   UNL     1       3.214  -4.281   3.318  0.00  0.00    +0.108 C 
BRANCH  18  19
ATOM     19  C   UNL     1       3.578  -5.750   3.089  0.00  0.00    +0.052 C 
BRANCH  19  20
ATOM     20  C   UNL     1       4.418  -6.244   4.238  0.00  0.00    -0.040 C 
ATOM     21  C   UNL     1       3.985  -6.903   5.337  0.00  0.00    +0.002 A 
ATOM     22  C   UNL     1       2.656  -7.339   5.777  0.00  0.00    +0.055 A 
ATOM     23  C   UNL     1       2.525  -7.995   6.955  0.00  0.00    +0.121 A 
ATOM     24  C   UNL     1       3.625  -8.277   7.783  0.00  0.00    +0.047 A 
ATOM     25  C   UNL     1       4.886  -7.915   7.465  0.00  0.00    +0.029 A 
ATOM     26  C   UNL     1       5.144  -7.200   6.211  0.00  0.00    +0.043 A 
ATOM     27  N   UNL     1       6.247  -6.744   5.674  0.00  0.00    -0.380 N 
ATOM     28  C   UNL     1       5.917  -6.109   4.393  0.00  0.00    +0.144 C 
ATOM     29  H   UNL     1       7.136  -6.817   6.057  0.00  0.00    +0.160 HD
BRANCH  23  30
ATOM     30  O   UNL     1       1.286  -8.393   7.350  0.00  0.00    -0.495 OA
ATOM     31  C   UNL     1       1.194  -9.081   8.599  0.00  0.00    +0.277 C 
ENDBRANCH  23  30
ENDBRANCH  19  20
ENDBRANCH  18  19
ENDBRANCH  16  18
ENDBRANCH  13  14
ENDBRANCH  12  13
BRANCH   7  32
ATOM     32  O   UNL     1      -3.930  -1.946   2.265  0.00  0.00    -0.418 OA
BRANCH  32  33
ATOM     33  C   UNL     1      -3.817  -3.254   2.541  0.00  0.00    +0.309 C 
ATOM     34  O   UNL     1      -3.195  -3.980   1.795  0.00  0.00    -0.251 OA
ATOM     35  C   UNL     1      -4.463  -3.821   3.779  0.00  0.00    +0.136 C 
ENDBRANCH  32  33
ENDBRANCH   7  32
BRANCH   6  36
ATOM     36  O   UNL     1      -5.313  -1.906  -0.113  0.00  0.00    -0.422 OA
BRANCH  36  37
ATOM     37  C   UNL     1      -6.288  -1.070   0.278  0.00  0.00    +0.309 C 
ATOM     38  O   UNL     1      -6.026   0.074   0.564  0.00  0.00    -0.251 OA
ATOM     39  C   UNL     1      -7.711  -1.560   0.360  0.00  0.00    +0.136 C 
ENDBRANCH  36  37
ENDBRANCH   6  36
TORSDOF 10
