REMARK  Name = ZINC39509306
REMARK  6 active torsions:
REMARK  status: ('A' for Active; 'I' for Inactive)
REMARK    1  A    between atoms: C_1  and  C_2
REMARK    2  A    between atoms: C_2  and  C_33
REMARK    3  A    between atoms: C_4  and  N_21
REMARK    4  A    between atoms: N_10  and  C_14
REMARK    5  A    between atoms: N_21  and  C_22
REMARK    6  A    between atoms: C_22  and  C_23
REMARK                            x       y       z     vdW  Elec       q    Type
REMARK                         _______ _______ _______ _____ _____    ______ ____
ROOT
ATOM      1  C   UNL     1      -0.500   1.406   1.914  0.00  0.00    +0.011 C 
ATOM      2  C   UNL     1      -0.779   0.179   1.044  0.00  0.00    -0.035 C 
ATOM      3  C   UNL     1      -2.225   0.229   0.562  0.00  0.00    -0.009 C 
ATOM      4  C   UNL     1      -2.614  -1.044  -0.208  0.00  0.00    -0.065 C 
ATOM      5  C   UNL     1      -2.384  -2.217   0.728  0.00  0.00    +0.012 C 
ATOM      6  C   UNL     1      -2.584  -3.614   0.124  0.00  0.00    +0.106 C 
ATOM      7  N   UNL     1      -1.645  -4.441   0.934  0.00  0.00    -0.240 NA
ATOM      8  N   UNL     1      -0.669  -3.632   1.483  0.00  0.00    -0.264 N 
ATOM      9  C   UNL     1      -0.849  -2.272   0.986  0.00  0.00    +0.094 C 
ATOM     10  C   UNL     1      -0.498  -1.092   1.863  0.00  0.00    +0.030 C 
ATOM     11  C   UNL     1       0.151   0.207  -0.171  0.00  0.00    +0.011 C 
ATOM     12  H   UNL     1      -1.235  -5.174   0.376  0.00  0.00    +0.144 HD
ENDROOT
BRANCH   8  13
ATOM     13  C   UNL     1       0.320  -4.039   2.384  0.00  0.00    +0.045 A 
ATOM     14  C   UNL     1      -0.013  -4.843   3.467  0.00  0.00    +0.027 A 
ATOM     15  C   UNL     1       0.965  -5.244   4.355  0.00  0.00    +0.040 A 
ATOM     16  C   UNL     1       2.278  -4.845   4.168  0.00  0.00    +0.124 A 
ATOM     17  C   UNL     1       2.612  -4.044   3.089  0.00  0.00    +0.040 A 
ATOM     18  C   UNL     1       1.638  -3.645   2.195  0.00  0.00    +0.027 A 
ATOM     19  F   UNL     1       3.233  -5.238   5.038  0.00  0.00    -0.205 F 
ENDBRANCH   8  13
BRANCH   4  20
ATOM     20  N   UNL     1      -1.772  -1.183  -1.404  0.00  0.00    +0.385 N 
ATOM     21  H   UNL     1      -0.800  -1.153  -1.136  0.00  0.00    -0.085 HD
ATOM     22  H   UNL     1      -1.971  -2.063  -1.855  0.00  0.00    -0.085 HD
BRANCH  20  23
ATOM     23  C   UNL     1      -2.058  -0.082  -2.334  0.00  0.00    -0.028 C 
BRANCH  23  24
ATOM     24  C   UNL     1      -1.195  -0.224  -3.561  0.00  0.00    -0.000 A 
ATOM     25  H   UNL     1       0.573   0.714  -2.985  0.00  0.00    +0.166 HD
ATOM     26  C   UNL     1      -1.571  -0.822  -4.702  0.00  0.00    +0.029 A 
ATOM     27  C   UNL     1      -0.436  -0.737  -5.625  0.00  0.00    -0.000 A 
ATOM     28  C   UNL     1      -0.216  -1.166  -6.935  0.00  0.00    +0.010 A 
ATOM     29  C   UNL     1       0.988  -0.925  -7.534  0.00  0.00    +0.001 A 
ATOM     30  C   UNL     1       1.995  -0.258  -6.850  0.00  0.00    +0.002 A 
ATOM     31  C   UNL     1       1.800   0.174  -5.556  0.00  0.00    +0.026 A 
ATOM     32  C   UNL     1       0.582  -0.060  -4.927  0.00  0.00    +0.047 A 
ATOM     33  N   UNL     1       0.086   0.242  -3.679  0.00  0.00    -0.360 N 
ENDBRANCH  23  24
ENDBRANCH  20  23
ENDBRANCH   4  20
TORSDOF 4
