REMARK  Name = ZINC65508557
REMARK  7 active torsions:
REMARK  status: ('A' for Active; 'I' for Inactive)
REMARK    1  A    between atoms: C_1  and  C_2
REMARK    2  A    between atoms: C_5  and  N_9
REMARK    3  A    between atoms: C_6  and  C_8
REMARK    4  A    between atoms: C_10  and  C_17
REMARK    5  A    between atoms: C_12  and  C_14
REMARK    6  A    between atoms: C_18  and  C_23
REMARK    7  A    between atoms: C_21  and  C_22
REMARK                            x       y       z     vdW  Elec       q    Type
REMARK                         _______ _______ _______ _____ _____    ______ ____
ROOT
ATOM      1  N   UNL     1       0.377  -4.627   0.208  0.00  0.00    -0.212 N 
ATOM      2  C   UNL     1       0.333  -5.386  -0.920  0.00  0.00    +0.169 A 
ATOM      3  N   UNL     1       0.197  -6.644  -0.550  0.00  0.00    -0.210 NA
ATOM      4  C   UNL     1       0.153  -6.720   0.778  0.00  0.00    +0.155 A 
ATOM      5  N   UNL     1       0.265  -5.521   1.285  0.00  0.00    -0.149 NA
ENDROOT
BRANCH   1  10
ATOM      6  C   UNL     1       0.930   1.014   0.501  0.00  0.00    +0.044 C 
ATOM      7  C   UNL     1       0.783  -0.484   0.423  0.00  0.00    -0.050 A 
ATOM      8  C   UNL     1       1.629  -1.219  -0.387  0.00  0.00    +0.005 A 
ATOM      9  C   UNL     1       1.497  -2.592  -0.461  0.00  0.00    +0.028 A 
ATOM     10  C   UNL     1       0.514  -3.234   0.281  0.00  0.00    +0.071 A 
ATOM     11  C   UNL     1      -0.334  -2.493   1.093  0.00  0.00    -0.025 A 
ATOM     12  C   UNL     1      -0.194  -1.121   1.166  0.00  0.00    +0.008 A 
ATOM     13  C   UNL     1      -1.402  -3.186   1.899  0.00  0.00    +0.046 C 
ENDBRANCH   1  10
BRANCH   2  14
ATOM     14  C   UNL     1       0.420  -4.890  -2.311  0.00  0.00    +0.084 A 
ATOM     15  C   UNL     1      -0.351  -3.844  -2.876  0.00  0.00    +0.091 A 
ATOM     16  N   UNL     1       0.013  -3.701  -4.116  0.00  0.00    -0.083 NA
ATOM     17  O   UNL     1       1.029  -4.647  -4.393  0.00  0.00    -0.359 OA
ATOM     18  C   UNL     1       1.261  -5.352  -3.277  0.00  0.00    +0.145 A 
ATOM     19  C   UNL     1       2.269  -6.461  -3.121  0.00  0.00    +0.090 C 
ATOM     20  C   UNL     1      -1.409  -3.039  -2.165  0.00  0.00    +0.070 C 
ENDBRANCH   2  14
BRANCH   4  21
ATOM     21  C   UNL     1       0.004  -7.992   1.573  0.00  0.00    +0.059 C 
ATOM     22  C   UNL     1      -0.229  -7.860   3.079  0.00  0.00    +0.012 C 
ATOM     23  C   UNL     1       1.124  -8.347   2.554  0.00  0.00    +0.012 C 
ENDBRANCH   4  21
TORSDOF 3
