REMARK  Name = ZINC08751007
REMARK  10 active torsions:
REMARK  status: ('A' for Active; 'I' for Inactive)
REMARK    1  A    between atoms: C_1  and  N_2
REMARK    2  A    between atoms: C_4  and  S_11
REMARK    3  A    between atoms: N_7  and  C_10
REMARK    4  A    between atoms: S_11  and  N_14
REMARK    5  A    between atoms: N_14  and  C_15
REMARK    6  A    between atoms: C_15  and  C_16
REMARK    7  A    between atoms: C_16  and  C_18
REMARK    8  A    between atoms: C_16  and  N_58
REMARK    9  A    between atoms: C_21  and  O_24
REMARK   10  A    between atoms: O_24  and  C_25
REMARK                            x       y       z     vdW  Elec       q    Type
REMARK                         _______ _______ _______ _____ _____    ______ ____
ROOT
ATOM      1  C   UNL     1      -0.986   1.742   3.410  0.00  0.00    +0.095 C 
ENDROOT
BRANCH   1   2
ATOM      2  N   UNL     1      -0.844   3.182   3.180  0.00  0.00    -0.191 NA
ATOM      3  H   UNL     1      -0.069   3.524   2.706  0.00  0.00    +0.148 HD
BRANCH   2   4
ATOM      4  S   UNL     1      -2.006   4.227   3.729  0.00  0.00    +0.065 S 
ATOM      5  O   UNL     1      -1.574   5.535   3.379  0.00  0.00    -0.153 OA
ATOM      6  O   UNL     1      -3.257   3.700   3.308  0.00  0.00    -0.153 OA
BRANCH   4  10
ATOM      7  C   UNL     1      -4.000   2.723   8.237  0.00  0.00    +0.153 C 
ATOM      8  N   UNL     1      -2.941   3.435   7.518  0.00  0.00    -0.301 N 
ATOM      9  C   UNL     1      -2.970   3.493   6.151  0.00  0.00    +0.124 A 
ATOM     10  C   UNL     1      -1.991   4.145   5.489  0.00  0.00    +0.186 A 
ATOM     11  C   UNL     1      -0.956   4.767   6.227  0.00  0.00    +0.283 A 
ATOM     12  O   UNL     1      -0.065   5.365   5.652  0.00  0.00    -0.265 OA
ATOM     13  N   UNL     1      -0.966   4.691   7.573  0.00  0.00    -0.262 N 
ATOM     14  C   UNL     1      -1.952   4.030   8.208  0.00  0.00    +0.332 A 
ATOM     15  O   UNL     1      -1.947   3.970   9.423  0.00  0.00    -0.246 OA
ATOM     16  C   UNL     1       0.101   5.331   8.348  0.00  0.00    +0.157 C 
ENDBRANCH   4  10
ENDBRANCH   2   4
ENDBRANCH   1   2
BRANCH   1  17
ATOM     17  C   UNL     1      -0.001   0.984   2.518  0.00  0.00    -0.022 C 
BRANCH  17  23
ATOM     18  C   UNL     1      -1.723   1.573   0.922  0.00  0.00    -0.078 C 
ATOM     19  C   UNL     1      -1.968   2.006  -0.526  0.00  0.00    -0.019 C 
ATOM     20  C   UNL     1      -1.540   0.879  -1.470  0.00  0.00    -0.004 C 
ATOM     21  C   UNL     1      -0.066   0.549  -1.222  0.00  0.00    -0.019 C 
ATOM     22  C   UNL     1       0.124   0.158   0.246  0.00  0.00    -0.078 C 
ATOM     23  N   UNL     1      -0.282   1.293   1.101  0.00  0.00    +0.385 N 
ATOM     24  H   UNL     1       0.255   2.125   0.828  0.00  0.00    -0.081 HD
ENDBRANCH  17  23
BRANCH  17  25
ATOM     25  C   UNL     1      -0.133  -0.496   2.769  0.00  0.00    -0.059 A 
ATOM     26  C   UNL     1      -1.276  -1.165   2.372  0.00  0.00    +0.005 A 
ATOM     27  C   UNL     1      -1.396  -2.523   2.596  0.00  0.00    +0.046 A 
ATOM     28  C   UNL     1      -0.374  -3.213   3.232  0.00  0.00    +0.120 A 
ATOM     29  C   UNL     1       0.769  -2.539   3.635  0.00  0.00    +0.046 A 
ATOM     30  C   UNL     1       0.887  -1.182   3.403  0.00  0.00    +0.005 A 
BRANCH  28  31
ATOM     31  O   UNL     1      -0.493  -4.548   3.459  0.00  0.00    -0.495 OA
ATOM     32  C   UNL     1      -1.698  -5.176   3.017  0.00  0.00    +0.277 C 
ENDBRANCH  28  31
ENDBRANCH  17  25
ENDBRANCH   1  17
TORSDOF 7
