REMARK  Name = ZINC34847047
REMARK  11 active torsions:
REMARK  status: ('A' for Active; 'I' for Inactive)
REMARK    1  A    between atoms: C_1  and  C_2
REMARK    2  A    between atoms: C_5  and  C_8
REMARK    3  A    between atoms: C_8  and  N_9
REMARK    4  A    between atoms: N_9  and  C_10
REMARK    5  A    between atoms: N_9  and  C_17
REMARK    6  A    between atoms: C_10  and  C_11
REMARK    7  A    between atoms: C_17  and  C_18
REMARK    8  A    between atoms: C_21  and  C_23
REMARK    9  A    between atoms: N_25  and  C_26
REMARK   10  A    between atoms: C_26  and  C_28
REMARK   11  A    between atoms: C_26  and  C_29
REMARK                            x       y       z     vdW  Elec       q    Type
REMARK                         _______ _______ _______ _____ _____    ______ ____
ROOT
ATOM      1  C   UNL     1       1.546  -6.107   0.011  0.00  0.00    -0.002 C 
ENDROOT
BRANCH   1   2
ATOM      2  C   UNL     1       2.979  -6.565   0.095  0.00  0.00    +0.090 A 
ATOM      3  C   UNL     1       3.660  -6.816   1.235  0.00  0.00    +0.043 A 
ATOM      4  C   UNL     1       4.953  -7.216   0.865  0.00  0.00    +0.055 A 
ATOM      5  C   UNL     1       4.997  -7.190  -0.500  0.00  0.00    +0.189 A 
ATOM      6  O   UNL     1       3.787  -6.796  -0.948  0.00  0.00    -0.457 OA
BRANCH   5   7
ATOM      7  C   UNL     1       6.154  -7.533  -1.332  0.00  0.00    +0.280 C 
ATOM      8  O   UNL     1       7.198  -7.879  -0.810  0.00  0.00    -0.267 OA
ATOM      9  N   UNL     1       6.063  -7.464  -2.675  0.00  0.00    -0.302 N 
ATOM     10  H   UNL     1       5.232  -7.187  -3.091  0.00  0.00    +0.150 HD
BRANCH   9  11
ATOM     11  C   UNL     1       7.220  -7.806  -3.506  0.00  0.00    +0.100 C 
ATOM     12  C   UNL     1       7.255  -9.319  -3.733  0.00  0.00    +0.033 C 
BRANCH  11  13
ATOM     13  C   UNL     1       7.110  -7.102  -4.834  0.00  0.00    -0.027 A 
ATOM     14  C   UNL     1       5.883  -6.996  -5.461  0.00  0.00    +0.005 A 
ATOM     15  C   UNL     1       5.783  -6.350  -6.679  0.00  0.00    +0.000 A 
ATOM     16  C   UNL     1       6.910  -5.809  -7.270  0.00  0.00    +0.000 A 
ATOM     17  C   UNL     1       8.137  -5.914  -6.642  0.00  0.00    +0.000 A 
ATOM     18  C   UNL     1       8.236  -6.556  -5.422  0.00  0.00    +0.005 A 
ENDBRANCH  11  13
ENDBRANCH   9  11
ENDBRANCH   5   7
ENDBRANCH   1   2
BRANCH   1  19
ATOM     19  N   UNL     1       1.500  -4.639   0.017  0.00  0.00    +0.390 N 
ATOM     20  H   UNL     1       1.987  -4.290   0.829  0.00  0.00    -0.080 HD
BRANCH  19  21
ATOM     21  C   UNL     1       0.101  -4.193   0.056  0.00  0.00    -0.042 C 
BRANCH  21  26
ATOM     22  C   UNL     1      -2.282  -5.757   5.083  0.00  0.00    +0.044 C 
ATOM     23  C   UNL     1      -1.661  -5.349   3.772  0.00  0.00    -0.050 A 
ATOM     24  C   UNL     1      -0.928  -4.179   3.688  0.00  0.00    +0.003 A 
ATOM     25  C   UNL     1      -0.358  -3.805   2.486  0.00  0.00    +0.002 A 
ATOM     26  C   UNL     1      -0.520  -4.601   1.367  0.00  0.00    -0.064 A 
ATOM     27  C   UNL     1      -1.251  -5.771   1.451  0.00  0.00    +0.002 A 
ATOM     28  C   UNL     1      -1.818  -6.147   2.655  0.00  0.00    +0.003 A 
ENDBRANCH  21  26
ENDBRANCH  19  21
BRANCH  19  29
ATOM     29  C   UNL     1       2.144  -4.124  -1.199  0.00  0.00    -0.042 C 
BRANCH  29  30
ATOM     30  C   UNL     1       2.225  -2.621  -1.126  0.00  0.00    -0.064 A 
ATOM     31  C   UNL     1       1.249  -1.847  -1.725  0.00  0.00    +0.002 A 
ATOM     32  C   UNL     1       1.324  -0.468  -1.659  0.00  0.00    +0.000 A 
ATOM     33  C   UNL     1       2.374   0.136  -0.993  0.00  0.00    +0.000 A 
ATOM     34  C   UNL     1       3.349  -0.638  -0.393  0.00  0.00    +0.000 A 
ATOM     35  C   UNL     1       3.272  -2.017  -0.456  0.00  0.00    +0.002 A 
ENDBRANCH  29  30
ENDBRANCH  19  29
ENDBRANCH   1  19
TORSDOF 9
