REMARK  Name = ZINC39665782
REMARK  14 active torsions:
REMARK  status: ('A' for Active; 'I' for Inactive)
REMARK    1  A    between atoms: C_1  and  C_2
REMARK    2  A    between atoms: C_4  and  C_11
REMARK    3  A    between atoms: N_5  and  C_7
REMARK    4  A    between atoms: C_7  and  C_8
REMARK    5  A    between atoms: C_7  and  C_9
REMARK    6  A    between atoms: C_7  and  C_10
REMARK    7  A    between atoms: C_15  and  C_24
REMARK    8  A    between atoms: N_26  and  C_27
REMARK    9  A    between atoms: C_27  and  C_28
REMARK   10  A    between atoms: C_28  and  C_30
REMARK   11  A    between atoms: C_28  and  O_31
REMARK   12  A    between atoms: O_31  and  C_32
REMARK   13  A    between atoms: C_35  and  O_38
REMARK   14  A    between atoms: O_38  and  C_39
REMARK                            x       y       z     vdW  Elec       q    Type
REMARK                         _______ _______ _______ _____ _____    ______ ____
ROOT
ATOM      1  C   UNL     1       0.575  -5.497  -2.980  0.00  0.00    +0.265 C 
ATOM      2  O   UNL     1       0.446  -5.646  -4.180  0.00  0.00    -0.268 OA
ATOM      3  N   UNL     1       0.335  -6.526  -2.143  0.00  0.00    -0.295 N 
ATOM      4  C   UNL     1       0.309  -6.504  -0.662  0.00  0.00    +0.121 C 
ATOM      5  C   UNL     1      -0.869  -7.428  -0.279  0.00  0.00    +0.100 C 
ATOM      6  C   UNL     1      -1.040  -8.366  -1.486  0.00  0.00    -0.004 C 
ATOM      7  C   UNL     1       0.031  -7.933  -2.497  0.00  0.00    +0.115 C 
ATOM      8  C   UNL     1      -0.817  -9.815  -1.066  0.00  0.00    -0.010 C 
ATOM      9  C   UNL     1      -1.051 -10.732  -2.270  0.00  0.00    -0.082 C 
ATOM     10  N   UNL     1      -2.420 -10.552  -2.767  0.00  0.00    +0.379 N 
ATOM     11  C   UNL     1      -2.598  -9.179  -3.256  0.00  0.00    -0.082 C 
ATOM     12  C   UNL     1      -2.430  -8.196  -2.093  0.00  0.00    -0.010 C 
ATOM     13  H   UNL     1      -2.591 -11.200  -3.521  0.00  0.00    -0.086 HD
ATOM     14  H   UNL     1      -3.074 -10.729  -2.020  0.00  0.00    -0.086 HD
ENDROOT
BRANCH   1  18
ATOM     15  C   UNL     1       2.093  -1.746   0.078  0.00  0.00    +0.067 C 
ATOM     16  C   UNL     1       1.656  -2.546  -1.122  0.00  0.00    +0.061 A 
ATOM     17  C   UNL     1       1.333  -3.905  -1.131  0.00  0.00    +0.057 A 
ATOM     18  C   UNL     1       0.994  -4.193  -2.442  0.00  0.00    +0.124 A 
ATOM     19  N   UNL     1       1.127  -3.024  -3.136  0.00  0.00    -0.254 N 
ATOM     20  N   UNL     1       1.507  -2.090  -2.340  0.00  0.00    -0.175 NA
BRANCH  19  21
ATOM     21  C   UNL     1       0.870  -2.858  -4.569  0.00  0.00    +0.056 C 
ATOM     22  C   UNL     1      -0.548  -3.335  -4.891  0.00  0.00    +0.036 C 
ATOM     23  C   UNL     1       1.009  -1.382  -4.945  0.00  0.00    +0.036 C 
ATOM     24  C   UNL     1       1.880  -3.686  -5.367  0.00  0.00    +0.036 C 
ENDBRANCH  19  21
ENDBRANCH   1  18
BRANCH   5  25
ATOM     25  C   UNL     1      -0.534  -8.220   0.959  0.00  0.00    +0.218 C 
ATOM     26  O   UNL     1       0.623  -8.477   1.220  0.00  0.00    -0.275 OA
ATOM     27  N   UNL     1      -1.519  -8.642   1.776  0.00  0.00    -0.312 N 
ATOM     28  H   UNL     1      -2.446  -8.508   1.527  0.00  0.00    +0.149 HD
BRANCH  27  29
ATOM     29  C   UNL     1      -1.188  -9.303   3.041  0.00  0.00    +0.148 C 
BRANCH  29  30
ATOM     30  C   UNL     1      -2.479  -9.679   3.772  0.00  0.00    +0.187 C 
ATOM     31  C   UNL     1      -2.136 -10.256   5.147  0.00  0.00    +0.053 C 
BRANCH  30  32
ATOM     32  O   UNL     1      -3.191 -10.656   3.010  0.00  0.00    -0.488 OA
BRANCH  32  33
ATOM     33  C   UNL     1      -4.533 -10.739   3.213  0.00  0.00    +0.121 A 
ATOM     34  C   UNL     1      -5.298 -11.608   2.449  0.00  0.00    +0.049 A 
ATOM     35  C   UNL     1      -6.661 -11.692   2.655  0.00  0.00    +0.049 A 
ATOM     36  C   UNL     1      -7.265 -10.908   3.627  0.00  0.00    +0.120 A 
ATOM     37  C   UNL     1      -6.500 -10.039   4.391  0.00  0.00    +0.049 A 
ATOM     38  C   UNL     1      -5.136  -9.958   4.188  0.00  0.00    +0.049 A 
BRANCH  36  39
ATOM     39  O   UNL     1      -8.607 -10.990   3.829  0.00  0.00    -0.495 OA
ATOM     40  C   UNL     1      -9.162 -10.154   4.846  0.00  0.00    +0.277 C 
ENDBRANCH  36  39
ENDBRANCH  32  33
ENDBRANCH  30  32
ENDBRANCH  29  30
ENDBRANCH  27  29
ENDBRANCH   5  25
TORSDOF 8
