REMARK  Name = ZINC40156550
REMARK  6 active torsions:
REMARK  status: ('A' for Active; 'I' for Inactive)
REMARK    1  A    between atoms: C_1  and  C_2
REMARK    2  A    between atoms: C_6  and  C_7
REMARK    3  A    between atoms: C_7  and  O_9
REMARK    4  A    between atoms: O_9  and  C_10
REMARK    5  A    between atoms: C_13  and  C_16
REMARK    6  A    between atoms: C_16  and  C_23
REMARK                            x       y       z     vdW  Elec       q    Type
REMARK                         _______ _______ _______ _____ _____    ______ ____
ROOT
ATOM      1  C   UNL     1       0.094  -0.966   4.794  0.00  0.00    +0.132 A 
ATOM      2  C   UNL     1       0.036   0.372   5.159  0.00  0.00    +0.047 A 
ATOM      3  C   UNL     1       0.079   0.724   6.494  0.00  0.00    +0.010 A 
ATOM      4  C   UNL     1       0.179  -0.254   7.466  0.00  0.00    -0.015 A 
ATOM      5  C   UNL     1       0.237  -1.587   7.105  0.00  0.00    +0.010 A 
ATOM      6  C   UNL     1       0.189  -1.946   5.771  0.00  0.00    +0.047 A 
ENDROOT
BRANCH   4   7
ATOM      7  C   UNL     1       0.226   0.134   8.921  0.00  0.00    +0.135 C 
ATOM      8  C   UNL     1      -1.087   0.759   9.349  0.00  0.00    +0.248 C 
ATOM      9  O   UNL     1      -1.591   1.773   8.915  0.00  0.00    -0.273 OA
ATOM     10  N   UNL     1      -1.577  -0.045  10.313  0.00  0.00    -0.238 N 
ATOM     11  C   UNL     1      -0.765  -1.082  10.550  0.00  0.00    +0.307 C 
ATOM     12  O   UNL     1      -0.994  -1.944  11.377  0.00  0.00    -0.252 OA
ATOM     13  N   UNL     1       0.333  -1.064   9.773  0.00  0.00    -0.282 N 
ATOM     14  C   UNL     1       1.392   1.088   9.185  0.00  0.00    +0.047 C 
ATOM     15  H   UNL     1      -2.415   0.108  10.777  0.00  0.00    +0.159 HD
ATOM     16  H   UNL     1       1.054  -1.712   9.774  0.00  0.00    +0.152 HD
ENDBRANCH   4   7
BRANCH   1  17
ATOM     17  O   UNL     1       0.053  -1.315   3.481  0.00  0.00    -0.420 OA
BRANCH  17  18
ATOM     18  C   UNL     1       1.175  -1.158   2.748  0.00  0.00    +0.380 C 
ATOM     19  O   UNL     1       2.155  -0.633   3.241  0.00  0.00    -0.241 OA
BRANCH  18  25
ATOM     20  C   UNL     1       3.627  -0.926   0.823  0.00  0.00    +0.048 C 
ATOM     21  C   UNL     1       2.279  -1.523   0.510  0.00  0.00    +0.003 A 
ATOM     22  C   UNL     1       1.878  -2.093  -0.707  0.00  0.00    +0.061 A 
ATOM     23  C   UNL     1       0.597  -2.503  -0.552  0.00  0.00    +0.171 A 
ATOM     24  O   UNL     1       0.200  -2.214   0.694  0.00  0.00    -0.441 OA
ATOM     25  C   UNL     1       1.212  -1.620   1.360  0.00  0.00    +0.216 A 
ATOM     26 BR   UNL     1      -0.457  -3.347  -1.876  0.00  0.00    -0.008 Br
ENDBRANCH  18  25
ENDBRANCH  17  18
ENDBRANCH   1  17
TORSDOF 4
