REMARK  Name = ZINC62038971
REMARK  10 active torsions:
REMARK  status: ('A' for Active; 'I' for Inactive)
REMARK    1  A    between atoms: C_1  and  C_2
REMARK    2  A    between atoms: C_5  and  C_9
REMARK    3  A    between atoms: C_7  and  C_8
REMARK    4  A    between atoms: C_10  and  C_34
REMARK    5  A    between atoms: C_17  and  S_19
REMARK    6  A    between atoms: S_19  and  C_20
REMARK    7  A    between atoms: C_20  and  C_21
REMARK    8  A    between atoms: N_23  and  C_24
REMARK    9  A    between atoms: C_26  and  N_31
REMARK   10  A    between atoms: C_29  and  O_30
REMARK                            x       y       z     vdW  Elec       q    Type
REMARK                         _______ _______ _______ _____ _____    ______ ____
ROOT
ATOM      1  C   UNL     1       0.025  -4.259  -0.090  0.00  0.00    +0.007 A 
ATOM      2  C   UNL     1      -1.025  -4.966   0.393  0.00  0.00    -0.003 A 
ATOM      3  S   UNL     1      -0.515  -6.659   0.166  0.00  0.00    -0.075 S 
ATOM      4  C   UNL     1       1.076  -6.375  -0.562  0.00  0.00    +0.093 A 
ATOM      5  C   UNL     1       1.175  -4.984  -0.619  0.00  0.00    +0.080 A 
ATOM      6  C   UNL     1       2.431  -4.460  -1.203  0.00  0.00    +0.283 A 
ATOM      7  O   UNL     1       2.615  -3.256  -1.292  0.00  0.00    -0.265 OA
ATOM      8  N   UNL     1       3.362  -5.318  -1.630  0.00  0.00    -0.185 NA
ATOM      9  C   UNL     1       3.207  -6.623  -1.553  0.00  0.00    +0.171 A 
ATOM     10  N   UNL     1       2.080  -7.174  -1.018  0.00  0.00    -0.328 N 
ATOM     11  C   UNL     1      -2.312  -4.447   0.980  0.00  0.00    +0.052 C 
ATOM     12  H   UNL     1       1.989  -8.138  -0.973  0.00  0.00    +0.168 HD
ENDROOT
BRANCH   1  17
ATOM     13  C   UNL     1      -0.061   1.499  -0.073  0.00  0.00    +0.044 C 
ATOM     14  C   UNL     1      -0.038  -0.008  -0.077  0.00  0.00    -0.048 A 
ATOM     15  C   UNL     1      -0.024  -0.694  -1.279  0.00  0.00    +0.004 A 
ATOM     16  C   UNL     1      -0.004  -2.073  -1.290  0.00  0.00    +0.009 A 
ATOM     17  C   UNL     1       0.003  -2.777  -0.086  0.00  0.00    -0.016 A 
ATOM     18  C   UNL     1      -0.011  -2.081   1.122  0.00  0.00    +0.012 A 
ATOM     19  C   UNL     1      -0.026  -0.701   1.120  0.00  0.00    -0.047 A 
ATOM     20  C   UNL     1      -0.035   0.054   2.425  0.00  0.00    +0.044 C 
ENDBRANCH   1  17
BRANCH   9  21
ATOM     21  S   UNL     1       4.487  -7.681  -2.142  0.00  0.00    -0.078 S 
BRANCH  21  22
ATOM     22  C   UNL     1       5.763  -6.536  -2.737  0.00  0.00    +0.173 C 
BRANCH  22  23
ATOM     23  C   UNL     1       6.931  -7.321  -3.275  0.00  0.00    +0.228 C 
ATOM     24  O   UNL     1       6.906  -8.534  -3.259  0.00  0.00    -0.275 OA
ATOM     25  N   UNL     1       8.004  -6.676  -3.774  0.00  0.00    -0.282 N 
ATOM     26  H   UNL     1       7.998  -5.709  -3.847  0.00  0.00    +0.155 HD
BRANCH  25  27
ATOM     27  C   UNL     1       9.128  -7.403  -4.188  0.00  0.00    +0.078 A 
ATOM     28  C   UNL     1       8.973  -8.654  -4.767  0.00  0.00    +0.059 A 
ATOM     29  C   UNL     1      10.084  -9.368  -5.175  0.00  0.00    +0.128 A 
ATOM     30  C   UNL     1      11.350  -8.840  -5.007  0.00  0.00    +0.036 A 
ATOM     31  C   UNL     1      11.512  -7.594  -4.430  0.00  0.00    +0.049 A 
ATOM     32  C   UNL     1      10.404  -6.868  -4.024  0.00  0.00    +0.138 A 
BRANCH  29  33
ATOM     33  N   UNL     1       9.916 -10.703  -5.792  0.00  0.00    +0.056 N 
ATOM     34  O   UNL     1       8.810 -11.167  -5.939  0.00  0.00    -0.126 OA
ATOM     35  O   UNL     1      10.887 -11.330  -6.149  0.00  0.00    -0.126 OA
ENDBRANCH  29  33
BRANCH  32  36
ATOM     36  O   UNL     1      10.562  -5.640  -3.463  0.00  0.00    -0.505 OA
ATOM     37  H   UNL     1      10.661  -5.658  -2.501  0.00  0.00    +0.292 HD
ENDBRANCH  32  36
ENDBRANCH  25  27
ENDBRANCH  22  23
ENDBRANCH  21  22
ENDBRANCH   9  21
TORSDOF 7
