REMARK  Name = ZINC09353328
REMARK  9 active torsions:
REMARK  status: ('A' for Active; 'I' for Inactive)
REMARK    1  A    between atoms: C_1  and  C_2
REMARK    2  A    between atoms: C_2  and  O_3
REMARK    3  A    between atoms: O_3  and  C_4
REMARK    4  A    between atoms: C_4  and  C_6
REMARK    5  A    between atoms: C_6  and  N_56
REMARK    6  A    between atoms: C_7  and  C_27
REMARK    7  A    between atoms: C_16  and  C_18
REMARK    8  A    between atoms: C_21  and  O_24
REMARK    9  A    between atoms: O_24  and  C_25
REMARK                            x       y       z     vdW  Elec       q    Type
REMARK                         _______ _______ _______ _____ _____    ______ ____
ROOT
ATOM      1  C   UNL     1       0.162   4.294   0.931  0.00  0.00    -0.001 C 
ATOM      2  C   UNL     1      -1.257   3.788   0.925  0.00  0.00    -0.035 A 
ATOM      3  C   UNL     1      -2.286   4.641   1.280  0.00  0.00    +0.019 A 
ATOM      4  C   UNL     1      -3.594   4.190   1.278  0.00  0.00    +0.018 A 
ATOM      5  C   UNL     1      -3.880   2.885   0.920  0.00  0.00    +0.017 A 
ATOM      6  C   UNL     1      -2.857   2.027   0.565  0.00  0.00    +0.024 A 
ATOM      7  C   UNL     1      -1.545   2.479   0.563  0.00  0.00    +0.028 A 
ATOM      8  N   UNL     1      -0.506   1.609   0.210  0.00  0.00    -0.353 N 
ATOM      9  C   UNL     1       0.822   2.184  -0.052  0.00  0.00    +0.049 C 
ATOM     10 BR   UNL     1      -4.995   5.362   1.765  0.00  0.00    -0.050 Br
ATOM     11  H   UNL     1      -0.658   0.653   0.138  0.00  0.00    +0.145 HD
ATOM     12  N   UNL     1       1.101   3.159   1.026  0.00  0.00    +0.409 N 
ATOM     13  H   UNL     1       0.976   2.698   1.935  0.00  0.00    -0.076 HD
ENDROOT
BRANCH   9  14
ATOM     14  C   UNL     1       1.864   1.095  -0.023  0.00  0.00    -0.044 A 
ATOM     15  C   UNL     1       2.660   0.872  -1.131  0.00  0.00    +0.007 A 
ATOM     16  C   UNL     1       3.620  -0.122  -1.105  0.00  0.00    +0.046 A 
ATOM     17  C   UNL     1       3.776  -0.904   0.031  0.00  0.00    +0.120 A 
ATOM     18  C   UNL     1       2.972  -0.681   1.139  0.00  0.00    +0.046 A 
ATOM     19  C   UNL     1       2.018   0.318   1.110  0.00  0.00    +0.007 A 
BRANCH  17  20
ATOM     20  O   UNL     1       4.715  -1.886   0.057  0.00  0.00    -0.495 OA
ATOM     21  C   UNL     1       5.506  -2.058  -1.121  0.00  0.00    +0.277 C 
ENDBRANCH  17  20
ENDBRANCH   9  14
BRANCH   1  22
ATOM     22  C   UNL     1       0.366   5.193   2.123  0.00  0.00    -0.057 A 
ATOM     23  C   UNL     1       0.605   4.645   3.369  0.00  0.00    +0.002 A 
ATOM     24  C   UNL     1       0.796   5.470   4.462  0.00  0.00    +0.000 A 
ATOM     25  C   UNL     1       0.739   6.843   4.309  0.00  0.00    +0.000 A 
ATOM     26  C   UNL     1       0.495   7.391   3.064  0.00  0.00    +0.000 A 
ATOM     27  C   UNL     1       0.308   6.566   1.971  0.00  0.00    +0.002 A 
ENDBRANCH   1  22
BRANCH  12  28
ATOM     28  C   UNL     1       2.493   3.645   0.922  0.00  0.00    +0.048 C 
BRANCH  28  29
ATOM     29  C   UNL     1       2.693   4.397  -0.369  0.00  0.00    +0.290 C 
ATOM     30  O   UNL     1       1.808   4.435  -1.190  0.00  0.00    -0.253 OA
BRANCH  29  31
ATOM     31  O   UNL     1       3.856   5.025  -0.607  0.00  0.00    -0.466 OA
BRANCH  31  33
ATOM     32  C   UNL     1       5.361   6.378  -1.961  0.00  0.00    +0.048 C 
ATOM     33  C   UNL     1       3.978   5.729  -1.870  0.00  0.00    +0.228 C 
ENDBRANCH  31  33
ENDBRANCH  29  31
ENDBRANCH  28  29
ENDBRANCH  12  28
TORSDOF 7
