REMARK  Name = ZINC59914764
REMARK  8 active torsions:
REMARK  status: ('A' for Active; 'I' for Inactive)
REMARK    1  A    between atoms: C_1  and  C_2
REMARK    2  A    between atoms: C_2  and  C_3
REMARK    3  A    between atoms: C_3  and  C_21
REMARK    4  A    between atoms: N_4  and  N_5
REMARK    5  A    between atoms: C_9  and  S_12
REMARK    6  A    between atoms: N_10  and  N_11
REMARK    7  A    between atoms: S_12  and  C_13
REMARK    8  A    between atoms: C_13  and  C_14
REMARK                            x       y       z     vdW  Elec       q    Type
REMARK                         _______ _______ _______ _____ _____    ______ ____
ROOT
ATOM      1  N   UNL     1       2.467  -1.583  -2.289  0.00  0.00    -0.204 N 
ATOM      2  C   UNL     1       3.664  -2.278  -2.180  0.00  0.00    +0.254 A 
ATOM      3  N   UNL     1       4.280  -2.580  -1.063  0.00  0.00    -0.109 NA
ATOM      4  N   UNL     1       5.448  -3.281  -1.389  0.00  0.00    -0.119 NA
ATOM      5  C   UNL     1       5.508  -3.384  -2.695  0.00  0.00    +0.210 A 
ATOM      6  N   UNL     1       4.404  -2.772  -3.217  0.00  0.00    -0.211 N 
ATOM      7  H   UNL     1       2.085  -1.410  -3.164  0.00  0.00    +0.177 HD
ENDROOT
BRANCH   1   9
ATOM      8  C   UNL     1       0.707  -0.490  -1.238  0.00  0.00    +0.034 C 
ATOM      9  N   UNL     1       1.811  -1.131  -1.137  0.00  0.00    -0.189 NA
ATOM     10  C   UNL     1       0.114  -0.222  -2.597  0.00  0.00    +0.062 C 
BRANCH   8  12
ATOM     11  C   UNL     1      -0.019   1.526   0.010  0.00  0.00    +0.010 C 
ATOM     12  C   UNL     1       0.002  -0.004   0.002  0.00  0.00    +0.049 C 
ENDBRANCH   8  12
ENDBRANCH   1   9
BRANCH   6  13
ATOM     13  N   UNL     1       4.095  -2.669  -4.544  0.00  0.00    -0.294 N 
ATOM     14  H   UNL     1       4.489  -1.830  -4.943  0.00  0.00    +0.163 HD
ATOM     15  H   UNL     1       4.399  -3.487  -5.051  0.00  0.00    +0.163 HD
ENDBRANCH   6  13
BRANCH   5  16
ATOM     16  S   UNL     1       6.784  -4.178  -3.614  0.00  0.00    -0.080 S 
BRANCH  16  17
ATOM     17  C   UNL     1       7.929  -4.782  -2.343  0.00  0.00    +0.112 C 
BRANCH  17  18
ATOM     18  C   UNL     1       9.084  -5.491  -3.003  0.00  0.00    -0.036 A 
ATOM     19  C   UNL     1       9.007  -6.848  -3.257  0.00  0.00    +0.004 A 
ATOM     20  C   UNL     1      10.065  -7.499  -3.863  0.00  0.00    +0.001 A 
ATOM     21  C   UNL     1      11.201  -6.794  -4.214  0.00  0.00    +0.015 A 
ATOM     22  C   UNL     1      11.278  -5.437  -3.961  0.00  0.00    +0.018 A 
ATOM     23  C   UNL     1      10.216  -4.784  -3.360  0.00  0.00    +0.019 A 
ATOM     24 BR   UNL     1      12.832  -4.472  -4.441  0.00  0.00    -0.050 Br
ENDBRANCH  17  18
ENDBRANCH  16  17
ENDBRANCH   5  16
TORSDOF 6
