REMARK  Name = ZINC39227540
REMARK  8 active torsions:
REMARK  status: ('A' for Active; 'I' for Inactive)
REMARK    1  A    between atoms: C_1  and  C_2
REMARK    2  A    between atoms: C_5  and  C_7
REMARK    3  A    between atoms: C_7  and  N_8
REMARK    4  A    between atoms: C_9  and  C_11
REMARK    5  A    between atoms: C_14  and  C_17
REMARK    6  A    between atoms: N_30  and  C_33
REMARK    7  A    between atoms: C_33  and  C_34
REMARK    8  A    between atoms: C_33  and  C_35
REMARK                            x       y       z     vdW  Elec       q    Type
REMARK                         _______ _______ _______ _____ _____    ______ ____
ROOT
ATOM      1  C   UNL     1       3.979  -6.118  -7.079  0.00  0.00    -0.017 A 
ATOM      2  C   UNL     1       3.416  -5.397  -8.136  0.00  0.00    +0.012 A 
ATOM      3  C   UNL     1       3.688  -5.741  -9.441  0.00  0.00    +0.047 A 
ATOM      4  C   UNL     1       4.530  -6.811  -9.723  0.00  0.00    +0.132 A 
ATOM      5  C   UNL     1       5.101  -7.537  -8.664  0.00  0.00    +0.060 A 
ATOM      6  C   UNL     1       4.828  -7.188  -7.343  0.00  0.00    +0.023 A 
ATOM      7  C   UNL     1       6.001  -8.663  -8.972  0.00  0.00    +0.170 C 
ATOM      8  O   UNL     1       6.683  -9.188  -8.117  0.00  0.00    -0.292 OA
ATOM      9  C   UNL     1       6.029  -9.133 -10.416  0.00  0.00    +0.127 C 
ATOM     10  C   UNL     1       5.975  -7.880 -11.300  0.00  0.00    +0.114 C 
ATOM     11  O   UNL     1       4.788  -7.145 -11.009  0.00  0.00    -0.485 OA
ATOM     12  C   UNL     1       7.202  -7.010 -11.018  0.00  0.00    +0.030 C 
ATOM     13  C   UNL     1       7.194  -5.806 -11.962  0.00  0.00    -0.075 C 
ATOM     14  N   UNL     1       7.229  -6.271 -13.354  0.00  0.00    +0.381 N 
ATOM     15  C   UNL     1       6.018  -7.044 -13.651  0.00  0.00    -0.075 C 
ATOM     16  C   UNL     1       5.979  -8.296 -12.772  0.00  0.00    +0.030 C 
ATOM     17  H   UNL     1       8.042  -6.853 -13.492  0.00  0.00    -0.081 HD
ENDROOT
BRANCH   1  21
ATOM     18  C   UNL     1       3.111  -5.030  -3.058  0.00  0.00    +0.037 A 
ATOM     19  C   UNL     1       2.543  -4.313  -4.114  0.00  0.00    +0.013 A 
ATOM     20  C   UNL     1       2.825  -4.666  -5.414  0.00  0.00    +0.009 A 
ATOM     21  C   UNL     1       3.677  -5.739  -5.678  0.00  0.00    -0.018 A 
ATOM     22  C   UNL     1       4.244  -6.456  -4.624  0.00  0.00    +0.009 A 
ATOM     23  C   UNL     1       3.968  -6.102  -3.323  0.00  0.00    +0.013 A 
BRANCH  18  25
ATOM     24  N   UNL     1       1.983  -3.620  -1.407  0.00  0.00    -0.304 N 
ATOM     25  C   UNL     1       2.810  -4.653  -1.662  0.00  0.00    +0.244 C 
ATOM     26  O   UNL     1       3.308  -5.274  -0.743  0.00  0.00    -0.270 OA
ATOM     27  H   UNL     1       1.586  -3.124  -2.140  0.00  0.00    +0.149 HD
BRANCH  24  28
ATOM     28  C   UNL     1       1.684  -3.245  -0.023  0.00  0.00    +0.179 C 
BRANCH  28  33
ATOM     29  C   UNL     1      -0.018   1.503   0.010  0.00  0.00    +0.086 C 
ATOM     30  C   UNL     1       0.002  -0.004   0.002  0.00  0.00    +0.102 A 
ATOM     31  C   UNL     1      -1.078  -0.805   0.003  0.00  0.00    +0.045 A 
ATOM     32  C   UNL     1      -0.601  -2.136  -0.007  0.00  0.00    +0.046 A 
ATOM     33  C   UNL     1       0.742  -2.069  -0.013  0.00  0.00    +0.122 A 
ATOM     34  O   UNL     1       1.102  -0.775  -0.013  0.00  0.00    -0.463 OA
ENDBRANCH  28  33
ENDBRANCH  24  28
ENDBRANCH  18  25
ENDBRANCH   1  21
BRANCH  14  35
ATOM     35  C   UNL     1       7.302  -5.112 -14.254  0.00  0.00    -0.075 C 
ATOM     36  C   UNL     1       8.570  -4.310 -13.951  0.00  0.00    -0.014 C 
ATOM     37  C   UNL     1       7.339  -5.596 -15.705  0.00  0.00    -0.014 C 
ENDBRANCH  14  35
TORSDOF 5
