REMARK  Name = ZINC67391690
REMARK  4 active torsions:
REMARK  status: ('A' for Active; 'I' for Inactive)
REMARK    1  A    between atoms: C_4  and  C_7
REMARK    2  A    between atoms: C_7  and  C_8
REMARK    3  A    between atoms: N_10  and  N_11
REMARK    4  A    between atoms: N_14  and  C_15
REMARK                            x       y       z     vdW  Elec       q    Type
REMARK                         _______ _______ _______ _____ _____    ______ ____
ROOT
ATOM      1  N   UNL     1       3.721  -4.016  -3.438  0.00  0.00    -0.218 N 
ATOM      2  C   UNL     1       4.322  -4.676  -4.447  0.00  0.00    +0.316 C 
ATOM      3  O   UNL     1       4.427  -5.886  -4.406  0.00  0.00    -0.251 OA
ATOM      4  N   UNL     1       4.809  -3.993  -5.503  0.00  0.00    -0.297 N 
ATOM      5  H   UNL     1       3.371  -4.508  -2.678  0.00  0.00    +0.174 HD
ATOM      6  H   UNL     1       4.726  -3.027  -5.536  0.00  0.00    +0.150 HD
ENDROOT
BRANCH   4   7
ATOM      7  C   UNL     1       5.463  -4.710  -6.600  0.00  0.00    +0.059 C 
ATOM      8  C   UNL     1       6.977  -4.880  -6.312  0.00  0.00    +0.002 C 
ATOM      9  C   UNL     1       7.689  -4.068  -7.426  0.00  0.00    -0.077 C 
ATOM     10  N   UNL     1       6.676  -3.082  -7.833  0.00  0.00    +0.383 N 
ATOM     11  C   UNL     1       5.417  -3.879  -7.886  0.00  0.00    -0.048 C 
ATOM     12  C   UNL     1       4.253  -2.902  -7.958  0.00  0.00    -0.014 C 
ATOM     13  C   UNL     1       4.382  -2.127  -9.280  0.00  0.00    -0.003 C 
ATOM     14  C   UNL     1       5.753  -1.459  -9.378  0.00  0.00    -0.019 C 
ATOM     15  C   UNL     1       6.883  -2.482  -9.145  0.00  0.00    -0.078 C 
ATOM     16  H   UNL     1       6.600  -2.360  -7.133  0.00  0.00    -0.081 HD
ENDBRANCH   4   7
BRANCH   1  19
ATOM     17  C   UNL     1       2.999  -1.962  -2.475  0.00  0.00    +0.229 C 
ATOM     18  O   UNL     1       2.561  -2.576  -1.526  0.00  0.00    -0.274 OA
ATOM     19  N   UNL     1       3.601  -2.621  -3.485  0.00  0.00    -0.233 N 
ATOM     20  H   UNL     1       3.951  -2.130  -4.245  0.00  0.00    +0.173 HD
BRANCH  17  21
ATOM     21  C   UNL     1       2.870  -0.461  -2.526  0.00  0.00    +0.101 C 
BRANCH  21  25
ATOM     22  C   UNL     1      -0.019   1.526   0.010  0.00  0.00    +0.000 C 
ATOM     23  C   UNL     1       1.417   2.055  -0.000  0.00  0.00    +0.000 C 
ATOM     24  C   UNL     1       2.133   1.562  -1.259  0.00  0.00    +0.004 C 
ATOM     25  C   UNL     1       2.154   0.032  -1.268  0.00  0.00    -0.002 C 
ATOM     26  C   UNL     1       0.718  -0.497  -1.257  0.00  0.00    +0.004 C 
ATOM     27  C   UNL     1       0.002  -0.004   0.002  0.00  0.00    +0.000 C 
ENDBRANCH  21  25
ENDBRANCH  17  21
ENDBRANCH   1  19
TORSDOF 4
