REMARK  Name = ZINC38670694
REMARK  6 active torsions:
REMARK  status: ('A' for Active; 'I' for Inactive)
REMARK    1  A    between atoms: C_1  and  N_2
REMARK    2  A    between atoms: C_10  and  C_12
REMARK    3  A    between atoms: C_12  and  C_14
REMARK    4  A    between atoms: C_12  and  N_27
REMARK    5  A    between atoms: C_14  and  N_15
REMARK    6  A    between atoms: N_18  and  C_19
REMARK                            x       y       z     vdW  Elec       q    Type
REMARK                         _______ _______ _______ _____ _____    ______ ____
ROOT
ATOM      1  C   UNL     1       5.262  -3.376  -0.610  0.00  0.00    -0.020 C 
ENDROOT
BRANCH   1  11
ATOM      2  C   UNL     1       1.104   1.651  -0.434  0.00  0.00    +0.129 C 
ATOM      3  N   UNL     1       0.878   0.210  -0.293  0.00  0.00    -0.333 N 
ATOM      4  C   UNL     1      -0.477  -0.316  -0.076  0.00  0.00    +0.105 C 
ATOM      5  C   UNL     1      -0.398  -1.371   1.034  0.00  0.00    +0.024 C 
ATOM      6  C   UNL     1       0.483  -2.526   0.556  0.00  0.00    +0.038 C 
ATOM      7  C   UNL     1       1.798  -2.006   0.039  0.00  0.00    -0.026 A 
ATOM      8  C   UNL     1       1.948  -0.688  -0.367  0.00  0.00    +0.033 A 
ATOM      9  C   UNL     1       3.174  -0.243  -0.850  0.00  0.00    +0.023 A 
ATOM     10  C   UNL     1       4.243  -1.112  -0.928  0.00  0.00    +0.004 A 
ATOM     11  C   UNL     1       4.094  -2.427  -0.526  0.00  0.00    -0.059 A 
ATOM     12  C   UNL     1       2.877  -2.871  -0.035  0.00  0.00    +0.007 A 
ENDBRANCH   1  11
BRANCH   1  13
ATOM     13  N   UNL     1       6.004  -3.130  -1.853  0.00  0.00    +0.385 N 
ATOM     14  C   UNL     1       7.042  -4.175  -2.045  0.00  0.00    -0.078 C 
ATOM     15  C   UNL     1       7.317  -4.126  -3.569  0.00  0.00    -0.020 C 
ATOM     16  C   UNL     1       5.915  -3.866  -4.165  0.00  0.00    -0.020 C 
ATOM     17  C   UNL     1       5.099  -3.242  -3.018  0.00  0.00    -0.078 C 
ATOM     18  H   UNL     1       6.430  -2.216  -1.830  0.00  0.00    -0.081 HD
ENDBRANCH   1  13
BRANCH   1  19
ATOM     19  C   UNL     1       6.186  -3.154   0.589  0.00  0.00    +0.095 C 
BRANCH  19  20
ATOM     20  N   UNL     1       5.486  -3.524   1.821  0.00  0.00    -0.300 N 
ATOM     21  C   UNL     1       6.140  -3.505   3.000  0.00  0.00    +0.304 C 
ATOM     22  O   UNL     1       7.311  -3.180   3.040  0.00  0.00    -0.253 OA
ATOM     23  N   UNL     1       5.496  -3.845   4.133  0.00  0.00    -0.265 N 
ATOM     24  H   UNL     1       4.552  -3.783   1.789  0.00  0.00    +0.150 HD
ATOM     25  H   UNL     1       4.573  -4.141   4.097  0.00  0.00    +0.157 HD
BRANCH  23  26
ATOM     26  C   UNL     1       6.160  -3.772   5.366  0.00  0.00    +0.106 A 
ATOM     27  C   UNL     1       5.912  -4.722   6.349  0.00  0.00    +0.147 A 
ATOM     28  C   UNL     1       6.569  -4.646   7.564  0.00  0.00    +0.040 A 
ATOM     29  C   UNL     1       7.473  -3.627   7.801  0.00  0.00    +0.006 A 
ATOM     30  C   UNL     1       7.723  -2.679   6.825  0.00  0.00    +0.040 A 
ATOM     31  C   UNL     1       7.073  -2.752   5.606  0.00  0.00    +0.147 A 
ATOM     32  F   UNL     1       7.322  -1.829   4.651  0.00  0.00    -0.203 F 
ATOM     33  F   UNL     1       5.029  -5.718   6.119  0.00  0.00    -0.203 F 
ENDBRANCH  23  26
ENDBRANCH  19  20
ENDBRANCH   1  19
TORSDOF 5
