REMARK  Name = ZINC65305811
REMARK  10 active torsions:
REMARK  status: ('A' for Active; 'I' for Inactive)
REMARK    1  A    between atoms: C_1  and  C_2
REMARK    2  A    between atoms: C_5  and  C_8
REMARK    3  A    between atoms: C_8  and  C_9
REMARK    4  A    between atoms: N_11  and  C_12
REMARK    5  A    between atoms: C_12  and  C_14
REMARK    6  A    between atoms: C_12  and  C_18
REMARK    7  A    between atoms: C_14  and  C_15
REMARK    8  A    between atoms: C_15  and  C_16
REMARK    9  A    between atoms: C_15  and  C_17
REMARK   10  A    between atoms: N_20  and  C_21
REMARK                            x       y       z     vdW  Elec       q    Type
REMARK                         _______ _______ _______ _____ _____    ______ ____
ROOT
ATOM      1  C   UNL     1       2.944  -6.348  -0.234  0.00  0.00    +0.159 C 
ENDROOT
BRANCH   1   4
ATOM      2  C   UNL     1       1.502  -4.396  -0.011  0.00  0.00    +0.218 C 
ATOM      3  O   UNL     1       2.465  -3.762   0.367  0.00  0.00    -0.275 OA
ATOM      4  N   UNL     1       1.627  -5.710  -0.286  0.00  0.00    -0.304 N 
ATOM      5  H   UNL     1       0.843  -6.233  -0.518  0.00  0.00    +0.149 HD
BRANCH   2   6
ATOM      6  C   UNL     1       0.168  -3.715  -0.174  0.00  0.00    +0.130 C 
BRANCH   6  11
ATOM      7  C   UNL     1       0.665   1.866   1.239  0.00  0.00    +0.044 C 
ATOM      8  C   UNL     1       0.536   0.410   0.871  0.00  0.00    -0.050 A 
ATOM      9  C   UNL     1       0.750   0.006  -0.434  0.00  0.00    +0.003 A 
ATOM     10  C   UNL     1       0.631  -1.329  -0.772  0.00  0.00    +0.004 A 
ATOM     11  C   UNL     1       0.298  -2.260   0.195  0.00  0.00    -0.039 A 
ATOM     12  C   UNL     1       0.085  -1.856   1.499  0.00  0.00    +0.004 A 
ATOM     13  C   UNL     1       0.208  -0.521   1.838  0.00  0.00    +0.003 A 
ENDBRANCH   6  11
ENDBRANCH   2   6
ENDBRANCH   1   4
BRANCH   1  14
ATOM     14  C   UNL     1       2.979  -7.509  -1.195  0.00  0.00    +0.236 C 
ATOM     15  O   UNL     1       1.942  -7.997  -1.593  0.00  0.00    -0.274 OA
ATOM     16  N   UNL     1       4.161  -8.004  -1.611  0.00  0.00    -0.277 N 
ATOM     17  H   UNL     1       4.988  -7.661  -1.239  0.00  0.00    +0.152 HD
BRANCH  16  18
ATOM     18  C   UNL     1       4.196  -9.061  -2.625  0.00  0.00    +0.269 C 
ATOM     19  N   UNL     1       3.873 -10.357  -2.014  0.00  0.00    -0.348 N 
ATOM     20  C   UNL     1       4.902 -11.135  -2.183  0.00  0.00    +0.061 A 
ATOM     21  C   UNL     1       5.176 -12.527  -1.799  0.00  0.00    +0.027 A 
ATOM     22  C   UNL     1       6.362 -13.084  -2.117  0.00  0.00    +0.002 A 
ATOM     23  C   UNL     1       7.366 -12.385  -2.811  0.00  0.00    +0.002 A 
ATOM     24  C   UNL     1       7.218 -11.106  -3.209  0.00  0.00    +0.027 A 
ATOM     25  C   UNL     1       5.965 -10.396  -2.917  0.00  0.00    +0.061 A 
ATOM     26  N   UNL     1       5.552  -9.188  -3.174  0.00  0.00    -0.348 N 
ATOM     27  H   UNL     1       3.045 -10.589  -1.566  0.00  0.00    +0.163 HD
ATOM     28  H   UNL     1       6.048  -8.499  -3.642  0.00  0.00    +0.163 HD
ENDBRANCH  16  18
ENDBRANCH   1  14
BRANCH   1  29
ATOM     29  C   UNL     1       3.211  -6.852   1.185  0.00  0.00    +0.034 C 
BRANCH  29  30
ATOM     30  C   UNL     1       4.637  -7.400   1.272  0.00  0.00    -0.015 C 
ATOM     31  C   UNL     1       5.635  -6.253   1.096  0.00  0.00    +0.007 C 
ATOM     32  C   UNL     1       4.849  -8.056   2.638  0.00  0.00    +0.007 C 
ENDBRANCH  29  30
ENDBRANCH   1  29
TORSDOF 7
