REMARK  Name = ZINC27974149
REMARK  7 active torsions:
REMARK  status: ('A' for Active; 'I' for Inactive)
REMARK    1  A    between atoms: C_1  and  C_2
REMARK    2  A    between atoms: C_2  and  C_3
REMARK    3  A    between atoms: C_6  and  O_9
REMARK    4  A    between atoms: O_9  and  C_10
REMARK    5  A    between atoms: C_10  and  C_11
REMARK    6  A    between atoms: C_14  and  C_16
REMARK    7  A    between atoms: N_18  and  C_19
REMARK                            x       y       z     vdW  Elec       q    Type
REMARK                         _______ _______ _______ _____ _____    ______ ____
ROOT
ATOM      1  C   UNL     1       2.220  -6.045  -0.668  0.00  0.00    +0.143 A 
ATOM      2  C   UNL     1       2.693  -6.180  -1.927  0.00  0.00    +0.049 A 
ATOM      3  C   UNL     1       2.629  -4.915  -2.530  0.00  0.00    +0.055 A 
ATOM      4  C   UNL     1       2.114  -4.061  -1.598  0.00  0.00    +0.190 A 
ATOM      5  O   UNL     1       1.877  -4.765  -0.472  0.00  0.00    -0.452 OA
ENDROOT
BRANCH   4   6
ATOM      6  C   UNL     1       1.868  -2.627  -1.785  0.00  0.00    +0.280 C 
ATOM      7  O   UNL     1       2.128  -2.099  -2.850  0.00  0.00    -0.267 OA
ATOM      8  N   UNL     1       1.353  -1.895  -0.778  0.00  0.00    -0.304 N 
ATOM      9  H   UNL     1       1.117  -2.372   0.185  0.00  0.00    +0.149 HD
BRANCH   8  10
ATOM     10  C   UNL     1       1.107  -0.463  -0.965  0.00  0.00    +0.096 C 
ATOM     11  C   UNL     1       0.002  -0.004   0.002  0.00  0.00    +0.046 C 
ATOM     12  C   UNL     1      -0.019   1.551   0.011  0.00  0.00    +0.168 C 
ATOM     13  S   UNL     1       1.788   1.913  -0.005  0.00  0.00    -0.029 S 
ATOM     14  O   UNL     1       2.044   2.949  -0.943  0.00  0.00    -0.174 OA
ATOM     15  O   UNL     1       2.243   2.053   1.334  0.00  0.00    -0.174 OA
ATOM     16  C   UNL     1       2.411   0.322  -0.686  0.00  0.00    +0.188 C 
ENDBRANCH   8  10
ENDBRANCH   4   6
BRANCH   1  17
ATOM     17  C   UNL     1       2.103  -7.151   0.349  0.00  0.00    +0.303 C 
BRANCH  17  18
ATOM     18  O   UNL     1       3.311  -7.228   1.109  0.00  0.00    -0.484 OA
BRANCH  18  22
ATOM     19  C   UNL     1       3.494 -10.120   4.046  0.00  0.00    -0.047 A 
ATOM     20  C   UNL     1       4.573  -9.280   3.835  0.00  0.00    +0.007 A 
ATOM     21  C   UNL     1       4.514  -8.311   2.852  0.00  0.00    +0.046 A 
ATOM     22  C   UNL     1       3.371  -8.180   2.076  0.00  0.00    +0.121 A 
ATOM     23  C   UNL     1       2.288  -9.020   2.293  0.00  0.00    +0.046 A 
ATOM     24  C   UNL     1       2.354  -9.991   3.274  0.00  0.00    +0.007 A 
BRANCH  19  26
ATOM     25  C   UNL     1       3.042 -10.598   6.437  0.00  0.00    +0.009 C 
ATOM     26  C   UNL     1       3.561 -11.176   5.119  0.00  0.00    +0.032 C 
ENDBRANCH  19  26
ENDBRANCH  18  22
ENDBRANCH  17  18
ENDBRANCH   1  17
TORSDOF 6
