REMARK  Name = ZINC00661887
REMARK  6 active torsions:
REMARK  status: ('A' for Active; 'I' for Inactive)
REMARK    1  A    between atoms: C_1  and  C_2
REMARK    2  A    between atoms: C_2  and  C_3
REMARK    3  A    between atoms: C_11  and  N_27
REMARK    4  A    between atoms: C_12  and  C_16
REMARK    5  A    between atoms: N_18  and  C_19
REMARK    6  A    between atoms: C_19  and  C_20
REMARK                            x       y       z     vdW  Elec       q    Type
REMARK                         _______ _______ _______ _____ _____    ______ ____
ROOT
ATOM      1  C   UNL     1      -2.164   1.050   1.278  0.00  0.00    -0.007 C 
ATOM      2  C   UNL     1      -2.916   1.621   2.485  0.00  0.00    +0.010 C 
ATOM      3  C   UNL     1      -4.397   1.278   2.337  0.00  0.00    +0.056 C 
ATOM      4  C   UNL     1      -4.575  -0.194   2.071  0.00  0.00    +0.046 A 
ATOM      5  C   UNL     1      -3.542  -1.000   1.629  0.00  0.00    -0.025 A 
ATOM      6  C   UNL     1      -3.767  -2.342   1.388  0.00  0.00    +0.017 A 
ATOM      7  C   UNL     1      -5.056  -2.884   1.599  0.00  0.00    +0.029 A 
ATOM      8  C   UNL     1      -5.513  -4.252   1.411  0.00  0.00    +0.053 A 
ATOM      9  C   UNL     1      -6.830  -4.545   1.688  0.00  0.00    +0.097 A 
ATOM     10  S   UNL     1      -7.500  -2.978   2.210  0.00  0.00    -0.062 S 
ATOM     11  C   UNL     1      -6.041  -1.979   2.055  0.00  0.00    +0.111 A 
ATOM     12  N   UNL     1      -5.780  -0.711   2.269  0.00  0.00    -0.244 NA
ATOM     13  C   UNL     1      -2.150  -0.473   1.395  0.00  0.00    +0.040 C 
ENDROOT
BRANCH   9  14
ATOM     14  C   UNL     1      -7.494  -5.793   1.581  0.00  0.00    +0.253 C 
ATOM     15  O   UNL     1      -6.884  -6.777   1.203  0.00  0.00    -0.270 OA
ATOM     16  N   UNL     1      -8.801  -5.890   1.898  0.00  0.00    -0.307 N 
ATOM     17  H   UNL     1      -9.287  -5.106   2.199  0.00  0.00    +0.149 HD
BRANCH  16  18
ATOM     18  C   UNL     1      -9.487  -7.180   1.788  0.00  0.00    +0.141 C 
BRANCH  18  19
ATOM     19  C   UNL     1     -10.928  -7.019   2.198  0.00  0.00    -0.012 A 
ATOM     20  C   UNL     1     -11.334  -7.401   3.463  0.00  0.00    +0.006 A 
ATOM     21  C   UNL     1     -12.655  -7.250   3.841  0.00  0.00    +0.000 A 
ATOM     22  C   UNL     1     -13.573  -6.724   2.950  0.00  0.00    +0.001 A 
ATOM     23  C   UNL     1     -13.169  -6.346   1.684  0.00  0.00    +0.020 A 
ATOM     24  C   UNL     1     -11.846  -6.494   1.307  0.00  0.00    +0.046 A 
ATOM     25 CL   UNL     1     -11.338  -6.020  -0.284  0.00  0.00    -0.083 Cl
ENDBRANCH  18  19
ENDBRANCH  16  18
ENDBRANCH   9  14
BRANCH   8  26
ATOM     26  N   UNL     1      -4.644  -5.238   0.966  0.00  0.00    -0.356 N 
ATOM     27  H   UNL     1      -3.719  -5.019   0.774  0.00  0.00    +0.142 HD
ATOM     28  H   UNL     1      -4.962  -6.146   0.845  0.00  0.00    +0.142 HD
ENDBRANCH   8  26
BRANCH   1  30
ATOM     29  C   UNL     1      -0.013   1.086   0.008  0.00  0.00    +0.004 C 
ATOM     30  C   UNL     1      -0.729   1.579   1.267  0.00  0.00    +0.000 C 
ENDBRANCH   1  30
TORSDOF 5
