REMARK  Name = ZINC02209006
REMARK  8 active torsions:
REMARK  status: ('A' for Active; 'I' for Inactive)
REMARK    1  A    between atoms: C_1  and  C_2
REMARK    2  A    between atoms: C_5  and  S_8
REMARK    3  A    between atoms: S_8  and  C_11
REMARK    4  A    between atoms: C_19  and  C_24
REMARK    5  A    between atoms: N_25  and  C_28
REMARK    6  A    between atoms: C_26  and  N_27
REMARK    7  A    between atoms: C_28  and  C_29
REMARK    8  A    between atoms: C_29  and  C_30
REMARK                            x       y       z     vdW  Elec       q    Type
REMARK                         _______ _______ _______ _____ _____    ______ ____
ROOT
ATOM      1  C   UNL     1       6.875  -3.711  -1.901  0.00  0.00    +0.132 A 
ATOM      2  C   UNL     1       8.183  -3.356  -1.853  0.00  0.00    +0.047 A 
ATOM      3  C   UNL     1       8.531  -1.991  -1.747  0.00  0.00    +0.084 A 
ATOM      4  C   UNL     1       7.523  -1.007  -1.698  0.00  0.00    +0.150 A 
ATOM      5  N   UNL     1       7.863   0.272  -1.605  0.00  0.00    -0.211 NA
ATOM      6  C   UNL     1       9.140   0.651  -1.562  0.00  0.00    +0.143 A 
ATOM      7  C   UNL     1       9.443   2.022  -1.463  0.00  0.00    +0.047 A 
ATOM      8  C   UNL     1      10.745   2.420  -1.418  0.00  0.00    +0.008 A 
ATOM      9  C   UNL     1      11.765   1.460  -1.471  0.00  0.00    -0.034 A 
ATOM     10  C   UNL     1      11.457   0.148  -1.566  0.00  0.00    +0.099 A 
ATOM     11  N   UNL     1      10.157  -0.262  -1.612  0.00  0.00    -0.267 N 
ATOM     12  C   UNL     1       9.884  -1.583  -1.694  0.00  0.00    +0.268 A 
ATOM     13  O   UNL     1      10.784  -2.404  -1.738  0.00  0.00    -0.267 OA
ATOM     14  C   UNL     1      13.209   1.892  -1.422  0.00  0.00    +0.045 C 
ATOM     15  N   UNL     1       6.202  -1.385  -1.743  0.00  0.00    -0.312 N 
ATOM     16  C   UNL     1       5.867  -2.718  -1.846  0.00  0.00    +0.124 A 
ENDROOT
BRANCH   1  17
ATOM     17  S   UNL     1       6.429  -5.410  -2.034  0.00  0.00    +0.028 S 
ATOM     18  O   UNL     1       7.643  -6.147  -2.064  0.00  0.00    -0.164 OA
ATOM     19  O   UNL     1       5.421  -5.642  -1.060  0.00  0.00    -0.164 OA
BRANCH  17  24
ATOM     20  C   UNL     1       3.822  -6.156  -7.424  0.00  0.00    +0.044 C 
ATOM     21  C   UNL     1       4.473  -5.970  -6.077  0.00  0.00    -0.050 A 
ATOM     22  C   UNL     1       5.851  -5.986  -5.968  0.00  0.00    +0.005 A 
ATOM     23  C   UNL     1       6.448  -5.815  -4.733  0.00  0.00    +0.027 A 
ATOM     24  C   UNL     1       5.668  -5.628  -3.608  0.00  0.00    +0.094 A 
ATOM     25  C   UNL     1       4.290  -5.617  -3.716  0.00  0.00    +0.027 A 
ATOM     26  C   UNL     1       3.692  -5.783  -4.952  0.00  0.00    +0.005 A 
ENDBRANCH  17  24
ENDBRANCH   1  17
BRANCH  16  27
ATOM     27  N   UNL     1       4.603  -3.070  -1.893  0.00  0.00    -0.343 N 
ATOM     28  H   UNL     1       3.817  -2.303  -1.850  0.00  0.00    +0.144 HD
ATOM     29  H   UNL     1       4.331  -4.133  -1.975  0.00  0.00    +0.144 HD
ENDBRANCH  16  27
BRANCH  15  30
ATOM     30  C   UNL     1       5.148  -0.368  -1.686  0.00  0.00    +0.130 C 
BRANCH  30  31
ATOM     31  C   UNL     1       4.757  -0.119  -0.228  0.00  0.00    +0.057 C 
BRANCH  31  32
ATOM     32  C   UNL     1       3.673   0.926  -0.170  0.00  0.00    -0.046 A 
ATOM     33  C   UNL     1       2.345   0.548  -0.220  0.00  0.00    +0.004 A 
ATOM     34  C   UNL     1       1.351   1.507  -0.167  0.00  0.00    +0.000 A 
ATOM     35  C   UNL     1       1.685   2.844  -0.065  0.00  0.00    +0.000 A 
ATOM     36  C   UNL     1       3.014   3.222  -0.014  0.00  0.00    +0.000 A 
ATOM     37  C   UNL     1       4.008   2.263  -0.067  0.00  0.00    +0.004 A 
ENDBRANCH  31  32
ENDBRANCH  30  31
ENDBRANCH  15  30
TORSDOF 6
