REMARK  Name = ZINC36119314
REMARK  10 active torsions:
REMARK  status: ('A' for Active; 'I' for Inactive)
REMARK    1  A    between atoms: C_1  and  C_2
REMARK    2  A    between atoms: C_5  and  O_9
REMARK    3  A    between atoms: C_6  and  C_8
REMARK    4  A    between atoms: O_9  and  C_10
REMARK    5  A    between atoms: C_10  and  C_11
REMARK    6  A    between atoms: C_21  and  C_23
REMARK    7  A    between atoms: C_23  and  N_24
REMARK    8  A    between atoms: N_24  and  C_25
REMARK    9  A    between atoms: C_25  and  C_26
REMARK   10  A    between atoms: C_28  and  C_30
REMARK                            x       y       z     vdW  Elec       q    Type
REMARK                         _______ _______ _______ _____ _____    ______ ____
ROOT
ATOM      1  C   UNL     1       0.108  -7.596   0.667  0.00  0.00    +0.144 C 
ATOM      2  C   UNL     1       0.788  -8.245   1.872  0.00  0.00    -0.014 A 
ATOM      3  C   UNL     1       2.133  -8.611   1.885  0.00  0.00    +0.013 A 
ATOM      4  C   UNL     1       2.669  -9.178   2.990  0.00  0.00    +0.046 A 
ATOM      5  S   UNL     1       1.267  -9.227   4.096  0.00  0.00    -0.101 S 
ATOM      6  C   UNL     1       0.076  -8.493   3.005  0.00  0.00    -0.004 A 
ATOM      7  C   UNL     1      -1.369  -8.213   3.262  0.00  0.00    +0.061 C 
ATOM      8  C   UNL     1      -1.876  -7.226   2.199  0.00  0.00    +0.114 C 
ATOM      9  N   UNL     1      -1.343  -7.640   0.891  0.00  0.00    -0.289 N 
ATOM     10  C   UNL     1      -2.173  -8.053  -0.087  0.00  0.00    +0.234 C 
ATOM     11  O   UNL     1      -1.723  -8.393  -1.161  0.00  0.00    -0.274 OA
ENDROOT
BRANCH   1  12
ATOM     12  C   UNL     1       0.569  -6.143   0.534  0.00  0.00    +0.256 C 
BRANCH  12  13
ATOM     13  O   UNL     1       0.343  -5.457   1.767  0.00  0.00    -0.490 OA
BRANCH  13  18
ATOM     14  C   UNL     1       1.817  -0.025   1.978  0.00  0.00    +0.044 C 
ATOM     15  C   UNL     1       1.423  -1.478   1.922  0.00  0.00    -0.050 A 
ATOM     16  C   UNL     1       1.615  -2.201   0.758  0.00  0.00    +0.007 A 
ATOM     17  C   UNL     1       1.254  -3.533   0.704  0.00  0.00    +0.046 A 
ATOM     18  C   UNL     1       0.699  -4.146   1.818  0.00  0.00    +0.124 A 
ATOM     19  C   UNL     1       0.507  -3.419   2.984  0.00  0.00    -0.009 A 
ATOM     20  C   UNL     1       0.875  -2.088   3.035  0.00  0.00    +0.010 A 
ATOM     21  C   UNL     1      -0.096  -4.082   4.195  0.00  0.00    +0.047 C 
ENDBRANCH  13  18
ENDBRANCH  12  13
ENDBRANCH   1  12
BRANCH  10  22
ATOM     22  C   UNL     1      -3.660  -8.094   0.154  0.00  0.00    +0.204 C 
BRANCH  22  23
ATOM     23  N   UNL     1      -4.337  -8.576  -1.052  0.00  0.00    -0.285 N 
ATOM     24  C   UNL     1      -4.942  -7.701  -1.880  0.00  0.00    +0.247 C 
ATOM     25  O   UNL     1      -5.533  -8.103  -2.864  0.00  0.00    -0.270 OA
BRANCH  24  26
ATOM     26  C   UNL     1      -4.887  -6.254  -1.593  0.00  0.00    +0.041 A 
ATOM     27  C   UNL     1      -3.860  -5.736  -0.800  0.00  0.00    +0.017 A 
ATOM     28  C   UNL     1      -3.809  -4.385  -0.533  0.00  0.00    +0.050 A 
ATOM     29  C   UNL     1      -4.777  -3.534  -1.050  0.00  0.00    +0.166 A 
ATOM     30  C   UNL     1      -5.806  -4.045  -1.843  0.00  0.00    +0.167 A 
ATOM     31  C   UNL     1      -5.858  -5.398  -2.118  0.00  0.00    +0.062 A 
ATOM     32  O   UNL     1      -6.617  -3.014  -2.221  0.00  0.00    -0.453 OA
ATOM     33  C   UNL     1      -6.310  -1.934  -1.321  0.00  0.00    +0.466 C 
ATOM     34  O   UNL     1      -4.946  -2.186  -0.935  0.00  0.00    -0.453 OA
ENDBRANCH  24  26
BRANCH  23  35
ATOM     35  C   UNL     1      -4.357 -10.008  -1.359  0.00  0.00    +0.135 C 
BRANCH  35  36
ATOM     36  C   UNL     1      -5.630 -10.617  -0.831  0.00  0.00    -0.016 C 
ATOM     37  C   UNL     1      -6.412 -11.297  -1.633  0.00  0.00    +0.005 C 
ENDBRANCH  35  36
ENDBRANCH  23  35
ENDBRANCH  22  23
ENDBRANCH  10  22
TORSDOF 8
