REMARK  Name = ZINC09513376
REMARK  9 active torsions:
REMARK  status: ('A' for Active; 'I' for Inactive)
REMARK    1  A    between atoms: C_1  and  C_2
REMARK    2  A    between atoms: C_7  and  N_12
REMARK    3  A    between atoms: C_9  and  C_11
REMARK    4  A    between atoms: C_13  and  C_15
REMARK    5  A    between atoms: C_15  and  C_17
REMARK    6  A    between atoms: C_15  and  O_18
REMARK    7  A    between atoms: O_18  and  C_19
REMARK    8  A    between atoms: C_19  and  C_21
REMARK    9  A    between atoms: C_34  and  N_64
REMARK                            x       y       z     vdW  Elec       q    Type
REMARK                         _______ _______ _______ _____ _____    ______ ____
ROOT
ATOM      1  C   UNL     1      -4.809   0.279  -1.384  0.00  0.00    +0.341 C 
ATOM      2  O   UNL     1      -4.867  -0.882  -1.737  0.00  0.00    -0.245 OA
ENDROOT
BRANCH   1   3
ATOM      3  C   UNL     1      -4.157   0.631  -0.105  0.00  0.00    +0.071 A 
ATOM      4  C   UNL     1      -4.898   0.682   1.101  0.00  0.00    +0.015 A 
ATOM      5  C   UNL     1      -6.270   0.403   1.131  0.00  0.00    +0.011 A 
ATOM      6  C   UNL     1      -6.944   0.461   2.313  0.00  0.00    +0.001 A 
ATOM      7  C   UNL     1      -6.286   0.797   3.494  0.00  0.00    +0.002 A 
ATOM      8  C   UNL     1      -4.954   1.074   3.501  0.00  0.00    +0.028 A 
ATOM      9  C   UNL     1      -4.224   1.024   2.299  0.00  0.00    +0.072 A 
ATOM     10  N   UNL     1      -2.918   1.290   2.274  0.00  0.00    -0.251 NA
ATOM     11  C   UNL     1      -2.209   1.251   1.165  0.00  0.00    +0.042 A 
ATOM     12  C   UNL     1      -2.796   0.921  -0.052  0.00  0.00    -0.028 A 
ATOM     13  C   UNL     1      -2.004   0.864  -1.331  0.00  0.00    -0.041 C 
ATOM     14  C   UNL     1      -0.013   1.086   0.008  0.00  0.00    -0.073 C 
ATOM     15  C   UNL     1      -0.735   1.582   1.260  0.00  0.00    +0.037 C 
ATOM     16  C   UNL     1       0.095   1.444  -2.386  0.00  0.00    -0.096 C 
ATOM     17  N   UNL     1      -0.738   1.599  -1.172  0.00  0.00    +0.381 N 
ATOM     18  H   UNL     1      -0.943   2.595  -1.032  0.00  0.00    -0.082 HD
ENDBRANCH   1   3
BRANCH   1  19
ATOM     19  O   UNL     1      -5.339   1.246  -2.158  0.00  0.00    -0.449 OA
BRANCH  19  20
ATOM     20  C   UNL     1      -5.964   0.827  -3.400  0.00  0.00    +0.259 C 
ATOM     21  C   UNL     1      -4.922   0.825  -4.520  0.00  0.00    +0.062 C 
BRANCH  20  23
ATOM     22  N   UNL     1      -7.866   1.537  -4.814  0.00  0.00    -0.309 N 
ATOM     23  C   UNL     1      -7.076   1.783  -3.750  0.00  0.00    +0.254 C 
ATOM     24  O   UNL     1      -7.259   2.774  -3.075  0.00  0.00    -0.272 OA
ATOM     25  H   UNL     1      -7.720   0.744  -5.354  0.00  0.00    +0.149 HD
BRANCH  22  31
ATOM     26  C   UNL     1     -10.522   0.397  -7.993  0.00  0.00    +0.008 C 
ATOM     27  C   UNL     1      -9.435   1.142  -7.215  0.00  0.00    -0.009 C 
ATOM     28  C   UNL     1      -8.879   2.277  -8.077  0.00  0.00    +0.003 C 
ATOM     29  C   UNL     1      -7.792   3.022  -7.299  0.00  0.00    +0.002 C 
ATOM     30  C   UNL     1      -8.390   3.601  -6.016  0.00  0.00    +0.022 C 
ATOM     31  C   UNL     1      -8.946   2.466  -5.154  0.00  0.00    +0.076 C 
ATOM     32  C   UNL     1     -10.033   1.721  -5.932  0.00  0.00    +0.009 C 
ATOM     33  C   UNL     1     -10.590   0.586  -5.070  0.00  0.00    +0.009 C 
ENDBRANCH  22  31
ENDBRANCH  20  23
ENDBRANCH  19  20
ENDBRANCH   1  19
TORSDOF 5
