REMARK  Name = ZINC09331400
REMARK  4 active torsions:
REMARK  status: ('A' for Active; 'I' for Inactive)
REMARK    1  A    between atoms: C_15  and  C_17
REMARK    2  A    between atoms: C_17  and  C_19
REMARK    3  A    between atoms: N_28  and  C_31
REMARK    4  A    between atoms: C_34  and  N_37
REMARK                            x       y       z     vdW  Elec       q    Type
REMARK                         _______ _______ _______ _____ _____    ______ ____
ROOT
ATOM      1  C   UNL     1       1.208  -0.675  -0.012  0.00  0.00    +0.001 A 
ATOM      2  C   UNL     1       2.398   0.032  -0.019  0.00  0.00    +0.000 A 
ATOM      3  C   UNL     1       2.389   1.416  -0.012  0.00  0.00    +0.006 A 
ATOM      4  C   UNL     1       1.196   2.100   0.002  0.00  0.00    -0.021 A 
ATOM      5  C   UNL     1      -0.017   1.389   0.010  0.00  0.00    -0.019 A 
ATOM      6  C   UNL     1       0.002  -0.004   0.002  0.00  0.00    +0.008 A 
ATOM      7  C   UNL     1      -1.288   2.133   0.015  0.00  0.00    +0.022 C 
ATOM      8  C   UNL     1      -1.339   3.462   0.108  0.00  0.00    +0.054 C 
ATOM      9  C   UNL     1       1.118   3.583   0.007  0.00  0.00    +0.100 C 
ATOM     10  C   UNL     1       1.956   4.298   0.952  0.00  0.00    +0.113 C 
ATOM     11  C   UNL     1       1.569   5.806   0.631  0.00  0.00    +0.116 C 
ATOM     12  C   UNL     1       0.053   5.653   0.505  0.00  0.00    +0.141 C 
ATOM     13  C   UNL     1       2.172   6.365   1.897  0.00  0.00    +0.232 C 
ATOM     14  O   UNL     1       1.726   7.238   2.611  0.00  0.00    -0.274 OA
ATOM     15  N   UNL     1       3.338   5.660   2.056  0.00  0.00    -0.210 N 
ATOM     16  C   UNL     1       3.335   4.477   1.357  0.00  0.00    +0.232 C 
ATOM     17  O   UNL     1       4.276   3.746   1.131  0.00  0.00    -0.274 OA
ATOM     18  N   UNL     1      -0.089   4.297  -0.150  0.00  0.00    -0.384 NA
ATOM     19  H   UNL     1      -0.144   4.506  -1.154  0.00  0.00    +0.127 HD
ENDROOT
BRANCH  15  20
ATOM     20  C   UNL     1       4.412   6.098   2.844  0.00  0.00    +0.044 A 
ATOM     21  C   UNL     1       5.556   5.319   2.954  0.00  0.00    +0.026 A 
ATOM     22  C   UNL     1       6.614   5.755   3.728  0.00  0.00    +0.034 A 
ATOM     23  C   UNL     1       6.531   6.961   4.399  0.00  0.00    +0.126 A 
ATOM     24  C   UNL     1       5.391   7.736   4.294  0.00  0.00    +0.034 A 
ATOM     25  C   UNL     1       4.331   7.308   3.519  0.00  0.00    +0.026 A 
BRANCH  23  26
ATOM     26  N   UNL     1       7.665   7.423   5.231  0.00  0.00    +0.056 N 
ATOM     27  O   UNL     1       7.593   8.485   5.822  0.00  0.00    -0.126 OA
ATOM     28  O   UNL     1       8.669   6.740   5.324  0.00  0.00    -0.126 OA
ENDBRANCH  23  26
ENDBRANCH  15  20
BRANCH  12  29
ATOM     29  C   UNL     1      -0.612   6.014   1.808  0.00  0.00    +0.183 C 
ATOM     30  O   UNL     1      -0.970   5.140   2.569  0.00  0.00    -0.290 OA
BRANCH  29  31
ATOM     31  C   UNL     1      -0.829   7.426   2.157  0.00  0.00    +0.019 A 
ATOM     32  C   UNL     1      -0.412   8.438   1.284  0.00  0.00    +0.013 A 
ATOM     33  C   UNL     1      -0.623   9.759   1.615  0.00  0.00    +0.020 A 
ATOM     34  C   UNL     1      -1.236  10.087   2.814  0.00  0.00    +0.041 A 
ATOM     35  C   UNL     1      -1.645   9.091   3.686  0.00  0.00    +0.020 A 
ATOM     36  C   UNL     1      -1.446   7.765   3.366  0.00  0.00    +0.013 A 
ATOM     37 CL   UNL     1      -1.490  11.754   3.227  0.00  0.00    -0.084 Cl
ENDBRANCH  29  31
ENDBRANCH  12  29
TORSDOF 4
