REMARK  Name = ZINC38733204
REMARK  5 active torsions:
REMARK  status: ('A' for Active; 'I' for Inactive)
REMARK    1  A    between atoms: C_1  and  C_2
REMARK    2  A    between atoms: C_2  and  C_4
REMARK    3  A    between atoms: C_2  and  N_14
REMARK    4  A    between atoms: C_15  and  C_17
REMARK    5  A    between atoms: C_23  and  C_25
REMARK                            x       y       z     vdW  Elec       q    Type
REMARK                         _______ _______ _______ _____ _____    ______ ____
ROOT
ATOM      1  C   UNL     1       2.410  -1.213   2.159  0.00  0.00    +0.091 C 
ATOM      2  C   UNL     1       1.687  -2.561   2.155  0.00  0.00    +0.040 C 
ATOM      3  C   UNL     1       2.326  -3.493   3.143  0.00  0.00    -0.030 C 
ATOM      4  C   UNL     1       3.506  -3.319   3.645  0.00  0.00    -0.030 C 
ATOM      5  C   UNL     1       4.396  -2.156   3.318  0.00  0.00    +0.040 C 
ATOM      6  C   UNL     1       3.918  -1.466   2.039  0.00  0.00    +0.091 C 
ENDROOT
BRANCH   6   7
ATOM      7  C   UNL     1       4.190  -2.357   0.856  0.00  0.00    +0.220 C 
ATOM      8  O   UNL     1       3.753  -3.488   0.835  0.00  0.00    -0.275 OA
ATOM      9  N   UNL     1       4.919  -1.898  -0.181  0.00  0.00    -0.298 N 
ATOM     10  C   UNL     1       5.380  -0.503  -0.211  0.00  0.00    +0.126 C 
ATOM     11  C   UNL     1       6.904  -0.493  -0.386  0.00  0.00    +0.125 C 
ATOM     12  N   UNL     1       7.253  -1.379  -1.506  0.00  0.00    -0.314 N 
ATOM     13  C   UNL     1       6.792  -2.774  -1.476  0.00  0.00    +0.125 C 
ATOM     14  C   UNL     1       5.273  -2.785  -1.298  0.00  0.00    +0.126 C 
ATOM     15  C   UNL     1       8.005  -0.905  -2.575  0.00  0.00    +0.099 A 
ATOM     16  C   UNL     1       8.557   0.371  -2.517  0.00  0.00    +0.042 A 
ATOM     17  C   UNL     1       9.303   0.830  -3.588  0.00  0.00    +0.005 A 
ATOM     18  C   UNL     1       9.473  -0.006  -4.684  0.00  0.00    +0.018 A 
ATOM     19  C   UNL     1       8.897  -1.260  -4.673  0.00  0.00    +0.084 A 
ATOM     20  N   UNL     1       8.194  -1.674  -3.636  0.00  0.00    -0.350 N 
ATOM     21  H   UNL     1       7.803  -2.562  -3.652  0.00  0.00    +0.166 HD
ENDBRANCH   6   7
BRANCH   1  23
ATOM     22  N   UNL     1       0.641  -0.045   0.883  0.00  0.00    -0.308 N 
ATOM     23  C   UNL     1       1.941  -0.384   0.991  0.00  0.00    +0.218 C 
ATOM     24  O   UNL     1       2.734  -0.021   0.147  0.00  0.00    -0.275 OA
ATOM     25  H   UNL     1       0.007  -0.335   1.558  0.00  0.00    +0.149 HD
BRANCH  22  27
ATOM     26  C   UNL     1       0.391   2.244   0.060  0.00  0.00    +0.033 C 
ATOM     27  C   UNL     1       0.186   0.761  -0.252  0.00  0.00    +0.101 C 
BRANCH  27  28
ATOM     28  C   UNL     1      -1.277   0.497  -0.500  0.00  0.00    -0.020 A 
ATOM     29  C   UNL     1      -2.088   0.121   0.526  0.00  0.00    +0.006 A 
ATOM     30  C   UNL     1      -3.443  -0.126   0.316  0.00  0.00    +0.001 A 
ATOM     31  C   UNL     1      -3.995  -0.000  -0.922  0.00  0.00    +0.008 A 
ATOM     32  C   UNL     1      -3.189   0.386  -2.006  0.00  0.00    -0.018 A 
ATOM     33  C   UNL     1      -1.812   0.644  -1.791  0.00  0.00    -0.013 A 
ATOM     34  C   UNL     1      -1.007   1.036  -2.875  0.00  0.00    +0.009 A 
ATOM     35  C   UNL     1      -1.560   1.168  -4.111  0.00  0.00    +0.001 A 
ATOM     36  C   UNL     1      -2.916   0.921  -4.322  0.00  0.00    +0.001 A 
ATOM     37  C   UNL     1      -3.723   0.526  -3.299  0.00  0.00    +0.008 A 
ENDBRANCH  27  28
ENDBRANCH  22  27
ENDBRANCH   1  23
TORSDOF 4
