REMARK  Name = ZINC14539643
REMARK  11 active torsions:
REMARK  status: ('A' for Active; 'I' for Inactive)
REMARK    1  A    between atoms: C_1  and  C_2
REMARK    2  A    between atoms: C_2  and  N_3
REMARK    3  A    between atoms: N_6  and  C_20
REMARK    4  A    between atoms: C_14  and  C_16
REMARK    5  A    between atoms: C_14  and  C_17
REMARK    6  A    between atoms: C_14  and  N_60
REMARK    7  A    between atoms: C_17  and  S_18
REMARK    8  A    between atoms: S_18  and  C_19
REMARK    9  A    between atoms: C_20  and  C_21
REMARK   10  A    between atoms: C_21  and  C_22
REMARK   11  A    between atoms: C_22  and  C_23
REMARK                            x       y       z     vdW  Elec       q    Type
REMARK                         _______ _______ _______ _____ _____    ______ ____
ROOT
ATOM      1  N   UNL     1      -6.146   5.534  -4.269  0.00  0.00    -0.271 N 
ATOM      2  C   UNL     1      -5.954   5.286  -2.959  0.00  0.00    +0.312 C 
ATOM      3  O   UNL     1      -6.563   4.440  -2.334  0.00  0.00    -0.252 OA
ATOM      4  N   UNL     1      -5.016   6.076  -2.422  0.00  0.00    -0.224 N 
ATOM      5  C   UNL     1      -4.502   6.928  -3.334  0.00  0.00    +0.247 C 
ATOM      6  O   UNL     1      -3.644   7.766  -3.154  0.00  0.00    -0.273 OA
ATOM      7  C   UNL     1      -5.221   6.616  -4.626  0.00  0.00    +0.112 C 
ATOM      8  C   UNL     1      -5.990   7.840  -5.113  0.00  0.00    +0.017 C 
ATOM      9  C   UNL     1      -6.688   7.506  -6.435  0.00  0.00    -0.076 C 
ATOM     10  C   UNL     1      -4.989   5.870  -6.994  0.00  0.00    -0.076 C 
ATOM     11  C   UNL     1      -4.234   6.148  -5.691  0.00  0.00    +0.017 C 
ATOM     12  N   UNL     1      -5.667   7.110  -7.428  0.00  0.00    +0.382 N 
ATOM     13  H   UNL     1      -4.970   7.860  -7.506  0.00  0.00    -0.081 HD
ENDROOT
BRANCH   1  15
ATOM     14  C   UNL     1      -6.669   3.398  -5.339  0.00  0.00    +0.024 C 
ATOM     15  C   UNL     1      -7.091   4.858  -5.160  0.00  0.00    +0.107 C 
ENDBRANCH   1  15
BRANCH  12  16
ATOM     16  C   UNL     1      -6.299   6.904  -8.747  0.00  0.00    -0.062 C 
ATOM     17  C   UNL     1      -7.301   5.749  -8.689  0.00  0.00    -0.012 C 
BRANCH  16  18
ATOM     18  C   UNL     1      -5.210   6.582  -9.773  0.00  0.00    +0.053 C 
BRANCH  18  19
ATOM     19  S   UNL     1      -4.029   7.957  -9.850  0.00  0.00    -0.166 S 
ATOM     20  C   UNL     1      -2.820   7.426 -11.094  0.00  0.00    +0.084 C 
ENDBRANCH  18  19
ENDBRANCH  16  18
ENDBRANCH  12  16
BRANCH   4  21
ATOM     21  C   UNL     1      -4.603   6.027  -1.017  0.00  0.00    +0.118 C 
BRANCH  21  22
ATOM     22  C   UNL     1      -3.447   5.036  -0.860  0.00  0.00    +0.024 C 
BRANCH  22  23
ATOM     23  C   UNL     1      -3.016   4.984   0.607  0.00  0.00    +0.038 C 
BRANCH  23  24
ATOM     24  C   UNL     1      -1.878   4.008   0.762  0.00  0.00    -0.029 A 
ATOM     25  C   UNL     1      -2.132   2.670   1.027  0.00  0.00    +0.006 A 
ATOM     26  C   UNL     1      -1.054   1.810   1.167  0.00  0.00    +0.020 A 
ATOM     27  C   UNL     1       0.228   2.307   1.027  0.00  0.00    +0.111 A 
ATOM     28  N   UNL     1       0.431   3.584   0.769  0.00  0.00    -0.263 NA
ATOM     29  C   UNL     1      -0.570   4.433   0.635  0.00  0.00    +0.114 A 
ENDBRANCH  23  24
ENDBRANCH  22  23
ENDBRANCH  21  22
ENDBRANCH   4  21
TORSDOF 8
