REMARK  Name = ZINC65994455
REMARK  10 active torsions:
REMARK  status: ('A' for Active; 'I' for Inactive)
REMARK    1  A    between atoms: C_1  and  C_2
REMARK    2  A    between atoms: N_7  and  C_8
REMARK    3  A    between atoms: C_8  and  C_9
REMARK    4  A    between atoms: C_9  and  C_10
REMARK    5  A    between atoms: C_10  and  N_11
REMARK    6  A    between atoms: N_14  and  C_15
REMARK    7  A    between atoms: N_14  and  C_23
REMARK    8  A    between atoms: C_15  and  C_16
REMARK    9  A    between atoms: C_21  and  O_22
REMARK   10  A    between atoms: C_23  and  C_24
REMARK                            x       y       z     vdW  Elec       q    Type
REMARK                         _______ _______ _______ _____ _____    ______ ____
ROOT
ATOM      1  N   UNL     1       0.989  -0.176   6.067  0.00  0.00    -0.299 N 
ATOM      2  C   UNL     1       0.587   0.209   7.295  0.00  0.00    +0.303 C 
ATOM      3  O   UNL     1      -0.421   0.877   7.421  0.00  0.00    -0.253 OA
ATOM      4  N   UNL     1       1.301  -0.145   8.381  0.00  0.00    -0.274 N 
ATOM      5  H   UNL     1       1.793  -0.710   5.966  0.00  0.00    +0.150 HD
ENDROOT
BRANCH   1   6
ATOM      6  C   UNL     1       0.212   0.209   4.887  0.00  0.00    +0.104 C 
BRANCH   6   7
ATOM      7  C   UNL     1       0.881  -0.353   3.631  0.00  0.00    +0.000 C 
BRANCH   7   8
ATOM      8  C   UNL     1       0.070   0.050   2.397  0.00  0.00    -0.077 C 
BRANCH   8  15
ATOM      9  C   UNL     1      -0.019   1.526   0.010  0.00  0.00    -0.013 C 
ATOM     10  C   UNL     1       0.002  -0.004   0.002  0.00  0.00    -0.072 C 
ATOM     11  C   UNL     1       0.715  -0.497  -1.259  0.00  0.00    -0.016 C 
ATOM     12  C   UNL     1       0.733  -2.028  -1.263  0.00  0.00    -0.003 C 
ATOM     13  C   UNL     1       1.410  -2.524   0.018  0.00  0.00    -0.019 C 
ATOM     14  C   UNL     1       0.671  -1.956   1.232  0.00  0.00    -0.078 C 
ATOM     15  N   UNL     1       0.712  -0.490   1.191  0.00  0.00    +0.381 N 
ATOM     16  H   UNL     1       1.672  -0.182   1.158  0.00  0.00    -0.081 HD
ENDBRANCH   8  15
ENDBRANCH   7   8
ENDBRANCH   6   7
ENDBRANCH   1   6
BRANCH   4  17
ATOM     17  C   UNL     1       0.864   0.274   9.714  0.00  0.00    +0.148 C 
BRANCH  17  18
ATOM     18  C   UNL     1      -0.058  -0.769  10.292  0.00  0.00    +0.011 A 
ATOM     19  C   UNL     1      -1.426  -0.584  10.247  0.00  0.00    +0.009 A 
ATOM     20  C   UNL     1      -2.272  -1.540  10.777  0.00  0.00    +0.001 A 
ATOM     21  C   UNL     1      -1.752  -2.684  11.353  0.00  0.00    +0.004 A 
ATOM     22  C   UNL     1      -0.385  -2.874  11.400  0.00  0.00    +0.046 A 
ATOM     23  C   UNL     1       0.467  -1.919  10.864  0.00  0.00    +0.122 A 
BRANCH  23  24
ATOM     24  O   UNL     1       1.812  -2.106  10.904  0.00  0.00    -0.506 OA
ATOM     25  H   UNL     1       2.235  -1.755  11.700  0.00  0.00    +0.292 HD
ENDBRANCH  23  24
ENDBRANCH  17  18
ENDBRANCH   4  17
BRANCH   4  26
ATOM     26  C   UNL     1       2.516  -0.950   8.228  0.00  0.00    +0.183 C 
BRANCH  26  27
ATOM     27  C   UNL     1       3.704  -0.039   8.055  0.00  0.00    +0.122 A 
ATOM     28  C   UNL     1       4.473   0.447   9.046  0.00  0.00    +0.046 A 
ATOM     29  C   UNL     1       5.465   1.251   8.438  0.00  0.00    +0.041 A 
ATOM     30  C   UNL     1       5.242   1.208   7.112  0.00  0.00    +0.195 A 
ATOM     31  O   UNL     1       4.178   0.421   6.886  0.00  0.00    -0.466 OA
ENDBRANCH  26  27
ENDBRANCH   4  26
TORSDOF 9
