REMARK  Name = ZINC20784172
REMARK  8 active torsions:
REMARK  status: ('A' for Active; 'I' for Inactive)
REMARK    1  A    between atoms: C_1  and  C_2
REMARK    2  A    between atoms: C_2  and  C_3
REMARK    3  A    between atoms: C_2  and  N_4
REMARK    4  A    between atoms: C_5  and  C_7
REMARK    5  A    between atoms: C_10  and  C_12
REMARK    6  A    between atoms: N_17  and  C_18
REMARK    7  A    between atoms: C_18  and  C_19
REMARK    8  A    between atoms: C_22  and  C_24
REMARK                            x       y       z     vdW  Elec       q    Type
REMARK                         _______ _______ _______ _____ _____    ______ ____
ROOT
ATOM      1  C   UNL     1       6.661   6.401   1.417  0.00  0.00    -0.030 C 
ATOM      2  C   UNL     1       7.161   7.639   2.192  0.00  0.00    -0.012 C 
ATOM      3  C   UNL     1       5.924   8.047   3.034  0.00  0.00    -0.020 C 
ATOM      4  C   UNL     1       4.762   7.713   2.065  0.00  0.00    -0.077 C 
ATOM      5  N   UNL     1       5.189   6.477   1.375  0.00  0.00    +0.389 N 
ATOM      6  H   UNL     1       4.759   5.600   1.880  0.00  0.00    -0.080 HD
ENDROOT
BRANCH   1  10
ATOM      7  C   UNL     1       7.972   6.858  -2.504  0.00  0.00    +0.074 A 
ATOM      8  C   UNL     1       8.397   5.691  -1.890  0.00  0.00    +0.021 A 
ATOM      9  C   UNL     1       8.000   5.487  -0.592  0.00  0.00    +0.010 A 
ATOM     10  C   UNL     1       7.215   6.415   0.015  0.00  0.00    -0.023 A 
ATOM     11  S   UNL     1       7.011   7.624  -1.211  0.00  0.00    -0.090 S 
BRANCH   7  13
ATOM     12  N   UNL     1       7.729   8.514  -4.276  0.00  0.00    -0.309 N 
ATOM     13  C   UNL     1       8.241   7.337  -3.863  0.00  0.00    +0.251 C 
ATOM     14  O   UNL     1       8.927   6.674  -4.618  0.00  0.00    -0.270 OA
ATOM     15  H   UNL     1       7.109   9.114  -3.594  0.00  0.00    +0.149 HD
BRANCH  12  17
ATOM     16  C   UNL     1       6.881   9.943  -6.070  0.00  0.00    +0.027 C 
ATOM     17  C   UNL     1       7.998   8.993  -5.634  0.00  0.00    +0.067 C 
ATOM     18  C   UNL     1       9.336   9.735  -5.657  0.00  0.00    +0.027 C 
ENDBRANCH  12  17
ENDBRANCH   7  13
ENDBRANCH   1  10
BRANCH   5  19
ATOM     19  C   UNL     1       4.699   6.452  -0.010  0.00  0.00    -0.002 C 
BRANCH  19  20
ATOM     20  C   UNL     1       3.224   6.145  -0.015  0.00  0.00    +0.090 A 
ATOM     21  C   UNL     1       2.232   7.056   0.041  0.00  0.00    +0.043 A 
ATOM     22  C   UNL     1       1.016   6.345   0.012  0.00  0.00    +0.052 A 
ATOM     23  C   UNL     1       1.337   5.023  -0.061  0.00  0.00    +0.155 A 
ATOM     24  O   UNL     1       2.680   4.918  -0.071  0.00  0.00    -0.460 OA
BRANCH  23  25
ATOM     25  C   UNL     1       0.381   3.904  -0.113  0.00  0.00    +0.127 A 
ATOM     26  C   UNL     1       0.694   2.562  -0.187  0.00  0.00    +0.052 A 
ATOM     27  C   UNL     1      -0.505   1.850  -0.216  0.00  0.00    +0.105 A 
ATOM     28  N   UNL     1      -1.500   2.699  -0.167  0.00  0.00    -0.284 N 
ATOM     29  N   UNL     1      -0.981   3.998  -0.097  0.00  0.00    -0.171 NA
ATOM     30  H   UNL     1      -2.537   2.333  -0.184  0.00  0.00    +0.188 HD
ENDBRANCH  23  25
ENDBRANCH  19  20
ENDBRANCH   5  19
TORSDOF 6
