REMARK  Name = ZINC36549953
REMARK  11 active torsions:
REMARK  status: ('A' for Active; 'I' for Inactive)
REMARK    1  A    between atoms: C_1  and  C_2
REMARK    2  A    between atoms: C_7  and  C_8
REMARK    3  A    between atoms: C_8  and  C_10
REMARK    4  A    between atoms: C_8  and  N_17
REMARK    5  A    between atoms: N_12  and  C_13
REMARK    6  A    between atoms: C_13  and  C_14
REMARK    7  A    between atoms: C_13  and  C_15
REMARK    8  A    between atoms: C_13  and  C_16
REMARK    9  A    between atoms: N_17  and  C_18
REMARK   10  A    between atoms: C_25  and  C_27
REMARK   11  A    between atoms: C_30  and  N_33
REMARK                            x       y       z     vdW  Elec       q    Type
REMARK                         _______ _______ _______ _____ _____    ______ ____
ROOT
ATOM      1  N   UNL     1       1.024  -0.551   3.546  0.00  0.00    -0.250 N 
ATOM      2  C   UNL     1       2.310  -0.833   3.260  0.00  0.00    +0.252 C 
ATOM      3  O   UNL     1       2.767  -0.547   2.170  0.00  0.00    -0.270 OA
ENDROOT
BRANCH   1   4
ATOM      4  C   UNL     1       0.527  -0.780   4.834  0.00  0.00    +0.056 A 
ATOM      5  C   UNL     1      -0.179  -1.943   5.111  0.00  0.00    +0.025 A 
ATOM      6  C   UNL     1      -0.667  -2.167   6.383  0.00  0.00    +0.002 A 
ATOM      7  C   UNL     1      -0.455  -1.234   7.381  0.00  0.00    +0.002 A 
ATOM      8  C   UNL     1       0.247  -0.074   7.110  0.00  0.00    +0.022 A 
ATOM      9  C   UNL     1       0.744   0.153   5.840  0.00  0.00    +0.062 A 
ATOM     10 CL   UNL     1       1.632   1.606   5.502  0.00  0.00    -0.082 Cl
ENDBRANCH   1   4
BRANCH   2  11
ATOM     11  C   UNL     1       3.165  -1.490   4.271  0.00  0.00    +0.037 A 
ATOM     12  C   UNL     1       2.684  -2.585   4.991  0.00  0.00    +0.015 A 
ATOM     13  C   UNL     1       3.487  -3.194   5.933  0.00  0.00    +0.033 A 
ATOM     14  C   UNL     1       4.767  -2.722   6.165  0.00  0.00    +0.126 A 
ATOM     15  C   UNL     1       5.250  -1.637   5.454  0.00  0.00    +0.033 A 
ATOM     16  C   UNL     1       4.459  -1.023   4.505  0.00  0.00    +0.015 A 
BRANCH  14  17
ATOM     17  N   UNL     1       5.623  -3.379   7.178  0.00  0.00    +0.056 N 
ATOM     18  O   UNL     1       5.203  -4.327   7.800  0.00  0.00    -0.126 OA
ATOM     19  O   UNL     1       6.741  -2.969   7.382  0.00  0.00    -0.126 OA
ENDBRANCH  14  17
ENDBRANCH   2  11
BRANCH   1  20
ATOM     20  C   UNL     1       0.146  -0.003   2.509  0.00  0.00    +0.198 C 
BRANCH  20  27
ATOM     21  C   UNL     1      -0.249   0.860  -0.220  0.00  0.00    +0.044 C 
ATOM     22  C   UNL     1      -0.225  -0.611   0.110  0.00  0.00    -0.045 A 
ATOM     23  C   UNL     1      -0.386  -1.547  -0.895  0.00  0.00    +0.004 A 
ATOM     24  C   UNL     1      -0.363  -2.896  -0.593  0.00  0.00    +0.000 A 
ATOM     25  C   UNL     1      -0.180  -3.308   0.714  0.00  0.00    +0.000 A 
ATOM     26  C   UNL     1      -0.018  -2.373   1.718  0.00  0.00    +0.006 A 
ATOM     27  C   UNL     1      -0.036  -1.024   1.415  0.00  0.00    -0.015 A 
ENDBRANCH  20  27
BRANCH  20  28
ATOM     28  C   UNL     1      -1.195   0.332   3.111  0.00  0.00    +0.239 C 
ATOM     29  O   UNL     1      -1.362   0.237   4.309  0.00  0.00    -0.273 OA
ATOM     30  N   UNL     1      -2.207   0.736   2.319  0.00  0.00    -0.309 N 
ATOM     31  H   UNL     1      -2.097   0.742   1.355  0.00  0.00    +0.149 HD
BRANCH  30  32
ATOM     32  C   UNL     1      -3.474   1.169   2.913  0.00  0.00    +0.026 C 
ATOM     33  C   UNL     1      -3.224   2.365   3.834  0.00  0.00    +0.031 C 
ATOM     34  C   UNL     1      -4.446   1.574   1.803  0.00  0.00    +0.031 C 
ATOM     35  C   UNL     1      -4.076   0.018   3.724  0.00  0.00    +0.031 C 
ENDBRANCH  30  32
ENDBRANCH  20  28
ENDBRANCH   1  20
TORSDOF 7
