REMARK  Name = ZINC66956298
REMARK  10 active torsions:
REMARK  status: ('A' for Active; 'I' for Inactive)
REMARK    1  A    between atoms: C_1  and  C_2
REMARK    2  A    between atoms: C_2  and  O_3
REMARK    3  A    between atoms: O_3  and  C_4
REMARK    4  A    between atoms: N_6  and  C_7
REMARK    5  A    between atoms: N_16  and  C_17
REMARK    6  A    between atoms: C_22  and  S_23
REMARK    7  A    between atoms: S_23  and  C_24
REMARK    8  A    between atoms: C_24  and  C_26
REMARK    9  A    between atoms: C_24  and  C_27
REMARK   10  A    between atoms: C_27  and  C_28
REMARK                            x       y       z     vdW  Elec       q    Type
REMARK                         _______ _______ _______ _____ _____    ______ ____
ROOT
ATOM      1  C   UNL     1      -2.757  -3.730  -0.072  0.00  0.00    +0.094 C 
ATOM      2  C   UNL     1      -4.081  -4.054   0.624  0.00  0.00    +0.025 C 
ATOM      3  C   UNL     1      -4.221  -5.570   0.779  0.00  0.00    +0.021 C 
ATOM      4  C   UNL     1      -4.231  -6.222  -0.608  0.00  0.00    +0.109 C 
ATOM      5  N   UNL     1      -3.029  -5.799  -1.338  0.00  0.00    -0.284 N 
ATOM      6  C   UNL     1      -2.750  -4.362  -1.468  0.00  0.00    +0.131 C 
ATOM      7  C   UNL     1      -2.198  -6.711  -1.879  0.00  0.00    +0.307 C 
ATOM      8  O   UNL     1      -1.258  -6.349  -2.561  0.00  0.00    -0.252 OA
ATOM      9  N   UNL     1      -2.408  -8.025  -1.666  0.00  0.00    -0.268 N 
ATOM     10  H   UNL     1      -3.209  -8.319  -1.205  0.00  0.00    +0.156 HD
ENDROOT
BRANCH   9  11
ATOM     11  C   UNL     1      -1.468  -8.966  -2.108  0.00  0.00    +0.048 A 
ATOM     12  C   UNL     1      -0.184  -8.563  -2.440  0.00  0.00    +0.024 A 
ATOM     13  C   UNL     1       0.742  -9.493  -2.877  0.00  0.00    +0.002 A 
ATOM     14  C   UNL     1       0.391 -10.827  -2.985  0.00  0.00    +0.001 A 
ATOM     15  C   UNL     1      -0.887 -11.238  -2.655  0.00  0.00    +0.016 A 
ATOM     16  C   UNL     1      -1.821 -10.312  -2.210  0.00  0.00    +0.029 A 
BRANCH  16  17
ATOM     17  S   UNL     1      -3.448 -10.834  -1.783  0.00  0.00    -0.119 S 
BRANCH  17  18
ATOM     18  C   UNL     1      -3.447 -12.613  -2.140  0.00  0.00    +0.062 C 
ATOM     19  C   UNL     1      -3.348 -12.829  -3.652  0.00  0.00    +0.020 C 
BRANCH  18  20
ATOM     20  C   UNL     1      -4.742 -13.238  -1.619  0.00  0.00    +0.132 C 
BRANCH  20  21
ATOM     21  C   UNL     1      -4.781 -13.136  -0.151  0.00  0.00    +0.064 C 
ATOM     22  N   UNL     1      -4.810 -13.057   0.982  0.00  0.00    -0.197 NA
ENDBRANCH  20  21
ENDBRANCH  18  20
ENDBRANCH  17  18
ENDBRANCH  16  17
ENDBRANCH   9  11
BRANCH   1  25
ATOM     23  C   UNL     1      -1.381  -1.731  -0.290  0.00  0.00    +0.401 C 
ATOM     24  O   UNL     1      -0.396  -2.443  -0.280  0.00  0.00    -0.226 OA
ATOM     25  N   UNL     1      -2.609  -2.278  -0.192  0.00  0.00    -0.277 N 
ATOM     26  H   UNL     1      -3.395  -1.710  -0.201  0.00  0.00    +0.152 HD
BRANCH  23  27
ATOM     27  O   UNL     1      -1.245  -0.396  -0.401  0.00  0.00    -0.451 OA
BRANCH  27  29
ATOM     28  C   UNL     1       0.039   1.639  -0.617  0.00  0.00    +0.048 C 
ATOM     29  C   UNL     1       0.086   0.115  -0.501  0.00  0.00    +0.230 C 
ENDBRANCH  27  29
ENDBRANCH  23  27
ENDBRANCH   1  25
TORSDOF 8
