REMARK  Name = ZINC64023916
REMARK  8 active torsions:
REMARK  status: ('A' for Active; 'I' for Inactive)
REMARK    1  A    between atoms: C_1  and  O_2
REMARK    2  A    between atoms: O_2  and  C_3
REMARK    3  A    between atoms: C_6  and  C_9
REMARK    4  A    between atoms: C_16  and  C_19
REMARK    5  A    between atoms: C_19  and  N_20
REMARK    6  A    between atoms: C_21  and  C_23
REMARK    7  A    between atoms: C_23  and  C_24
REMARK    8  A    between atoms: C_24  and  C_25
REMARK                            x       y       z     vdW  Elec       q    Type
REMARK                         _______ _______ _______ _____ _____    ______ ____
ROOT
ATOM      1  C   UNL     1       2.585  -2.317   4.312  0.00  0.00    +0.047 A 
ATOM      2  C   UNL     1       2.701  -3.697   4.449  0.00  0.00    +0.052 A 
ATOM      3  C   UNL     1       3.355  -4.235   5.541  0.00  0.00    +0.125 A 
ATOM      4  C   UNL     1       3.900  -3.395   6.501  0.00  0.00    +0.045 A 
ATOM      5  C   UNL     1       3.790  -2.028   6.370  0.00  0.00    +0.001 A 
ATOM      6  C   UNL     1       3.136  -1.467   5.283  0.00  0.00    +0.134 A 
ATOM      7  O   UNL     1       3.130  -0.108   5.357  0.00  0.00    -0.486 OA
ATOM      8  C   UNL     1       4.162   0.321   6.261  0.00  0.00    +0.195 C 
ATOM      9  C   UNL     1       4.283  -0.881   7.232  0.00  0.00    +0.085 C 
ATOM     10  F   UNL     1       3.462  -5.575   5.674  0.00  0.00    -0.205 F 
ENDROOT
BRANCH   1  14
ATOM     11  C   UNL     1       0.625  -0.617   1.040  0.00  0.00    +0.234 A 
ATOM     12  C   UNL     1       0.686  -2.009   1.093  0.00  0.00    +0.071 A 
ATOM     13  C   UNL     1       1.332  -2.591   2.169  0.00  0.00    +0.035 A 
ATOM     14  C   UNL     1       1.883  -1.746   3.138  0.00  0.00    +0.097 A 
ATOM     15  N   UNL     1       1.775  -0.431   3.003  0.00  0.00    -0.146 NA
ATOM     16  N   UNL     1       1.179   0.105   2.000  0.00  0.00    -0.111 NA
BRANCH  11  18
ATOM     17  C   UNL     1      -0.017   1.425   0.010  0.00  0.00    +0.279 C 
ATOM     18  O   UNL     1       0.002  -0.004   0.002  0.00  0.00    -0.479 OA
ENDBRANCH  11  18
ENDBRANCH   1  14
BRANCH   8  19
ATOM     19  C   UNL     1       3.734   1.582   7.014  0.00  0.00    +0.149 C 
BRANCH  19  20
ATOM     20  N   UNL     1       3.501   2.667   6.058  0.00  0.00    -0.312 N 
ATOM     21  C   UNL     1       3.113   3.881   6.497  0.00  0.00    +0.213 C 
ATOM     22  O   UNL     1       2.957   4.074   7.684  0.00  0.00    -0.276 OA
ATOM     23  H   UNL     1       3.627   2.512   5.109  0.00  0.00    +0.149 HD
BRANCH  21  24
ATOM     24  C   UNL     1       2.874   4.997   5.514  0.00  0.00    +0.100 C 
BRANCH  24  25
ATOM     25  C   UNL     1       2.445   6.258   6.267  0.00  0.00    +0.042 C 
BRANCH  25  26
ATOM     26  C   UNL     1       2.206   7.374   5.283  0.00  0.00    -0.041 C 
ATOM     27  C   UNL     1       1.022   7.739   4.740  0.00  0.00    -0.001 A 
ATOM     28  C   UNL     1      -0.344   7.226   4.896  0.00  0.00    +0.010 A 
ATOM     29  C   UNL     1      -1.347   7.811   4.204  0.00  0.00    +0.001 A 
ATOM     30  C   UNL     1      -1.116   8.893   3.343  0.00  0.00    +0.002 A 
ATOM     31  C   UNL     1       0.111   9.420   3.148  0.00  0.00    +0.026 A 
ATOM     32  C   UNL     1       1.240   8.883   3.826  0.00  0.00    +0.043 A 
ATOM     33  N   UNL     1       2.509   9.212   3.804  0.00  0.00    -0.380 N 
ATOM     34  C   UNL     1       3.240   8.316   4.709  0.00  0.00    +0.144 C 
ATOM     35  H   UNL     1       2.899   9.929   3.281  0.00  0.00    +0.160 HD
ENDBRANCH  25  26
ENDBRANCH  24  25
ENDBRANCH  21  24
ENDBRANCH  19  20
ENDBRANCH   8  19
TORSDOF 7
