REMARK  Name = ZINC06194628
REMARK  10 active torsions:
REMARK  status: ('A' for Active; 'I' for Inactive)
REMARK    1  A    between atoms: C_1  and  C_2
REMARK    2  A    between atoms: C_2  and  O_3
REMARK    3  A    between atoms: O_3  and  C_4
REMARK    4  A    between atoms: C_4  and  C_6
REMARK    5  A    between atoms: C_11  and  C_13
REMARK    6  A    between atoms: C_11  and  C_27
REMARK    7  A    between atoms: C_11  and  N_69
REMARK    8  A    between atoms: C_17  and  C_26
REMARK    9  A    between atoms: C_19  and  C_25
REMARK   10  A    between atoms: N_31  and  C_32
REMARK                            x       y       z     vdW  Elec       q    Type
REMARK                         _______ _______ _______ _____ _____    ______ ____
ROOT
ATOM      1  C   UNL     1      -1.332   7.432   0.058  0.00  0.00    +0.039 C 
ENDROOT
BRANCH   1   2
ATOM      2  C   UNL     1      -1.250   5.927   0.058  0.00  0.00    +0.011 A 
ATOM      3  C   UNL     1      -1.622   5.230  -1.044  0.00  0.00    +0.017 A 
ATOM      4  C   UNL     1      -1.531   3.769  -1.012  0.00  0.00    -0.001 A 
ATOM      5  C   UNL     1      -1.900   2.997  -2.118  0.00  0.00    +0.013 A 
ATOM      6  C   UNL     1      -1.802   1.636  -2.056  0.00  0.00    -0.050 A 
ATOM      7  C   UNL     1      -1.339   1.012  -0.905  0.00  0.00    +0.008 A 
ATOM      8  C   UNL     1      -0.976   1.753   0.198  0.00  0.00    -0.026 A 
ATOM      9  C   UNL     1      -1.062   3.141   0.157  0.00  0.00    +0.052 A 
ATOM     10  N   UNL     1      -0.698   3.907   1.244  0.00  0.00    -0.322 N 
ATOM     11  H   UNL     1      -0.364   3.459   2.073  0.00  0.00    +0.169 HD
ATOM     12  C   UNL     1      -0.786   5.248   1.205  0.00  0.00    +0.251 A 
ATOM     13  O   UNL     1      -0.457   5.894   2.185  0.00  0.00    -0.268 OA
ATOM     14  C   UNL     1      -0.481   1.063   1.443  0.00  0.00    +0.046 C 
ATOM     15  C   UNL     1      -2.200   0.803  -3.248  0.00  0.00    +0.044 C 
ENDBRANCH   1   2
BRANCH   1  21
ATOM     16  C   UNL     1      -4.552   9.150   2.285  0.00  0.00    +0.094 C 
ATOM     17  C   UNL     1      -3.153   9.766   2.385  0.00  0.00    -0.004 C 
ATOM     18  C   UNL     1      -2.325   9.338   1.171  0.00  0.00    -0.077 C 
ATOM     19  C   UNL     1      -3.561   7.262   0.987  0.00  0.00    -0.077 C 
ATOM     20  C   UNL     1      -4.425   7.627   2.196  0.00  0.00    -0.004 C 
ATOM     21  N   UNL     1      -2.221   7.864   1.156  0.00  0.00    +0.389 N 
ATOM     22  H   UNL     1      -1.825   7.549   2.049  0.00  0.00    -0.080 HD
BRANCH  16  23
ATOM     23  C   UNL     1      -5.353   9.520   3.507  0.00  0.00    +0.310 C 
ATOM     24  O   UNL     1      -4.857  10.205   4.370  0.00  0.00    -0.251 OA
BRANCH  23  25
ATOM     25  O   UNL     1      -6.617   9.088   3.636  0.00  0.00    -0.465 OA
BRANCH  25  27
ATOM     26  C   UNL     1      -8.743   8.900   4.809  0.00  0.00    +0.048 C 
ATOM     27  C   UNL     1      -7.329   9.482   4.839  0.00  0.00    +0.229 C 
ENDBRANCH  25  27
ENDBRANCH  23  25
ENDBRANCH  16  23
ENDBRANCH   1  21
BRANCH   1  28
ATOM     28  C   UNL     1      -1.861   7.906  -1.271  0.00  0.00    +0.143 A 
ATOM     29  N   UNL     1      -3.102   7.838  -1.688  0.00  0.00    -0.115 NA
ATOM     30  N   UNL     1      -3.152   8.347  -2.871  0.00  0.00    -0.023 NA
ATOM     31  N   UNL     1      -1.975   8.732  -3.221  0.00  0.00    -0.044 NA
ATOM     32  N   UNL     1      -1.151   8.477  -2.262  0.00  0.00    -0.227 N 
BRANCH  32  33
ATOM     33  C   UNL     1       0.287   8.755  -2.252  0.00  0.00    +0.111 C 
ATOM     34  C   UNL     1       0.535  10.261  -2.475  0.00  0.00    +0.027 C 
ATOM     35  C   UNL     1       1.810  10.310  -3.355  0.00  0.00    +0.002 C 
ATOM     36  C   UNL     1       1.616   9.103  -4.306  0.00  0.00    +0.002 C 
ATOM     37  C   UNL     1       0.974   8.019  -3.416  0.00  0.00    +0.027 C 
ENDBRANCH  32  33
ENDBRANCH   1  28
TORSDOF 7
