REMARK  Name = ZINC08977514
REMARK  3 active torsions:
REMARK  status: ('A' for Active; 'I' for Inactive)
REMARK    1  A    between atoms: C_13  and  C_15
REMARK    2  A    between atoms: N_20  and  S_21
REMARK    3  A    between atoms: S_21  and  C_24
REMARK                            x       y       z     vdW  Elec       q    Type
REMARK                         _______ _______ _______ _____ _____    ______ ____
ROOT
ATOM      1  C   UNL     1       1.179   1.780   0.000  0.00  0.00    +0.001 A 
ATOM      2  C   UNL     1      -0.013   1.076   0.008  0.00  0.00    +0.001 A 
ATOM      3  C   UNL     1      -1.220   1.746   0.017  0.00  0.00    +0.015 A 
ATOM      4  C   UNL     1      -1.244   3.136   0.031  0.00  0.00    +0.017 A 
ATOM      5  C   UNL     1      -0.042   3.846   0.051  0.00  0.00    +0.015 A 
ATOM      6  C   UNL     1       1.169   3.161   0.022  0.00  0.00    +0.011 A 
ATOM      7  C   UNL     1      -0.032   5.343   0.095  0.00  0.00    +0.085 A 
ATOM      8  C   UNL     1      -1.143   6.046   0.472  0.00  0.00    +0.029 A 
ATOM      9  S   UNL     1      -0.612   7.733   0.328  0.00  0.00    -0.056 S 
ATOM     10  C   UNL     1       1.057   7.381  -0.211  0.00  0.00    +0.165 A 
ATOM     11  N   UNL     1       1.050   6.064  -0.233  0.00  0.00    -0.224 NA
ATOM     12  N   UNL     1       2.085   8.261  -0.524  0.00  0.00    -0.263 N 
ATOM     13  C   UNL     1       1.884   9.591  -0.435  0.00  0.00    +0.238 C 
ATOM     14  O   UNL     1       0.805  10.019  -0.083  0.00  0.00    -0.274 OA
ATOM     15  C   UNL     1      -2.471   5.514   0.899  0.00  0.00    +0.119 C 
ATOM     16  S   UNL     1      -2.794   3.977  -0.019  0.00  0.00    -0.119 S 
ATOM     17  H   UNL     1       2.948   7.919  -0.805  0.00  0.00    +0.157 HD
ENDROOT
BRANCH  13  18
ATOM     18  C   UNL     1       3.000  10.546  -0.774  0.00  0.00    +0.166 C 
ATOM     19  C   UNL     1       3.404  10.377  -2.254  0.00  0.00    +0.031 C 
ATOM     20  C   UNL     1       2.619  11.513  -2.960  0.00  0.00    +0.019 C 
ATOM     21  C   UNL     1       2.665  12.634  -1.892  0.00  0.00    +0.110 C 
ATOM     22  N   UNL     1       2.541  11.932  -0.602  0.00  0.00    -0.165 NA
BRANCH  22  23
ATOM     23  S   UNL     1       1.977  12.594   0.807  0.00  0.00    +0.062 S 
ATOM     24  O   UNL     1       1.152  13.691   0.439  0.00  0.00    -0.153 OA
ATOM     25  O   UNL     1       1.501  11.516   1.601  0.00  0.00    -0.153 OA
BRANCH  23  26
ATOM     26  C   UNL     1       3.365  13.271   1.657  0.00  0.00    +0.106 A 
ATOM     27  C   UNL     1       4.073  12.492   2.553  0.00  0.00    +0.030 A 
ATOM     28  C   UNL     1       5.165  13.020   3.215  0.00  0.00    +0.022 A 
ATOM     29  C   UNL     1       5.542  14.332   2.990  0.00  0.00    +0.041 A 
ATOM     30  C   UNL     1       4.830  15.112   2.097  0.00  0.00    +0.022 A 
ATOM     31  C   UNL     1       3.741  14.581   1.431  0.00  0.00    +0.030 A 
ATOM     32 CL   UNL     1       6.909  14.998   3.827  0.00  0.00    -0.084 Cl
ENDBRANCH  23  26
ENDBRANCH  22  23
ENDBRANCH  13  18
TORSDOF 3
