REMARK  Name = ZINC04795717
REMARK  9 active torsions:
REMARK  status: ('A' for Active; 'I' for Inactive)
REMARK    1  A    between atoms: C_1  and  C_2
REMARK    2  A    between atoms: C_2  and  N_60
REMARK    3  A    between atoms: C_3  and  C_4
REMARK    4  A    between atoms: C_3  and  N_60
REMARK    5  A    between atoms: C_5  and  C_6
REMARK    6  A    between atoms: C_5  and  N_60
REMARK    7  A    between atoms: C_6  and  N_7
REMARK    8  A    between atoms: C_8  and  C_10
REMARK    9  A    between atoms: C_15  and  C_18
REMARK                            x       y       z     vdW  Elec       q    Type
REMARK                         _______ _______ _______ _____ _____    ______ ____
ROOT
ATOM      1  C   UNL     1       2.517   3.917  -0.001  0.00  0.00    +0.305 C 
ATOM      2  O   UNL     1       3.488   3.190   0.008  0.00  0.00    -0.265 OA
ATOM      3  N   UNL     1       1.278   3.387  -0.006  0.00  0.00    -0.257 N 
ATOM      4  C   UNL     1       1.113   2.009  -0.001  0.00  0.00    +0.165 A 
ATOM      5  N   UNL     1      -0.005   1.308  -0.005  0.00  0.00    -0.229 NA
ATOM      6  C   UNL     1       0.015  -0.009  -0.000  0.00  0.00    +0.057 A 
ATOM      7  C   UNL     1       1.218  -0.637   0.009  0.00  0.00    +0.072 A 
ATOM      8  S   UNL     1       2.325   0.765   0.010  0.00  0.00    -0.060 S 
ATOM      9  H   UNL     1       0.501   3.968  -0.013  0.00  0.00    +0.157 HD
ENDROOT
BRANCH   6  10
ATOM     10  C   UNL     1      -1.267  -0.800  -0.004  0.00  0.00    +0.014 C 
ATOM     11  C   UNL     1      -1.172  -1.932   1.021  0.00  0.00    +0.016 C 
ATOM     12  C   UNL     1      -2.474  -2.735   1.017  0.00  0.00    -0.010 C 
ATOM     13  C   UNL     1      -3.642  -1.815   1.380  0.00  0.00    +0.007 C 
ATOM     14  C   UNL     1      -3.737  -0.683   0.355  0.00  0.00    -0.010 C 
ATOM     15  C   UNL     1      -2.435   0.120   0.359  0.00  0.00    +0.016 C 
ATOM     16  C   UNL     1      -3.967  -1.274  -1.038  0.00  0.00    +0.007 C 
ATOM     17  C   UNL     1      -2.800  -2.194  -1.401  0.00  0.00    -0.010 C 
ATOM     18  C   UNL     1      -2.705  -3.326  -0.375  0.00  0.00    +0.007 C 
ATOM     19  C   UNL     1      -1.498  -1.391  -1.397  0.00  0.00    +0.016 C 
ENDBRANCH   6  10
BRANCH   1  21
ATOM     20  N   UNL     1       3.933   5.930  -0.000  0.00  0.00    -0.309 N 
ATOM     21  C   UNL     1       2.694   5.400  -0.006  0.00  0.00    +0.299 C 
ATOM     22  O   UNL     1       1.723   6.127  -0.015  0.00  0.00    -0.265 OA
ATOM     23  H   UNL     1       4.710   5.349   0.007  0.00  0.00    +0.149 HD
BRANCH  20  24
ATOM     24  C   UNL     1       4.107   7.385  -0.005  0.00  0.00    +0.086 C 
BRANCH  24  25
ATOM     25  C   UNL     1       5.600   7.720   0.002  0.00  0.00    -0.060 C 
BRANCH  25  26
ATOM     26  N   UNL     1       5.758   9.182  -0.146  0.00  0.00    +0.380 N 
ATOM     27  H   UNL     1       5.096   9.518  -0.855  0.00  0.00    -0.082 HD
BRANCH  26  29
ATOM     28  C   UNL     1       5.422  11.366   0.904  0.00  0.00    -0.017 C 
ATOM     29  C   UNL     1       5.471   9.854   1.138  0.00  0.00    -0.082 C 
ENDBRANCH  26  29
BRANCH  26  30
ATOM     30  C   UNL     1       7.133   9.499  -0.586  0.00  0.00    -0.082 C 
ATOM     31  C   UNL     1       7.251   9.199  -2.082  0.00  0.00    -0.017 C 
ENDBRANCH  26  30
ENDBRANCH  25  26
ENDBRANCH  24  25
ENDBRANCH  20  24
ENDBRANCH   1  21
TORSDOF 7
