REMARK  Name = ZINC03212574
REMARK  10 active torsions:
REMARK  status: ('A' for Active; 'I' for Inactive)
REMARK    1  A    between atoms: C_1  and  C_2
REMARK    2  A    between atoms: C_2  and  C_4
REMARK    3  A    between atoms: N_6  and  C_7
REMARK    4  A    between atoms: C_10  and  C_14
REMARK    5  A    between atoms: C_12  and  O_13
REMARK    6  A    between atoms: C_14  and  C_15
REMARK    7  A    between atoms: C_18  and  N_22
REMARK    8  A    between atoms: C_19  and  O_21
REMARK    9  A    between atoms: C_23  and  C_25
REMARK   10  A    between atoms: C_25  and  C_27
REMARK                            x       y       z     vdW  Elec       q    Type
REMARK                         _______ _______ _______ _____ _____    ______ ____
ROOT
ATOM      1  C   UNL     1      -6.122  -0.836  -0.319  0.00  0.00    +0.070 C 
ENDROOT
BRANCH   1   5
ATOM      2  C   UNL     1      -2.376   1.206  -0.018  0.00  0.00    +0.076 A 
ATOM      3  C   UNL     1      -2.416  -0.180  -0.021  0.00  0.00    +0.027 A 
ATOM      4  C   UNL     1      -3.628  -0.837  -0.118  0.00  0.00    +0.006 A 
ATOM      5  C   UNL     1      -4.803  -0.115  -0.214  0.00  0.00    -0.039 A 
ATOM      6  C   UNL     1      -4.772   1.268  -0.212  0.00  0.00    +0.051 A 
ATOM      7  C   UNL     1      -3.561   1.933  -0.109  0.00  0.00    +0.138 A 
BRANCH   2  10
ATOM      8  C   UNL     1      -0.050   1.352  -0.499  0.00  0.00    +0.244 C 
ATOM      9  O   UNL     1      -0.103   0.261  -1.033  0.00  0.00    -0.270 OA
ATOM     10  N   UNL     1      -1.149   1.874   0.081  0.00  0.00    -0.279 N 
ATOM     11  H   UNL     1      -1.091   2.711   0.567  0.00  0.00    +0.155 HD
BRANCH   8  13
ATOM     12  C   UNL     1       1.280   3.458   0.171  0.00  0.00    +0.048 C 
ATOM     13  C   UNL     1       1.213   2.106  -0.490  0.00  0.00    +0.004 C 
ATOM     14  C   UNL     1       2.297   1.593  -1.067  0.00  0.00    +0.017 C 
ENDBRANCH   8  13
ENDBRANCH   2  10
BRANCH   7  15
ATOM     15  O   UNL     1      -3.529   3.293  -0.102  0.00  0.00    -0.505 OA
ATOM     16  H   UNL     1      -3.451   3.689  -0.981  0.00  0.00    +0.292 HD
ENDBRANCH   7  15
ENDBRANCH   1   5
BRANCH   1  17
ATOM     17  C   UNL     1      -6.676  -1.075   1.062  0.00  0.00    -0.039 A 
ATOM     18  C   UNL     1      -6.362  -2.240   1.739  0.00  0.00    +0.006 A 
ATOM     19  C   UNL     1      -6.862  -2.462   3.008  0.00  0.00    +0.027 A 
ATOM     20  C   UNL     1      -7.691  -1.520   3.601  0.00  0.00    +0.076 A 
ATOM     21  C   UNL     1      -8.011  -0.350   2.916  0.00  0.00    +0.138 A 
ATOM     22  C   UNL     1      -7.501  -0.133   1.646  0.00  0.00    +0.051 A 
BRANCH  20  23
ATOM     23  N   UNL     1      -8.203  -1.745   4.884  0.00  0.00    -0.279 N 
ATOM     24  C   UNL     1      -8.334  -3.005   5.346  0.00  0.00    +0.244 C 
ATOM     25  O   UNL     1      -8.104  -3.948   4.614  0.00  0.00    -0.270 OA
ATOM     26  H   UNL     1      -8.464  -0.995   5.441  0.00  0.00    +0.155 HD
BRANCH  24  27
ATOM     27  C   UNL     1      -8.756  -3.238   6.736  0.00  0.00    +0.004 C 
ATOM     28  C   UNL     1      -8.885  -4.481   7.192  0.00  0.00    +0.017 C 
ATOM     29  C   UNL     1      -9.041  -2.069   7.643  0.00  0.00    +0.048 C 
ENDBRANCH  24  27
ENDBRANCH  20  23
BRANCH  21  30
ATOM     30  O   UNL     1      -8.823   0.577   3.492  0.00  0.00    -0.505 OA
ATOM     31  H   UNL     1      -9.763   0.446   3.307  0.00  0.00    +0.292 HD
ENDBRANCH  21  30
ENDBRANCH   1  17
TORSDOF 8
