REMARK  Name = ZINC03224944
REMARK  10 active torsions:
REMARK  status: ('A' for Active; 'I' for Inactive)
REMARK    1  A    between atoms: C_1  and  C_2
REMARK    2  A    between atoms: C_5  and  N_8
REMARK    3  A    between atoms: N_8  and  S_9
REMARK    4  A    between atoms: S_9  and  C_12
REMARK    5  A    between atoms: C_16  and  C_18
REMARK    6  A    between atoms: N_20  and  C_21
REMARK    7  A    between atoms: C_21  and  C_22
REMARK    8  A    between atoms: C_22  and  C_23
REMARK    9  A    between atoms: C_23  and  N_60
REMARK   10  A    between atoms: C_24  and  N_60
REMARK                            x       y       z     vdW  Elec       q    Type
REMARK                         _______ _______ _______ _____ _____    ______ ____
ROOT
ATOM      1  C   UNL     1      -9.243   0.449  -3.911  0.00  0.00    +0.109 A 
ATOM      2  C   UNL     1      -9.828  -0.388  -2.977  0.00  0.00    +0.029 A 
ATOM      3  C   UNL     1      -9.113  -0.802  -1.867  0.00  0.00    +0.003 A 
ATOM      4  C   UNL     1      -7.809  -0.388  -1.689  0.00  0.00    +0.013 A 
ATOM      5  C   UNL     1      -7.215   0.459  -2.626  0.00  0.00    +0.039 A 
ATOM      6  C   UNL     1      -7.942   0.874  -3.743  0.00  0.00    +0.041 A 
ENDROOT
BRANCH   5   7
ATOM      7  C   UNL     1      -5.820   0.911  -2.439  0.00  0.00    +0.244 C 
ATOM      8  O   UNL     1      -5.303   1.645  -3.259  0.00  0.00    -0.270 OA
ATOM      9  N   UNL     1      -5.120   0.509  -1.359  0.00  0.00    -0.311 N 
ATOM     10  H   UNL     1      -5.532  -0.077  -0.705  0.00  0.00    +0.149 HD
BRANCH   9  11
ATOM     11  C   UNL     1      -3.737   0.956  -1.174  0.00  0.00    +0.102 C 
BRANCH  11  12
ATOM     12  C   UNL     1      -3.178   0.361   0.120  0.00  0.00    -0.000 C 
BRANCH  12  13
ATOM     13  C   UNL     1      -1.734   0.828   0.313  0.00  0.00    -0.081 C 
BRANCH  13  14
ATOM     14  N   UNL     1      -1.202   0.250   1.562  0.00  0.00    +0.381 N 
ATOM     15  H   UNL     1      -1.231  -0.775   1.500  0.00  0.00    -0.086 HD
ATOM     16  H   UNL     1      -1.778   0.562   2.352  0.00  0.00    -0.086 HD
BRANCH  14  17
ATOM     17  C   UNL     1       0.192   0.684   1.774  0.00  0.00    -0.072 C 
ATOM     18  C   UNL     1       1.139  -0.246   1.013  0.00  0.00    -0.016 C 
ATOM     19  C   UNL     1       2.584   0.200   1.242  0.00  0.00    -0.002 C 
ATOM     20  C   UNL     1       2.905   0.143   2.736  0.00  0.00    -0.000 C 
ATOM     21  C   UNL     1       1.959   1.073   3.497  0.00  0.00    -0.002 C 
ATOM     22  C   UNL     1       0.513   0.628   3.269  0.00  0.00    -0.016 C 
ENDBRANCH  14  17
ENDBRANCH  13  14
ENDBRANCH  12  13
ENDBRANCH  11  12
ENDBRANCH   9  11
ENDBRANCH   5   7
BRANCH   1  23
ATOM     23  S   UNL     1     -10.163   0.971  -5.321  0.00  0.00    +0.072 S 
ATOM     24  O   UNL     1     -11.534   0.756  -5.013  0.00  0.00    -0.150 OA
ATOM     25  O   UNL     1      -9.655   2.246  -5.688  0.00  0.00    -0.150 OA
BRANCH  23  26
ATOM     26  N   UNL     1      -9.789  -0.062  -6.560  0.00  0.00    -0.216 N 
ATOM     27  H   UNL     1      -9.345   0.274  -7.354  0.00  0.00    +0.174 HD
BRANCH  26  32
ATOM     28  C   UNL     1     -11.107  -5.563  -6.162  0.00  0.00    +0.044 C 
ATOM     29  C   UNL     1     -10.756  -4.101  -6.268  0.00  0.00    -0.050 A 
ATOM     30  C   UNL     1     -11.750  -3.170  -6.505  0.00  0.00    +0.005 A 
ATOM     31  C   UNL     1     -11.433  -1.829  -6.602  0.00  0.00    +0.025 A 
ATOM     32  C   UNL     1     -10.114  -1.417  -6.462  0.00  0.00    +0.048 A 
ATOM     33  C   UNL     1      -9.117  -2.357  -6.229  0.00  0.00    +0.025 A 
ATOM     34  C   UNL     1      -9.442  -3.695  -6.128  0.00  0.00    +0.005 A 
ENDBRANCH  26  32
ENDBRANCH  23  26
ENDBRANCH   1  23
TORSDOF 9
