REMARK  Name = ZINC52838501
REMARK  4 active torsions:
REMARK  status: ('A' for Active; 'I' for Inactive)
REMARK    1  A    between atoms: C_1  and  C_2
REMARK    2  A    between atoms: C_4  and  C_9
REMARK    3  A    between atoms: C_5  and  N_8
REMARK    4  A    between atoms: N_6  and  N_7
REMARK                            x       y       z     vdW  Elec       q    Type
REMARK                         _______ _______ _______ _____ _____    ______ ____
ROOT
ATOM      1  C   UNL     1      -0.197   1.494   0.004  0.00  0.00    +0.088 C 
ATOM      2  C   UNL     1      -0.076  -0.008  -0.001  0.00  0.00    +0.126 A 
ATOM      3  N   UNL     1      -0.134  -0.768  -1.057  0.00  0.00    -0.229 NA
ATOM      4  C   UNL     1       0.013  -2.058  -0.687  0.00  0.00    +0.115 A 
ATOM      5  C   UNL     1       0.169  -2.088   0.671  0.00  0.00    +0.141 A 
ATOM      6  N   UNL     1       0.117  -0.789   1.099  0.00  0.00    -0.239 N 
ENDROOT
BRANCH   4   7
ATOM      7  C   UNL     1       0.005  -3.232  -1.592  0.00  0.00    +0.040 A 
ATOM      8  C   UNL     1      -0.763  -4.353  -1.278  0.00  0.00    +0.028 A 
ATOM      9  C   UNL     1      -0.766  -5.443  -2.125  0.00  0.00    +0.019 A 
ATOM     10  C   UNL     1      -0.009  -5.426  -3.284  0.00  0.00    +0.018 A 
ATOM     11  C   UNL     1       0.755  -4.318  -3.601  0.00  0.00    +0.040 A 
ATOM     12  C   UNL     1       0.762  -3.217  -2.765  0.00  0.00    +0.133 A 
ATOM     13  F   UNL     1       1.504  -2.133  -3.079  0.00  0.00    -0.205 F 
ATOM     14 BR   UNL     1      -1.807  -6.964  -1.700  0.00  0.00    -0.050 Br
ENDBRANCH   4   7
BRANCH   6  15
ATOM     15  N   UNL     1       0.234  -0.357   2.389  0.00  0.00    -0.295 N 
ATOM     16  H   UNL     1      -0.667  -0.318   2.841  0.00  0.00    +0.163 HD
ATOM     17  H   UNL     1       0.875  -0.938   2.909  0.00  0.00    +0.163 HD
ENDBRANCH   6  15
BRANCH   5  18
ATOM     18  N   UNL     1       0.349  -3.218   1.462  0.00  0.00    -0.342 N 
ATOM     19  H   UNL     1       0.460  -4.088   1.047  0.00  0.00    +0.144 HD
ATOM     20  H   UNL     1       0.365  -3.136   2.428  0.00  0.00    +0.144 HD
ENDBRANCH   5  18
TORSDOF 3
