REMARK  Name = ZINC30903847
REMARK  7 active torsions:
REMARK  status: ('A' for Active; 'I' for Inactive)
REMARK    1  A    between atoms: N_9  and  C_11
REMARK    2  A    between atoms: C_11  and  C_12
REMARK    3  A    between atoms: C_12  and  C_14
REMARK    4  A    between atoms: C_12  and  O_25
REMARK    5  A    between atoms: C_14  and  N_15
REMARK    6  A    between atoms: N_15  and  C_16
REMARK    7  A    between atoms: C_16  and  C_17
REMARK                            x       y       z     vdW  Elec       q    Type
REMARK                         _______ _______ _______ _____ _____    ______ ____
ROOT
ATOM      1  C   UNL     1       6.338  -1.029  -2.784  0.00  0.00    +0.081 C 
ENDROOT
BRANCH   1   2
ATOM      2  O   UNL     1       6.873   0.268  -3.057  0.00  0.00    -0.395 OA
ATOM      3  H   UNL     1       6.224   1.154  -2.998  0.00  0.00    +0.210 HD
ENDBRANCH   1   2
BRANCH   1   4
ATOM      4  C   UNL     1       7.441  -2.078  -2.936  0.00  0.00    -0.049 C 
BRANCH   4  13
ATOM      5  C   UNL     1      10.567  -3.018  -8.473  0.00  0.00    +0.000 A 
ATOM      6  C   UNL     1      11.446  -3.221  -7.425  0.00  0.00    +0.000 A 
ATOM      7  C   UNL     1      10.995  -3.137  -6.124  0.00  0.00    +0.002 A 
ATOM      8  C   UNL     1       9.664  -2.850  -5.859  0.00  0.00    -0.061 A 
ATOM      9  C   UNL     1       8.789  -2.644  -6.904  0.00  0.00    -0.048 A 
ATOM     10  C   UNL     1       9.243  -2.731  -8.212  0.00  0.00    +0.004 A 
ATOM     11  C   UNL     1       7.335  -2.324  -6.668  0.00  0.00    +0.017 C 
ATOM     12  C   UNL     1       6.950  -2.680  -5.232  0.00  0.00    -0.074 C 
ATOM     13  N   UNL     1       7.934  -2.074  -4.320  0.00  0.00    +0.384 N 
ATOM     14  C   UNL     1       9.219  -2.773  -4.423  0.00  0.00    -0.043 C 
ATOM     15  H   UNL     1       8.087  -1.026  -4.616  0.00  0.00    -0.081 HD
ENDBRANCH   4  13
ENDBRANCH   1   4
BRANCH   1  16
ATOM     16  C   UNL     1       5.793  -1.065  -1.355  0.00  0.00    -0.052 C 
BRANCH  16  17
ATOM     17  N   UNL     1       4.655  -0.143  -1.242  0.00  0.00    +0.383 N 
ATOM     18  H   UNL     1       4.985   0.878  -1.483  0.00  0.00    -0.085 HD
ATOM     19  H   UNL     1       3.865  -0.448  -1.943  0.00  0.00    -0.085 HD
BRANCH  17  20
ATOM     20  C   UNL     1       4.104  -0.151   0.120  0.00  0.00    -0.045 C 
BRANCH  20  21
ATOM     21  C   UNL     1       2.941   0.804   0.198  0.00  0.00    -0.045 A 
ATOM     22  C   UNL     1       1.648   0.317   0.236  0.00  0.00    +0.003 A 
ATOM     23  C   UNL     1       0.581   1.192   0.307  0.00  0.00    +0.002 A 
ATOM     24  C   UNL     1       0.805   2.556   0.340  0.00  0.00    +0.021 A 
ATOM     25  C   UNL     1       2.098   3.045   0.303  0.00  0.00    +0.059 A 
ATOM     26  C   UNL     1       3.168   2.168   0.231  0.00  0.00    +0.061 A 
ATOM     27 CL   UNL     1       4.791   2.780   0.182  0.00  0.00    -0.082 Cl
ATOM     28 CL   UNL     1       2.381   4.757   0.345  0.00  0.00    -0.082 Cl
ENDBRANCH  20  21
ENDBRANCH  17  20
ENDBRANCH  16  17
ENDBRANCH   1  16
TORSDOF 7
