REMARK  Name = ZINC45599247
REMARK  7 active torsions:
REMARK  status: ('A' for Active; 'I' for Inactive)
REMARK    1  A    between atoms: C_1  and  C_2
REMARK    2  A    between atoms: C_4  and  C_7
REMARK    3  A    between atoms: C_7  and  C_8
REMARK    4  A    between atoms: C_11  and  S_13
REMARK    5  A    between atoms: S_13  and  C_14
REMARK    6  A    between atoms: C_14  and  C_15
REMARK    7  A    between atoms: C_25  and  C_29
REMARK                            x       y       z     vdW  Elec       q    Type
REMARK                         _______ _______ _______ _____ _____    ______ ____
ROOT
ATOM      1  C   UNL     1      -6.310  -1.958   6.610  0.00  0.00    +0.143 A 
ATOM      2  N   UNL     1      -7.174  -2.911   6.914  0.00  0.00    -0.216 NA
ATOM      3  C   UNL     1      -7.303  -3.380   8.145  0.00  0.00    +0.128 A 
ATOM      4  C   UNL     1      -6.486  -2.843   9.179  0.00  0.00    +0.051 A 
ATOM      5  C   UNL     1      -6.451  -3.201  10.598  0.00  0.00    -0.025 A 
ATOM      6  C   UNL     1      -5.575  -2.533  11.375  0.00  0.00    -0.004 A 
ATOM      7  S   UNL     1      -4.755  -1.402  10.283  0.00  0.00    -0.073 S 
ATOM      8  C   UNL     1      -5.591  -1.831   8.778  0.00  0.00    +0.114 A 
ATOM      9  N   UNL     1      -5.524  -1.426   7.525  0.00  0.00    -0.224 NA
ATOM     10  C   UNL     1      -5.347  -2.711  12.845  0.00  0.00    +0.046 C 
ATOM     11  C   UNL     1      -5.996  -4.033  13.280  0.00  0.00    -0.009 C 
ATOM     12  C   UNL     1      -7.415  -4.094  12.707  0.00  0.00    +0.008 C 
ATOM     13  C   UNL     1      -7.355  -4.278  11.190  0.00  0.00    +0.037 C 
ATOM     14  C   UNL     1      -6.052  -4.100  14.807  0.00  0.00    +0.008 C 
ATOM     15  N   UNL     1      -8.220  -4.378   8.422  0.00  0.00    -0.343 N 
ATOM     16  H   UNL     1      -8.158  -4.876   9.252  0.00  0.00    +0.144 HD
ATOM     17  H   UNL     1      -8.924  -4.579   7.787  0.00  0.00    +0.144 HD
ENDROOT
BRANCH   1  18
ATOM     18  C   UNL     1      -6.218  -1.474   5.186  0.00  0.00    +0.155 C 
BRANCH  18  19
ATOM     19  S   UNL     1      -4.995  -2.469   4.288  0.00  0.00    -0.058 S 
BRANCH  19  23
ATOM     20  C   UNL     1      -4.581  -1.403   0.584  0.00  0.00    +0.224 A 
ATOM     21  N   UNL     1      -5.484  -0.565   1.001  0.00  0.00    -0.111 NA
ATOM     22  N   UNL     1      -5.741  -0.790   2.241  0.00  0.00    -0.101 NA
ATOM     23  C   UNL     1      -5.003  -1.789   2.663  0.00  0.00    +0.278 A 
ATOM     24  O   UNL     1      -4.257  -2.201   1.620  0.00  0.00    -0.415 OA
BRANCH  20  25
ATOM     25  C   UNL     1      -4.005  -1.473  -0.807  0.00  0.00    +0.153 C 
BRANCH  25  29
ATOM     26  C   UNL     1      -1.658   2.920  -0.313  0.00  0.00    +0.073 C 
ATOM     27  C   UNL     1      -1.780   1.454  -0.641  0.00  0.00    +0.076 A 
ATOM     28  N   UNL     1      -2.840   0.688  -0.567  0.00  0.00    -0.249 NA
ATOM     29  C   UNL     1      -2.788  -0.588  -0.891  0.00  0.00    +0.058 A 
ATOM     30  C   UNL     1      -1.588  -1.070  -1.305  0.00  0.00    +0.070 A 
ATOM     31  S   UNL     1      -0.587   0.405  -1.199  0.00  0.00    -0.081 S 
ENDBRANCH  25  29
ENDBRANCH  20  25
ENDBRANCH  19  23
ENDBRANCH  18  19
ENDBRANCH   1  18
TORSDOF 5
