REMARK  Name = ZINC10013293
REMARK  12 active torsions:
REMARK  status: ('A' for Active; 'I' for Inactive)
REMARK    1  A    between atoms: C_1  and  C_2
REMARK    2  A    between atoms: N_7  and  C_10
REMARK    3  A    between atoms: C_10  and  C_11
REMARK    4  A    between atoms: C_18  and  C_20
REMARK    5  A    between atoms: C_22  and  C_23
REMARK    6  A    between atoms: N_25  and  C_26
REMARK    7  A    between atoms: C_26  and  C_27
REMARK    8  A    between atoms: C_27  and  C_28
REMARK    9  A    between atoms: C_28  and  N_71
REMARK   10  A    between atoms: C_29  and  N_71
REMARK   11  A    between atoms: C_30  and  C_31
REMARK   12  A    between atoms: C_30  and  N_71
REMARK                            x       y       z     vdW  Elec       q    Type
REMARK                         _______ _______ _______ _____ _____    ______ ____
ROOT
ATOM      1  C   UNL     1      -4.208   9.842   1.182  0.00  0.00    +0.046 C 
ATOM      2  C   UNL     1      -5.436   8.973   1.089  0.00  0.00    -0.017 A 
ATOM      3  C   UNL     1      -5.318   7.583   1.169  0.00  0.00    +0.076 A 
ATOM      4  C   UNL     1      -6.527   6.857   1.071  0.00  0.00    +0.116 A 
ATOM      5  N   UNL     1      -6.553   5.532   1.132  0.00  0.00    -0.230 NA
ATOM      6  C   UNL     1      -5.463   4.831   1.285  0.00  0.00    +0.203 A 
ATOM      7  N   UNL     1      -4.244   5.417   1.390  0.00  0.00    -0.290 N 
ATOM      8  C   UNL     1      -4.103   6.756   1.347  0.00  0.00    +0.263 A 
ATOM      9  O   UNL     1      -3.005   7.272   1.447  0.00  0.00    -0.267 OA
ATOM     10  S   UNL     1      -7.751   8.127   0.876  0.00  0.00    -0.064 S 
ATOM     11  C   UNL     1      -6.665   9.542   0.927  0.00  0.00    +0.079 A 
ENDROOT
BRANCH  11  12
ATOM     12  C   UNL     1      -7.008  10.964   0.820  0.00  0.00    +0.251 C 
ATOM     13  O   UNL     1      -6.133  11.807   0.875  0.00  0.00    -0.270 OA
ATOM     14  N   UNL     1      -8.294  11.336   0.661  0.00  0.00    -0.311 N 
ATOM     15  H   UNL     1      -8.992  10.664   0.618  0.00  0.00    +0.149 HD
BRANCH  14  16
ATOM     16  C   UNL     1      -8.637  12.757   0.555  0.00  0.00    +0.102 C 
BRANCH  16  17
ATOM     17  C   UNL     1     -10.150  12.904   0.382  0.00  0.00    +0.000 C 
BRANCH  17  18
ATOM     18  C   UNL     1     -10.508  14.387   0.271  0.00  0.00    -0.077 C 
BRANCH  18  20
ATOM     19  C   UNL     1     -12.674  14.087   1.311  0.00  0.00    -0.096 C 
ATOM     20  N   UNL     1     -11.969  14.512   0.084  0.00  0.00    +0.381 N 
ATOM     21  H   UNL     1     -12.259  13.907  -0.694  0.00  0.00    -0.082 HD
BRANCH  20  22
ATOM     22  C   UNL     1     -12.319  15.911  -0.241  0.00  0.00    -0.043 C 
BRANCH  22  23
ATOM     23  C   UNL     1     -13.771  15.969  -0.641  0.00  0.00    -0.064 A 
ATOM     24  C   UNL     1     -14.130  15.794  -1.965  0.00  0.00    +0.002 A 
ATOM     25  C   UNL     1     -15.463  15.842  -2.331  0.00  0.00    +0.000 A 
ATOM     26  C   UNL     1     -16.434  16.074  -1.376  0.00  0.00    +0.000 A 
ATOM     27  C   UNL     1     -16.074  16.254  -0.053  0.00  0.00    +0.000 A 
ATOM     28  C   UNL     1     -14.743  16.201   0.314  0.00  0.00    +0.002 A 
ENDBRANCH  22  23
ENDBRANCH  20  22
ENDBRANCH  18  20
ENDBRANCH  17  18
ENDBRANCH  16  17
ENDBRANCH  14  16
ENDBRANCH  11  12
BRANCH   7  29
ATOM     29  C   UNL     1      -3.057   4.576   1.560  0.00  0.00    +0.222 C 
BRANCH  29  30
ATOM     30  C   UNL     1      -2.495   4.220   0.207  0.00  0.00    +0.236 C 
ATOM     31  O   UNL     1      -3.034   4.628  -0.799  0.00  0.00    -0.274 OA
ATOM     32  N   UNL     1      -1.394   3.447   0.117  0.00  0.00    -0.297 N 
ATOM     33  C   UNL     1      -0.795   2.854   1.320  0.00  0.00    +0.108 C 
ATOM     34  C   UNL     1      -0.658   1.343   1.109  0.00  0.00    +0.019 C 
ATOM     35  C   UNL     1       0.127   1.081  -0.179  0.00  0.00    +0.003 C 
ATOM     36  C   UNL     1      -0.634   1.668  -1.370  0.00  0.00    +0.022 C 
ATOM     37  C   UNL     1      -0.771   3.183  -1.187  0.00  0.00    +0.073 C 
ATOM     38  C   UNL     1      -1.649   3.757  -2.301  0.00  0.00    +0.028 C 
ENDBRANCH  29  30
ENDBRANCH   7  29
TORSDOF 9
