REMARK  Name = ZINC12521121
REMARK  10 active torsions:
REMARK  status: ('A' for Active; 'I' for Inactive)
REMARK    1  A    between atoms: C_1  and  C_2
REMARK    2  A    between atoms: C_6  and  N_9
REMARK    3  A    between atoms: C_7  and  C_8
REMARK    4  A    between atoms: N_9  and  S_10
REMARK    5  A    between atoms: S_10  and  C_13
REMARK    6  A    between atoms: C_16  and  C_19
REMARK    7  A    between atoms: N_21  and  C_22
REMARK    8  A    between atoms: C_22  and  C_23
REMARK    9  A    between atoms: C_23  and  C_25
REMARK   10  A    between atoms: C_23  and  N_30
REMARK                            x       y       z     vdW  Elec       q    Type
REMARK                         _______ _______ _______ _____ _____    ______ ____
ROOT
ATOM      1  C   UNL     1       2.432  -3.505   2.429  0.00  0.00    +0.109 A 
ATOM      2  C   UNL     1       3.018  -3.607   1.180  0.00  0.00    +0.029 A 
ATOM      3  C   UNL     1       4.388  -3.515   1.048  0.00  0.00    +0.015 A 
ATOM      4  C   UNL     1       5.183  -3.318   2.179  0.00  0.00    +0.037 A 
ATOM      5  C   UNL     1       4.585  -3.216   3.436  0.00  0.00    +0.015 A 
ATOM      6  C   UNL     1       3.214  -3.304   3.553  0.00  0.00    +0.029 A 
ENDROOT
BRANCH   4   7
ATOM      7  C   UNL     1       6.652  -3.220   2.045  0.00  0.00    +0.244 C 
ATOM      8  O   UNL     1       7.170  -3.310   0.949  0.00  0.00    -0.270 OA
ATOM      9  N   UNL     1       7.417  -3.029   3.138  0.00  0.00    -0.312 N 
ATOM     10  H   UNL     1       7.004  -2.957   4.013  0.00  0.00    +0.149 HD
BRANCH   9  11
ATOM     11  C   UNL     1       8.873  -2.932   3.005  0.00  0.00    +0.097 C 
BRANCH  11  12
ATOM     12  C   UNL     1       9.507  -2.842   4.395  0.00  0.00    +0.016 C 
BRANCH  12  13
ATOM     13  N   UNL     1       8.895  -1.736   5.143  0.00  0.00    +0.387 N 
ATOM     14  C   UNL     1       9.025  -0.494   4.370  0.00  0.00    -0.078 C 
ATOM     15  C   UNL     1       8.318   0.645   5.107  0.00  0.00    -0.019 C 
ATOM     16  C   UNL     1       8.959   0.830   6.485  0.00  0.00    -0.004 C 
ATOM     17  C   UNL     1       8.883  -0.492   7.254  0.00  0.00    -0.019 C 
ATOM     18  C   UNL     1       9.569  -1.590   6.438  0.00  0.00    -0.078 C 
ATOM     19  H   UNL     1       7.917  -1.934   5.294  0.00  0.00    -0.081 HD
ENDBRANCH  12  13
BRANCH  12  20
ATOM     20  C   UNL     1       9.279  -4.135   5.135  0.00  0.00    +0.093 A 
ATOM     21  C   UNL     1      10.175  -5.127   5.280  0.00  0.00    +0.043 A 
ATOM     22  C   UNL     1       9.546  -6.141   6.038  0.00  0.00    +0.041 A 
ATOM     23  C   UNL     1       8.302  -5.708   6.311  0.00  0.00    +0.195 A 
ATOM     24  O   UNL     1       8.147  -4.490   5.766  0.00  0.00    -0.469 OA
ENDBRANCH  12  20
ENDBRANCH  11  12
ENDBRANCH   9  11
ENDBRANCH   4   7
BRANCH   1  25
ATOM     25  S   UNL     1       0.681  -3.623   2.589  0.00  0.00    +0.072 S 
ATOM     26  O   UNL     1       0.422  -4.035   3.924  0.00  0.00    -0.150 OA
ATOM     27  O   UNL     1       0.219  -4.356   1.462  0.00  0.00    -0.150 OA
BRANCH  25  28
ATOM     28  N   UNL     1       0.071  -2.091   2.439  0.00  0.00    -0.216 N 
ATOM     29  H   UNL     1      -0.435  -1.697   3.167  0.00  0.00    +0.174 HD
BRANCH  28  35
ATOM     30  C   UNL     1       0.901   2.214   0.217  0.00  0.00    +0.044 C 
ATOM     31  C   UNL     1       0.690   0.723   0.158  0.00  0.00    -0.046 A 
ATOM     32  C   UNL     1       0.707   0.071  -1.062  0.00  0.00    +0.004 A 
ATOM     33  C   UNL     1       0.514  -1.297  -1.121  0.00  0.00    +0.002 A 
ATOM     34  C   UNL     1       0.302  -2.017   0.038  0.00  0.00    +0.025 A 
ATOM     35  C   UNL     1       0.284  -1.366   1.265  0.00  0.00    +0.051 A 
ATOM     36  C   UNL     1       0.485   0.008   1.321  0.00  0.00    -0.025 A 
ATOM     37  C   UNL     1       0.472   0.718   2.650  0.00  0.00    +0.046 C 
ENDBRANCH  28  35
ENDBRANCH  25  28
ENDBRANCH   1  25
TORSDOF 8
