REMARK  Name = ZINC20158155
REMARK  9 active torsions:
REMARK  status: ('A' for Active; 'I' for Inactive)
REMARK    1  A    between atoms: C_1  and  C_2
REMARK    2  A    between atoms: C_2  and  N_3
REMARK    3  A    between atoms: N_3  and  N_4
REMARK    4  A    between atoms: C_5  and  C_7
REMARK    5  A    between atoms: C_7  and  O_8
REMARK    6  A    between atoms: O_8  and  C_9
REMARK    7  A    between atoms: C_16  and  C_17
REMARK    8  A    between atoms: N_19  and  C_20
REMARK    9  A    between atoms: C_25  and  C_26
REMARK                            x       y       z     vdW  Elec       q    Type
REMARK                         _______ _______ _______ _____ _____    ______ ____
ROOT
ATOM      1  C   UNL     1       4.734   7.939   1.184  0.00  0.00    +0.062 C 
ATOM      2  C   UNL     1       4.060   8.611   0.015  0.00  0.00    +0.024 C 
ATOM      3  C   UNL     1       3.846  10.103   0.025  0.00  0.00    +0.087 C 
ENDROOT
BRANCH   3   4
ATOM      4  C   UNL     1       4.391  10.680   1.306  0.00  0.00    +0.243 C 
ATOM      5  O   UNL     1       4.903   9.952   2.130  0.00  0.00    -0.270 OA
ATOM      6  N   UNL     1       4.309  12.006   1.536  0.00  0.00    -0.281 N 
ATOM      7  H   UNL     1       3.928  12.678   0.753  0.00  0.00    +0.155 HD
BRANCH   6   8
ATOM      8  C   UNL     1       4.709  12.527   2.770  0.00  0.00    +0.041 A 
ATOM      9  C   UNL     1       4.695  11.725   3.902  0.00  0.00    +0.024 A 
ATOM     10  C   UNL     1       5.091  12.241   5.120  0.00  0.00    +0.002 A 
ATOM     11  C   UNL     1       5.503  13.559   5.220  0.00  0.00    +0.001 A 
ATOM     12  C   UNL     1       5.522  14.368   4.103  0.00  0.00    +0.010 A 
ATOM     13  C   UNL     1       5.130  13.857   2.867  0.00  0.00    +0.003 A 
BRANCH  13  14
ATOM     14  C   UNL     1       5.154  14.721   1.662  0.00  0.00    -0.016 A 
ATOM     15  C   UNL     1       5.777  14.279   0.497  0.00  0.00    +0.008 A 
ATOM     16  C   UNL     1       5.793  15.085  -0.623  0.00  0.00    +0.001 A 
ATOM     17  C   UNL     1       5.200  16.335  -0.587  0.00  0.00    +0.000 A 
ATOM     18  C   UNL     1       4.585  16.781   0.568  0.00  0.00    +0.001 A 
ATOM     19  C   UNL     1       4.559  15.981   1.693  0.00  0.00    +0.008 A 
ENDBRANCH  13  14
ENDBRANCH   6   8
ENDBRANCH   3   4
BRANCH   2  20
ATOM     20  N   UNL     1       3.670   7.915  -0.986  0.00  0.00    -0.269 N 
ATOM     21  H   UNL     1       3.178   8.406  -1.838  0.00  0.00    +0.170 HD
BRANCH  20  22
ATOM     22  N   UNL     1       3.869   6.529  -0.995  0.00  0.00    -0.234 N 
ATOM     23  C   UNL     1       3.459   5.796  -2.049  0.00  0.00    +0.267 C 
ATOM     24  O   UNL     1       2.916   6.337  -2.989  0.00  0.00    -0.271 OA
ATOM     25  H   UNL     1       4.361   6.038  -0.142  0.00  0.00    +0.173 HD
BRANCH  23  26
ATOM     26  C   UNL     1       3.673   4.304  -2.059  0.00  0.00    +0.326 C 
BRANCH  26  27
ATOM     27  O   UNL     1       3.156   3.757  -3.273  0.00  0.00    -0.483 OA
BRANCH  27  28
ATOM     28  C   UNL     1       3.271   2.413  -3.442  0.00  0.00    +0.121 A 
ATOM     29  C   UNL     1       2.790   1.815  -4.598  0.00  0.00    +0.047 A 
ATOM     30  C   UNL     1       2.907   0.449  -4.768  0.00  0.00    +0.019 A 
ATOM     31  C   UNL     1       3.503  -0.323  -3.786  0.00  0.00    +0.018 A 
ATOM     32  C   UNL     1       3.983   0.272  -2.633  0.00  0.00    +0.019 A 
ATOM     33  C   UNL     1       3.868   1.637  -2.459  0.00  0.00    +0.047 A 
ATOM     34 BR   UNL     1       3.662  -2.192  -4.021  0.00  0.00    -0.050 Br
ENDBRANCH  27  28
ENDBRANCH  26  27
ENDBRANCH  23  26
ENDBRANCH  20  22
ENDBRANCH   2  20
TORSDOF 8
