REMARK  Name = ZINC00714622
REMARK  9 active torsions:
REMARK  status: ('A' for Active; 'I' for Inactive)
REMARK    1  A    between atoms: C_1  and  C_2
REMARK    2  A    between atoms: C_3  and  N_9
REMARK    3  A    between atoms: C_12  and  C_21
REMARK    4  A    between atoms: C_14  and  C_17
REMARK    5  A    between atoms: C_15  and  N_16
REMARK    6  A    between atoms: C_17  and  O_19
REMARK    7  A    between atoms: O_19  and  C_20
REMARK    8  A    between atoms: C_30  and  C_32
REMARK    9  A    between atoms: C_30  and  C_33
REMARK                            x       y       z     vdW  Elec       q    Type
REMARK                         _______ _______ _______ _____ _____    ______ ____
ROOT
ATOM      1  N   UNL     1       0.346  -1.624   1.762  0.00  0.00    -0.260 N 
ATOM      2  C   UNL     1       0.788  -0.445   1.220  0.00  0.00    +0.025 C 
ATOM      3  C   UNL     1       1.864   0.188   1.734  0.00  0.00    +0.025 C 
ATOM      4  C   UNL     1       2.623  -0.395   2.899  0.00  0.00    +0.095 C 
ATOM      5  C   UNL     1       1.800  -1.420   3.623  0.00  0.00    +0.084 C 
ATOM      6  C   UNL     1       0.712  -1.989   3.035  0.00  0.00    +0.103 C 
ATOM      7  C   UNL     1       2.314   1.406   1.195  0.00  0.00    +0.162 C 
ATOM      8  O   UNL     1       3.293   1.944   1.673  0.00  0.00    -0.292 OA
ATOM      9  C   UNL     1       1.605   2.057   0.038  0.00  0.00    +0.086 C 
ATOM     10  C   UNL     1       0.127   1.654   0.069  0.00  0.00    -0.023 C 
ATOM     11  C   UNL     1       0.040   0.127   0.041  0.00  0.00    +0.058 C 
ATOM     12  C   UNL     1      -0.588   2.232  -1.154  0.00  0.00    +0.011 C 
ATOM     13  C   UNL     1      -0.523   2.183   1.348  0.00  0.00    +0.011 C 
ENDROOT
BRANCH   1  16
ATOM     14  C   UNL     1      -2.469  -1.252   1.959  0.00  0.00    +0.047 C 
ATOM     15  C   UNL     1      -1.866  -2.316   1.078  0.00  0.00    -0.010 A 
ATOM     16  C   UNL     1      -0.486  -2.463   1.011  0.00  0.00    +0.044 A 
ATOM     17  C   UNL     1       0.066  -3.441   0.194  0.00  0.00    +0.024 A 
ATOM     18  C   UNL     1      -0.757  -4.271  -0.541  0.00  0.00    +0.003 A 
ATOM     19  C   UNL     1      -2.130  -4.122  -0.474  0.00  0.00    +0.020 A 
ATOM     20  C   UNL     1      -2.684  -3.146   0.335  0.00  0.00    +0.046 A 
ATOM     21 CL   UNL     1      -4.409  -2.964   0.418  0.00  0.00    -0.083 Cl
ENDBRANCH   1  16
BRANCH   4  22
ATOM     22  C   UNL     1       3.886  -1.042   2.393  0.00  0.00    -0.017 A 
ATOM     23  C   UNL     1       5.125  -0.604   2.835  0.00  0.00    +0.007 A 
ATOM     24  C   UNL     1       6.260  -1.229   2.342  0.00  0.00    +0.020 A 
ATOM     25  C   UNL     1       6.120  -2.261   1.434  0.00  0.00    +0.111 A 
ATOM     26  N   UNL     1       4.925  -2.652   1.036  0.00  0.00    -0.263 NA
ATOM     27  C   UNL     1       3.824  -2.084   1.488  0.00  0.00    +0.115 A 
ENDBRANCH   4  22
BRANCH   6  28
ATOM     28  N   UNL     1      -0.021  -2.928   3.715  0.00  0.00    -0.346 N 
ATOM     29  H   UNL     1       0.179  -3.119   4.645  0.00  0.00    +0.143 HD
ATOM     30  H   UNL     1      -0.739  -3.401   3.266  0.00  0.00    +0.143 HD
ENDBRANCH   6  28
BRANCH   5  31
ATOM     31  C   UNL     1       2.158  -1.798   4.925  0.00  0.00    +0.339 C 
ATOM     32  O   UNL     1       1.883  -1.075   5.866  0.00  0.00    -0.245 OA
BRANCH  31  33
ATOM     33  O   UNL     1       2.807  -2.964   5.136  0.00  0.00    -0.465 OA
ATOM     34  C   UNL     1       3.140  -3.285   6.487  0.00  0.00    +0.280 C 
ENDBRANCH  31  33
ENDBRANCH   5  31
TORSDOF 5
