REMARK  Name = ZINC34757790
REMARK  9 active torsions:
REMARK  status: ('A' for Active; 'I' for Inactive)
REMARK    1  A    between atoms: C_1  and  C_2
REMARK    2  A    between atoms: C_2  and  N_3
REMARK    3  A    between atoms: N_3  and  C_4
REMARK    4  A    between atoms: C_4  and  C_5
REMARK    5  A    between atoms: C_6  and  C_8
REMARK    6  A    between atoms: C_8  and  S_9
REMARK    7  A    between atoms: S_9  and  C_10
REMARK    8  A    between atoms: N_25  and  C_28
REMARK    9  A    between atoms: C_28  and  C_29
REMARK                            x       y       z     vdW  Elec       q    Type
REMARK                         _______ _______ _______ _____ _____    ______ ____
ROOT
ATOM      1  C   UNL     1      -3.863  -0.376  -3.911  0.00  0.00    +0.191 A 
ATOM      2  N   UNL     1      -4.646  -0.580  -4.964  0.00  0.00    -0.206 NA
ATOM      3  C   UNL     1      -5.965  -0.528  -4.879  0.00  0.00    +0.134 A 
ATOM      4  C   UNL     1      -6.567  -0.244  -3.622  0.00  0.00    +0.051 A 
ATOM      5  C   UNL     1      -8.001  -0.139  -3.298  0.00  0.00    -0.025 A 
ATOM      6  C   UNL     1      -8.316   0.142  -2.024  0.00  0.00    -0.004 A 
ATOM      7  S   UNL     1      -6.756   0.279  -1.180  0.00  0.00    -0.073 S 
ATOM      8  C   UNL     1      -5.679  -0.040  -2.551  0.00  0.00    +0.115 A 
ATOM      9  N   UNL     1      -4.372  -0.113  -2.714  0.00  0.00    -0.214 NA
ATOM     10  C   UNL     1      -9.804   0.231  -1.813  0.00  0.00    +0.043 C 
ATOM     11  C   UNL     1     -10.388   0.390  -3.233  0.00  0.00    +0.010 C 
ATOM     12  C   UNL     1      -9.300  -0.279  -4.096  0.00  0.00    +0.037 C 
ATOM     13  N   UNL     1      -6.748  -0.745  -5.998  0.00  0.00    -0.318 N 
ATOM     14  C   UNL     1      -7.282  -2.082  -6.299  0.00  0.00    +0.088 C 
ATOM     15  C   UNL     1      -6.951  -2.421  -7.756  0.00  0.00    -0.059 C 
ATOM     16  N   UNL     1      -7.455  -1.355  -8.632  0.00  0.00    +0.387 N 
ATOM     17  C   UNL     1      -6.750  -0.099  -8.348  0.00  0.00    -0.059 C 
ATOM     18  C   UNL     1      -7.076   0.356  -6.917  0.00  0.00    +0.088 C 
ATOM     19  H   UNL     1      -8.443  -1.229  -8.471  0.00  0.00    -0.081 HD
ENDROOT
BRANCH   1  20
ATOM     20  S   UNL     1      -2.114  -0.463  -4.106  0.00  0.00    -0.077 S 
BRANCH  20  21
ATOM     21  C   UNL     1      -1.470  -0.134  -2.442  0.00  0.00    +0.173 C 
BRANCH  21  23
ATOM     22  N   UNL     1       0.737   0.038  -1.337  0.00  0.00    -0.301 N 
ATOM     23  C   UNL     1       0.036  -0.179  -2.468  0.00  0.00    +0.226 C 
ATOM     24  O   UNL     1       0.618  -0.411  -3.507  0.00  0.00    -0.275 OA
BRANCH  22  26
ATOM     25  C   UNL     1      -0.173   1.827   0.060  0.00  0.00    +0.024 C 
ATOM     26  C   UNL     1       0.034   0.318  -0.083  0.00  0.00    +0.104 C 
ENDBRANCH  22  26
BRANCH  22  27
ATOM     27  C   UNL     1       2.201  -0.006  -1.363  0.00  0.00    +0.104 C 
ATOM     28  C   UNL     1       2.673  -1.434  -1.078  0.00  0.00    +0.024 C 
ENDBRANCH  22  27
ENDBRANCH  21  23
ENDBRANCH  20  21
ENDBRANCH   1  20
BRANCH  16  29
ATOM     29  C   UNL     1      -7.235  -1.732 -10.035  0.00  0.00    +0.019 C 
BRANCH  29  30
ATOM     30  C   UNL     1      -7.861  -0.699 -10.936  0.00  0.00    +0.199 C 
ATOM     31  O   UNL     1      -8.434   0.257 -10.457  0.00  0.00    -0.278 OA
ATOM     32  N   UNL     1      -7.784  -0.837 -12.275  0.00  0.00    -0.300 N 
ATOM     33  C   UNL     1      -7.326  -1.619 -13.426  0.00  0.00    +0.126 C 
ATOM     34  C   UNL     1      -8.104  -0.315 -13.605  0.00  0.00    +0.126 C 
ENDBRANCH  29  30
ENDBRANCH  16  29
TORSDOF 7
