REMARK  Name = ZINC03168280
REMARK  6 active torsions:
REMARK  status: ('A' for Active; 'I' for Inactive)
REMARK    1  A    between atoms: C_1  and  C_2
REMARK    2  A    between atoms: C_4  and  C_8
REMARK    3  A    between atoms: C_5  and  C_7
REMARK    4  A    between atoms: N_10  and  N_11
REMARK    5  A    between atoms: C_12  and  C_13
REMARK    6  A    between atoms: C_14  and  C_21
REMARK                            x       y       z     vdW  Elec       q    Type
REMARK                         _______ _______ _______ _____ _____    ______ ____
ROOT
ATOM      1  C   UNL     1       3.580   0.570  -0.029  0.00  0.00    +0.267 C 
ATOM      2  O   UNL     1       4.164  -0.498  -0.040  0.00  0.00    -0.268 OA
ATOM      3  N   UNL     1       4.281   1.721  -0.030  0.00  0.00    -0.203 N 
ATOM      4  H   UNL     1       3.815   2.572  -0.021  0.00  0.00    +0.178 HD
ENDROOT
BRANCH   1   8
ATOM      5  C   UNL     1      -1.256   2.195   0.020  0.00  0.00    +0.086 C 
ATOM      6  C   UNL     1      -0.016   1.338   0.009  0.00  0.00    +0.103 A 
ATOM      7  C   UNL     1       1.246   1.795  -0.000  0.00  0.00    +0.057 A 
ATOM      8  C   UNL     1       2.107   0.604  -0.015  0.00  0.00    +0.079 A 
ATOM      9  C   UNL     1       1.257  -0.464  -0.012  0.00  0.00    +0.114 A 
ATOM     10  O   UNL     1       0.002  -0.004   0.002  0.00  0.00    -0.464 OA
ATOM     11  C   UNL     1       1.665  -1.915  -0.024  0.00  0.00    +0.087 C 
ENDBRANCH   1   8
BRANCH   3  12
ATOM     12  N   UNL     1       5.681   1.688  -0.043  0.00  0.00    -0.186 NA
ATOM     13  C   UNL     1       6.358   2.801  -0.044  0.00  0.00    +0.158 C 
BRANCH  13  14
ATOM     14  C   UNL     1       7.822   2.767  -0.058  0.00  0.00    +0.089 A 
ATOM     15  C   UNL     1       8.606   1.650  -0.065  0.00  0.00    +0.066 A 
ATOM     16  N   UNL     1       9.883   2.037  -0.081  0.00  0.00    -0.226 NA
ATOM     17  C   UNL     1       9.940   3.341  -0.075  0.00  0.00    +0.178 A 
ATOM     18  N   UNL     1       8.680   3.876  -0.060  0.00  0.00    -0.292 N 
ATOM     19  C   UNL     1       8.584   5.249  -0.052  0.00  0.00    +0.101 A 
ATOM     20  C   UNL     1       9.678   6.010  -0.058  0.00  0.00    +0.067 A 
ATOM     21  S   UNL     1      10.978   4.785  -0.077  0.00  0.00    -0.058 S 
ATOM     22  C   UNL     1       8.114   0.225  -0.060  0.00  0.00    +0.068 C 
ENDBRANCH  13  14
ENDBRANCH   3  12
TORSDOF 3
