REMARK  Name = ZINC66870046
REMARK  6 active torsions:
REMARK  status: ('A' for Active; 'I' for Inactive)
REMARK    1  A    between atoms: C_1  and  C_2
REMARK    2  A    between atoms: C_5  and  S_8
REMARK    3  A    between atoms: S_8  and  N_11
REMARK    4  A    between atoms: N_11  and  C_12
REMARK    5  A    between atoms: C_15  and  O_18
REMARK    6  A    between atoms: C_19  and  C_21
REMARK                            x       y       z     vdW  Elec       q    Type
REMARK                         _______ _______ _______ _____ _____    ______ ____
ROOT
ATOM      1  N   UNL     1       1.999  -5.337  -0.043  0.00  0.00    -0.137 N 
ATOM      2  C   UNL     1       2.631  -4.659  -1.021  0.00  0.00    +0.270 C 
ATOM      3  O   UNL     1       3.645  -4.040  -0.773  0.00  0.00    -0.271 OA
ENDROOT
BRANCH   1   4
ATOM      4  C   UNL     1       2.574  -5.426   1.232  0.00  0.00    +0.060 A 
ATOM      5  C   UNL     1       1.782  -5.276   2.362  0.00  0.00    +0.029 A 
ATOM      6  C   UNL     1       2.349  -5.364   3.619  0.00  0.00    +0.047 A 
ATOM      7  C   UNL     1       3.709  -5.601   3.751  0.00  0.00    +0.117 A 
ATOM      8  C   UNL     1       4.501  -5.750   2.622  0.00  0.00    +0.047 A 
ATOM      9  C   UNL     1       3.934  -5.669   1.365  0.00  0.00    +0.029 A 
BRANCH   7  10
ATOM     10  O   UNL     1       4.267  -5.687   4.988  0.00  0.00    -0.507 OA
ATOM     11  H   UNL     1       4.275  -6.582   5.354  0.00  0.00    +0.292 HD
ENDBRANCH   7  10
ENDBRANCH   1   4
BRANCH   2  12
ATOM     12  C   UNL     1       2.079  -4.669  -2.423  0.00  0.00    +0.231 C 
ATOM     13  C   UNL     1       1.146  -3.470  -2.614  0.00  0.00    +0.201 C 
ATOM     14  O   UNL     1       0.714  -3.423  -3.978  0.00  0.00    -0.374 OA
ATOM     15  C   UNL     1       1.790  -3.335  -4.916  0.00  0.00    +0.188 C 
ATOM     16  C   UNL     1       2.723  -4.534  -4.725  0.00  0.00    +0.189 C 
ATOM     17  O   UNL     1       3.155  -4.582  -3.362  0.00  0.00    -0.363 OA
ENDBRANCH   2  12
BRANCH   1  18
ATOM     18  S   UNL     1       0.543  -6.065  -0.348  0.00  0.00    +0.081 S 
ATOM     19  O   UNL     1      -0.120  -5.259  -1.313  0.00  0.00    -0.149 OA
ATOM     20  O   UNL     1      -0.032  -6.367   0.916  0.00  0.00    -0.149 OA
BRANCH  18  25
ATOM     21  C   UNL     1       1.711 -11.347  -3.020  0.00  0.00    +0.044 C 
ATOM     22  C   UNL     1       1.419 -10.027  -2.352  0.00  0.00    -0.050 A 
ATOM     23  C   UNL     1       1.621  -9.881  -0.993  0.00  0.00    +0.005 A 
ATOM     24  C   UNL     1       1.354  -8.671  -0.381  0.00  0.00    +0.029 A 
ATOM     25  C   UNL     1       0.885  -7.607  -1.128  0.00  0.00    +0.109 A 
ATOM     26  C   UNL     1       0.684  -7.753  -2.488  0.00  0.00    +0.029 A 
ATOM     27  C   UNL     1       0.955  -8.962  -3.101  0.00  0.00    +0.005 A 
ENDBRANCH  18  25
ENDBRANCH   1  18
TORSDOF 5
