REMARK  Name = ZINC63802200
REMARK  10 active torsions:
REMARK  status: ('A' for Active; 'I' for Inactive)
REMARK    1  A    between atoms: C_1  and  C_2
REMARK    2  A    between atoms: C_2  and  C_3
REMARK    3  A    between atoms: C_2  and  C_4
REMARK    4  A    between atoms: C_2  and  C_25
REMARK    5  A    between atoms: C_4  and  N_5
REMARK    6  A    between atoms: C_6  and  C_8
REMARK    7  A    between atoms: C_14  and  C_16
REMARK    8  A    between atoms: C_25  and  N_26
REMARK    9  A    between atoms: N_26  and  C_27
REMARK   10  A    between atoms: N_26  and  C_28
REMARK                            x       y       z     vdW  Elec       q    Type
REMARK                         _______ _______ _______ _____ _____    ______ ____
ROOT
ATOM      1  C   UNL     1      -3.785   1.489   2.526  0.00  0.00    +0.078 C 
ATOM      2  C   UNL     1      -2.908   1.253   3.757  0.00  0.00    +0.032 C 
ATOM      3  C   UNL     1      -3.385   2.156   4.899  0.00  0.00    +0.109 C 
ATOM      4  N   UNL     1      -4.817   1.917   5.124  0.00  0.00    -0.296 N 
ATOM      5  C   UNL     1      -5.739   2.029   3.985  0.00  0.00    +0.109 C 
ATOM      6  C   UNL     1      -5.236   1.128   2.853  0.00  0.00    +0.032 C 
ATOM      7  C   UNL     1      -5.277   1.602   6.351  0.00  0.00    +0.267 C 
ATOM      8  O   UNL     1      -4.495   1.402   7.260  0.00  0.00    -0.268 OA
ENDROOT
BRANCH   7   9
ATOM      9  C   UNL     1      -6.729   1.499   6.591  0.00  0.00    +0.146 A 
ATOM     10  C   UNL     1      -7.328   1.275   7.797  0.00  0.00    +0.127 A 
ATOM     11  N   UNL     1      -8.672   1.253   7.577  0.00  0.00    -0.290 N 
ATOM     12  C   UNL     1      -9.740   1.070   8.410  0.00  0.00    +0.095 A 
ATOM     13  C   UNL     1     -10.992   1.100   7.892  0.00  0.00    +0.038 A 
ATOM     14  C   UNL     1     -11.162   1.319   6.517  0.00  0.00    +0.116 A 
ATOM     15  N   UNL     1     -10.121   1.491   5.738  0.00  0.00    -0.220 NA
ATOM     16  C   UNL     1      -8.874   1.464   6.236  0.00  0.00    +0.235 A 
ATOM     17  N   UNL     1      -7.695   1.616   5.659  0.00  0.00    -0.206 NA
ENDBRANCH   7   9
BRANCH   1  19
ATOM     18  N   UNL     1      -2.039   0.770   0.927  0.00  0.00    -0.315 N 
ATOM     19  C   UNL     1      -3.297   0.627   1.389  0.00  0.00    +0.216 C 
ATOM     20  O   UNL     1      -4.037  -0.194   0.891  0.00  0.00    -0.276 OA
ATOM     21  H   UNL     1      -1.448   1.427   1.326  0.00  0.00    +0.149 HD
BRANCH  18  22
ATOM     22  C   UNL     1      -1.565  -0.067  -0.177  0.00  0.00    +0.108 C 
BRANCH  22  24
ATOM     23  C   UNL     1      -0.036   1.766  -0.911  0.00  0.00    +0.010 C 
ATOM     24  C   UNL     1      -0.115   0.294  -0.505  0.00  0.00    -0.034 C 
ATOM     25  C   UNL     1       0.760   0.056   0.727  0.00  0.00    +0.010 C 
BRANCH  24  26
ATOM     26  C   UNL     1       0.380  -0.581  -1.659  0.00  0.00    -0.072 C 
BRANCH  26  27
ATOM     27  N   UNL     1       1.786  -0.266  -1.944  0.00  0.00    +0.376 N 
ATOM     28  C   UNL     1       2.654  -1.054  -1.059  0.00  0.00    -0.097 C 
ATOM     29  C   UNL     1       2.087  -0.593  -3.344  0.00  0.00    -0.097 C 
ATOM     30  H   UNL     1       1.949   0.718  -1.786  0.00  0.00    -0.083 HD
ENDBRANCH  26  27
ENDBRANCH  24  26
ENDBRANCH  22  24
ENDBRANCH  18  22
ENDBRANCH   1  19
TORSDOF 6
