REMARK  Name = ZINC14978647
REMARK  8 active torsions:
REMARK  status: ('A' for Active; 'I' for Inactive)
REMARK    1  A    between atoms: C_1  and  C_2
REMARK    2  A    between atoms: C_3  and  C_14
REMARK    3  A    between atoms: C_5  and  C_7
REMARK    4  A    between atoms: C_14  and  N_49
REMARK    5  A    between atoms: C_19  and  C_21
REMARK    6  A    between atoms: C_21  and  C_22
REMARK    7  A    between atoms: C_22  and  C_23
REMARK    8  A    between atoms: C_23  and  O_24
REMARK                            x       y       z     vdW  Elec       q    Type
REMARK                         _______ _______ _______ _____ _____    ______ ____
ROOT
ATOM      1  C   UNL     1      -0.354  -0.424   5.432  0.00  0.00    +0.088 C 
ATOM      2  C   UNL     1       1.048  -0.235   4.915  0.00  0.00    +0.124 A 
ATOM      3  C   UNL     1       1.398   0.081   3.654  0.00  0.00    +0.066 A 
ATOM      4  N   UNL     1       2.737   0.150   3.604  0.00  0.00    -0.216 NA
ATOM      5  C   UNL     1       3.215  -0.105   4.799  0.00  0.00    +0.228 A 
ATOM      6  O   UNL     1       2.186  -0.350   5.628  0.00  0.00    -0.440 OA
ENDROOT
BRANCH   5   7
ATOM      7  C   UNL     1       4.646  -0.126   5.170  0.00  0.00    +0.037 A 
ATOM      8  C   UNL     1       5.622   0.141   4.209  0.00  0.00    +0.014 A 
ATOM      9  C   UNL     1       6.956   0.126   4.562  0.00  0.00    +0.021 A 
ATOM     10  C   UNL     1       7.327  -0.166   5.864  0.00  0.00    +0.041 A 
ATOM     11  C   UNL     1       6.362  -0.438   6.820  0.00  0.00    +0.021 A 
ATOM     12  C   UNL     1       5.026  -0.419   6.481  0.00  0.00    +0.014 A 
ATOM     13 CL   UNL     1       9.007  -0.191   6.299  0.00  0.00    -0.084 Cl
ENDBRANCH   5   7
BRANCH   3  14
ATOM     14  C   UNL     1       0.453   0.309   2.502  0.00  0.00    -0.018 C 
BRANCH  14  20
ATOM     15  C   UNL     1      -0.610   2.140   3.675  0.00  0.00    -0.078 C 
ATOM     16  C   UNL     1      -0.851   3.651   3.645  0.00  0.00    -0.019 C 
ATOM     17  C   UNL     1      -1.694   4.005   2.418  0.00  0.00    -0.003 C 
ATOM     18  C   UNL     1      -0.973   3.523   1.156  0.00  0.00    -0.015 C 
ATOM     19  C   UNL     1      -0.729   2.016   1.258  0.00  0.00    -0.068 C 
ATOM     20  N   UNL     1       0.109   1.745   2.446  0.00  0.00    +0.385 N 
ATOM     21  H   UNL     1       0.974   2.293   2.375  0.00  0.00    -0.081 HD
BRANCH  19  22
ATOM     22  C   UNL     1       0.010   1.533   0.008  0.00  0.00    -0.013 C 
BRANCH  22  23
ATOM     23  C   UNL     1       1.381   2.209  -0.067  0.00  0.00    +0.026 C 
BRANCH  23  24
ATOM     24  C   UNL     1       2.170   1.632  -1.244  0.00  0.00    +0.156 C 
BRANCH  24  25
ATOM     25  O   UNL     1       3.450   2.263  -1.314  0.00  0.00    -0.395 OA
ATOM     26  H   UNL     1       4.005   1.946  -2.039  0.00  0.00    +0.209 HD
ENDBRANCH  24  25
ENDBRANCH  23  24
ENDBRANCH  22  23
ENDBRANCH  19  22
ENDBRANCH  14  20
ENDBRANCH   3  14
TORSDOF 7
