REMARK  Name = ZINC57555557
REMARK  5 active torsions:
REMARK  status: ('A' for Active; 'I' for Inactive)
REMARK    1  A    between atoms: C_1  and  C_2
REMARK    2  A    between atoms: C_4  and  C_18
REMARK    3  A    between atoms: C_5  and  C_9
REMARK    4  A    between atoms: C_6  and  C_8
REMARK    5  A    between atoms: C_9  and  N_10
REMARK                            x       y       z     vdW  Elec       q    Type
REMARK                         _______ _______ _______ _____ _____    ______ ____
ROOT
ATOM      1  C   UNL     1       0.102   1.448   0.945  0.00  0.00    +0.044 C 
ATOM      2  C   UNL     1       0.074  -0.037   0.694  0.00  0.00    -0.050 A 
ATOM      3  C   UNL     1       0.136  -0.521  -0.599  0.00  0.00    +0.007 A 
ATOM      4  C   UNL     1       0.111  -1.884  -0.830  0.00  0.00    -0.045 A 
ATOM      5  C   UNL     1       0.023  -2.763   0.234  0.00  0.00    -0.022 A 
ATOM      6  C   UNL     1      -0.038  -2.279   1.527  0.00  0.00    -0.045 A 
ATOM      7  C   UNL     1      -0.008  -0.917   1.758  0.00  0.00    +0.007 A 
ATOM      8  C   UNL     1      -0.134  -3.238   2.686  0.00  0.00    +0.044 C 
ATOM      9  C   UNL     1       0.178  -2.411  -2.240  0.00  0.00    +0.044 C 
ENDROOT
BRANCH   5  10
ATOM     10  C   UNL     1      -0.005  -4.249  -0.018  0.00  0.00    +0.169 C 
BRANCH  10  11
ATOM     11  N   UNL     1       1.365  -4.749  -0.144  0.00  0.00    -0.172 N 
ATOM     12  C   UNL     1       2.075  -4.828  -1.280  0.00  0.00    +0.236 C 
ATOM     13  O   UNL     1       1.610  -4.439  -2.330  0.00  0.00    -0.274 OA
ATOM     14  C   UNL     1       3.457  -5.407  -1.220  0.00  0.00    +0.122 C 
ATOM     15  C   UNL     1       3.953  -5.359   0.249  0.00  0.00    +0.198 C 
ATOM     16  S   UNL     1       2.326  -5.317   1.104  0.00  0.00    +0.048 S 
ATOM     17  O   UNL     1       2.301  -4.304   2.100  0.00  0.00    -0.155 OA
ATOM     18  O   UNL     1       1.865  -6.634   1.375  0.00  0.00    -0.155 OA
ENDBRANCH  10  11
ENDBRANCH   5  10
TORSDOF 2
