REMARK  Name = ZINC23888466
REMARK  9 active torsions:
REMARK  status: ('A' for Active; 'I' for Inactive)
REMARK    1  A    between atoms: C_1  and  C_2
REMARK    2  A    between atoms: C_2  and  C_4
REMARK    3  A    between atoms: C_2  and  N_30
REMARK    4  A    between atoms: C_7  and  S_16
REMARK    5  A    between atoms: N_8  and  C_9
REMARK    6  A    between atoms: S_16  and  C_17
REMARK    7  A    between atoms: C_17  and  C_18
REMARK    8  A    between atoms: N_30  and  C_31
REMARK    9  A    between atoms: N_30  and  C_32
REMARK                            x       y       z     vdW  Elec       q    Type
REMARK                         _______ _______ _______ _____ _____    ______ ____
ROOT
ATOM      1  C   UNL     1       1.169   1.734  -0.479  0.00  0.00    +0.125 A 
ATOM      2  N   UNL     1      -0.041   1.271  -0.338  0.00  0.00    -0.135 NA
ATOM      3  N   UNL     1      -0.018  -0.012  -0.262  0.00  0.00    -0.122 NA
ATOM      4  C   UNL     1       1.220  -0.443  -0.350  0.00  0.00    +0.197 A 
ATOM      5  N   UNL     1       2.018   0.659  -0.492  0.00  0.00    -0.275 N 
ENDROOT
BRANCH   5   6
ATOM      6  C   UNL     1       3.414   0.683  -0.623  0.00  0.00    +0.050 A 
ATOM      7  C   UNL     1       4.195   1.274   0.361  0.00  0.00    +0.029 A 
ATOM      8  C   UNL     1       5.570   1.291   0.234  0.00  0.00    +0.040 A 
ATOM      9  C   UNL     1       6.170   0.731  -0.881  0.00  0.00    +0.124 A 
ATOM     10  C   UNL     1       5.392   0.146  -1.867  0.00  0.00    +0.040 A 
ATOM     11  C   UNL     1       4.017   0.121  -1.740  0.00  0.00    +0.029 A 
ATOM     12  F   UNL     1       7.514   0.754  -1.008  0.00  0.00    -0.205 F 
ENDBRANCH   5   6
BRANCH   1  14
ATOM     13  C   UNL     1       1.206   3.689  -2.005  0.00  0.00    -0.005 C 
ATOM     14  C   UNL     1       1.561   3.183  -0.605  0.00  0.00    -0.003 C 
BRANCH  14  15
ATOM     15  N   UNL     1       0.838   3.975   0.400  0.00  0.00    +0.382 N 
ATOM     16  C   UNL     1       1.082   3.458   1.753  0.00  0.00    -0.096 C 
ATOM     17  C   UNL     1       1.197   5.397   0.307  0.00  0.00    -0.096 C 
ATOM     18  H   UNL     1      -0.238   3.884   0.191  0.00  0.00    -0.082 HD
ENDBRANCH  14  15
ENDBRANCH   1  14
BRANCH   4  19
ATOM     19  S   UNL     1       1.751  -2.122  -0.296  0.00  0.00    -0.076 S 
BRANCH  19  20
ATOM     20  C   UNL     1       0.155  -2.951  -0.097  0.00  0.00    +0.173 C 
BRANCH  20  21
ATOM     21  C   UNL     1       0.368  -4.441  -0.025  0.00  0.00    +0.230 C 
ATOM     22  O   UNL     1       1.492  -4.895  -0.063  0.00  0.00    -0.274 OA
ATOM     23  N   UNL     1      -0.691  -5.269   0.083  0.00  0.00    -0.269 N 
ATOM     24  C   UNL     1      -2.030  -4.688   0.101  0.00  0.00    +0.125 C 
ATOM     25  C   UNL     1      -2.770  -5.180   1.349  0.00  0.00    +0.094 C 
ATOM     26  S   UNL     1      -2.993  -6.977   1.185  0.00  0.00    -0.122 S 
ATOM     27  C   UNL     1      -1.403  -7.537   0.664  0.00  0.00    +0.029 A 
ATOM     28  C   UNL     1      -0.455  -6.642   0.177  0.00  0.00    +0.050 A 
ATOM     29  C   UNL     1       0.785  -7.125  -0.235  0.00  0.00    +0.024 A 
ATOM     30  C   UNL     1       1.072  -8.473  -0.156  0.00  0.00    +0.002 A 
ATOM     31  C   UNL     1       0.129  -9.358   0.333  0.00  0.00    +0.001 A 
ATOM     32  C   UNL     1      -1.105  -8.892   0.742  0.00  0.00    +0.016 A 
ENDBRANCH  20  21
ENDBRANCH  19  20
ENDBRANCH   4  19
TORSDOF 6
