REMARK  Name = ZINC57342606
REMARK  2 active torsions:
REMARK  status: ('A' for Active; 'I' for Inactive)
REMARK    1  A    between atoms: C_1  and  C_2
REMARK    2  A    between atoms: C_10  and  C_15
REMARK                            x       y       z     vdW  Elec       q    Type
REMARK                         _______ _______ _______ _____ _____    ______ ____
ROOT
ATOM      1  C   UNL     1      -0.018   1.526   0.034  0.00  0.00    +0.007 C 
ATOM      2  C   UNL     1       0.002  -0.004   0.013  0.00  0.00    -0.011 C 
ATOM      3  C   UNL     1       0.726  -0.487  -1.246  0.00  0.00    +0.022 C 
ATOM      4  C   UNL     1       0.714  -2.019  -1.280  0.00  0.00    +0.108 C 
ATOM      5  N   UNL     1       1.285  -2.525  -0.025  0.00  0.00    -0.301 N 
ATOM      6  C   UNL     1       0.722  -2.053   1.248  0.00  0.00    +0.108 C 
ATOM      7  C   UNL     1       0.734  -0.521   1.254  0.00  0.00    +0.022 C 
ATOM      8  C   UNL     1       2.322  -3.419  -0.040  0.00  0.00    +0.199 A 
ATOM      9  N   UNL     1       2.889  -3.772   1.096  0.00  0.00    -0.212 NA
ATOM     10  C   UNL     1       3.899  -4.638   1.126  0.00  0.00    +0.152 A 
ATOM     11  C   UNL     1       4.370  -5.182  -0.034  0.00  0.00    +0.102 A 
ATOM     12  C   UNL     1       3.770  -4.810  -1.250  0.00  0.00    +0.253 A 
ATOM     13  N   UNL     1       2.744  -3.932  -1.227  0.00  0.00    -0.295 N 
ATOM     14  O   UNL     1       4.165  -5.276  -2.307  0.00  0.00    -0.268 OA
ATOM     15  H   UNL     1       2.313  -3.665  -2.054  0.00  0.00    +0.172 HD
ENDROOT
BRANCH  10  16
ATOM     16  C   UNL     1       4.525  -5.020   2.443  0.00  0.00    +0.434 C 
ATOM     17  F   UNL     1       5.558  -5.936   2.220  0.00  0.00    -0.164 F 
ATOM     18  F   UNL     1       5.041  -3.876   3.062  0.00  0.00    -0.164 F 
ATOM     19  F   UNL     1       3.556  -5.600   3.269  0.00  0.00    -0.164 F 
ENDBRANCH  10  16
TORSDOF 1
