REMARK  Name = ZINC11782953
REMARK  6 active torsions:
REMARK  status: ('A' for Active; 'I' for Inactive)
REMARK    1  A    between atoms: C_4  and  C_7
REMARK    2  A    between atoms: C_7  and  N_8
REMARK    3  A    between atoms: C_19  and  N_58
REMARK    4  A    between atoms: C_23  and  C_24
REMARK    5  A    between atoms: C_23  and  N_58
REMARK    6  A    between atoms: C_24  and  C_25
REMARK                            x       y       z     vdW  Elec       q    Type
REMARK                         _______ _______ _______ _____ _____    ______ ____
ROOT
ATOM      1  N   UNL     1       3.547  -1.812  -4.365  0.00  0.00    -0.294 N 
ATOM      2  C   UNL     1       4.654  -1.042  -4.488  0.00  0.00    +0.203 A 
ATOM      3  N   UNL     1       4.854   0.045  -3.774  0.00  0.00    -0.230 NA
ATOM      4  C   UNL     1       3.911   0.382  -2.899  0.00  0.00    +0.116 A 
ATOM      5  C   UNL     1       2.723  -0.355  -2.698  0.00  0.00    +0.076 A 
ATOM      6  C   UNL     1       2.545  -1.534  -3.497  0.00  0.00    +0.263 A 
ATOM      7  O   UNL     1       1.556  -2.240  -3.401  0.00  0.00    -0.267 OA
ATOM      8  C   UNL     1       1.808   0.165  -1.698  0.00  0.00    -0.023 A 
ATOM      9  C   UNL     1       2.184   1.300  -1.063  0.00  0.00    -0.006 A 
ATOM     10  S   UNL     1       3.761   1.722  -1.760  0.00  0.00    -0.073 S 
ATOM     11  C   UNL     1       1.429   2.038  -0.001  0.00  0.00    +0.027 C 
ATOM     12  C   UNL     1      -0.019   1.527   0.010  0.00  0.00    -0.067 C 
ATOM     13  C   UNL     1       0.002  -0.004   0.002  0.00  0.00    -0.011 C 
ATOM     14  C   UNL     1       0.481  -0.510  -1.359  0.00  0.00    +0.035 C 
ENDROOT
BRANCH  12  15
ATOM     15  N   UNL     1      -0.701   1.999   1.230  0.00  0.00    +0.381 N 
ATOM     16  H   UNL     1      -0.027   2.033   2.004  0.00  0.00    -0.086 HD
ATOM     17  H   UNL     1      -1.460   1.349   1.466  0.00  0.00    -0.086 HD
BRANCH  15  18
ATOM     18  C   UNL     1      -1.263   3.346   1.014  0.00  0.00    -0.078 C 
BRANCH  18  19
ATOM     19  C   UNL     1      -1.963   3.808   2.294  0.00  0.00    +0.011 C 
BRANCH  19  20
ATOM     20  C   UNL     1      -2.540   5.184   2.082  0.00  0.00    -0.075 C 
ATOM     21  C   UNL     1      -3.780   5.272   1.720  0.00  0.00    -0.028 C 
ATOM     22  C   UNL     1      -4.491   6.570   1.466  0.00  0.00    +0.027 C 
ATOM     23  C   UNL     1      -3.706   7.731   2.080  0.00  0.00    +0.004 C 
ATOM     24  C   UNL     1      -2.241   7.611   1.643  0.00  0.00    +0.005 C 
ATOM     25  C   UNL     1      -1.641   6.365   2.298  0.00  0.00    +0.030 C 
ENDBRANCH  19  20
ENDBRANCH  18  19
ENDBRANCH  15  18
ENDBRANCH  12  15
BRANCH   1  26
ATOM     26  C   UNL     1       3.427  -3.002  -5.211  0.00  0.00    +0.161 C 
BRANCH  26  30
ATOM     27  C   UNL     1       5.153  -6.356  -3.206  0.00  0.00    +0.000 A 
ATOM     28  C   UNL     1       3.814  -6.061  -3.032  0.00  0.00    +0.000 A 
ATOM     29  C   UNL     1       3.255  -4.975  -3.681  0.00  0.00    +0.005 A 
ATOM     30  C   UNL     1       4.036  -4.185  -4.504  0.00  0.00    -0.028 A 
ATOM     31  C   UNL     1       5.374  -4.484  -4.682  0.00  0.00    +0.005 A 
ATOM     32  C   UNL     1       5.934  -5.566  -4.029  0.00  0.00    +0.000 A 
ENDBRANCH  26  30
ENDBRANCH   1  26
TORSDOF 6
