REMARK  Name = ZINC12455651
REMARK  9 active torsions:
REMARK  status: ('A' for Active; 'I' for Inactive)
REMARK    1  A    between atoms: C_1  and  C_2
REMARK    2  A    between atoms: C_2  and  C_3
REMARK    3  A    between atoms: C_2  and  C_4
REMARK    4  A    between atoms: C_4  and  C_5
REMARK    5  A    between atoms: C_5  and  N_65
REMARK    6  A    between atoms: C_11  and  C_13
REMARK    7  A    between atoms: C_13  and  C_14
REMARK    8  A    between atoms: C_19  and  C_22
REMARK    9  A    between atoms: C_22  and  N_67
REMARK                            x       y       z     vdW  Elec       q    Type
REMARK                         _______ _______ _______ _____ _____    ______ ____
ROOT
ATOM      1  C   UNL     1      -0.846   2.578  -0.836  0.00  0.00    +0.214 C 
ATOM      2  O   UNL     1      -1.841   3.206  -0.545  0.00  0.00    -0.276 OA
ATOM      3  N   UNL     1      -0.450   2.499  -2.122  0.00  0.00    -0.302 N 
ATOM      4  C   UNL     1       0.757   1.746  -2.489  0.00  0.00    +0.108 C 
ATOM      5  C   UNL     1       1.681   2.653  -3.300  0.00  0.00    +0.021 C 
ATOM      6  C   UNL     1       0.911   3.228  -4.492  0.00  0.00    -0.025 C 
ATOM      7  C   UNL     1      -0.266   4.064  -3.985  0.00  0.00    +0.021 C 
ATOM      8  C   UNL     1      -1.216   3.168  -3.183  0.00  0.00    +0.108 C 
ENDROOT
BRANCH   1   9
ATOM      9  C   UNL     1      -0.050   1.886   0.240  0.00  0.00    +0.090 C 
BRANCH   9  15
ATOM     10  C   UNL     1      -1.862   3.595   3.050  0.00  0.00    -0.059 C 
ATOM     11  C   UNL     1      -3.273   3.167   2.643  0.00  0.00    +0.085 C 
ATOM     12  N   UNL     1      -3.232   1.859   1.997  0.00  0.00    -0.318 N 
ATOM     13  C   UNL     1      -2.111   1.331   1.494  0.00  0.00    +0.200 C 
ATOM     14  O   UNL     1      -2.172   0.251   0.945  0.00  0.00    -0.278 OA
ATOM     15  C   UNL     1      -0.779   2.021   1.579  0.00  0.00    +0.028 C 
ATOM     16  H   UNL     1      -4.055   1.349   1.929  0.00  0.00    +0.149 HD
ATOM     17  N   UNL     1      -0.983   3.452   1.872  0.00  0.00    +0.389 N 
ATOM     18  H   UNL     1      -1.430   3.899   1.063  0.00  0.00    -0.081 HD
BRANCH  17  19
ATOM     19  C   UNL     1       0.320   4.108   2.127  0.00  0.00    -0.077 C 
BRANCH  19  20
ATOM     20  C   UNL     1       0.132   5.625   2.061  0.00  0.00    -0.016 C 
BRANCH  20  22
ATOM     21  C   UNL     1       2.439   5.979   1.169  0.00  0.00    +0.007 C 
ATOM     22  C   UNL     1       1.474   6.316   2.308  0.00  0.00    -0.019 C 
ATOM     23  C   UNL     1       1.264   7.831   2.366  0.00  0.00    +0.007 C 
ENDBRANCH  20  22
ENDBRANCH  19  20
ENDBRANCH  17  19
ENDBRANCH   9  15
ENDBRANCH   1   9
BRANCH   6  24
ATOM     24  C   UNL     1       1.844   4.112  -5.323  0.00  0.00    -0.075 C 
BRANCH  24  30
ATOM     25  C   UNL     1       0.958   3.460  -7.481  0.00  0.00    -0.050 C 
ATOM     26  C   UNL     1       0.171   3.962  -8.694  0.00  0.00    +0.141 C 
ATOM     27  O   UNL     1       0.862   5.070  -9.279  0.00  0.00    -0.383 OA
ATOM     28  C   UNL     1       1.056   6.165  -8.380  0.00  0.00    +0.141 C 
ATOM     29  C   UNL     1       1.852   5.686  -7.164  0.00  0.00    -0.050 C 
ATOM     30  N   UNL     1       1.116   4.575  -6.524  0.00  0.00    +0.383 N 
ATOM     31  H   UNL     1       0.187   4.909  -6.243  0.00  0.00    -0.082 HD
ENDBRANCH  24  30
ENDBRANCH   6  24
TORSDOF 7
