REMARK  Name = ZINC08644285
REMARK  10 active torsions:
REMARK  status: ('A' for Active; 'I' for Inactive)
REMARK    1  A    between atoms: C_1  and  C_2
REMARK    2  A    between atoms: C_2  and  C_3
REMARK    3  A    between atoms: C_6  and  C_9
REMARK    4  A    between atoms: C_9  and  C_11
REMARK    5  A    between atoms: C_9  and  N_12
REMARK    6  A    between atoms: C_13  and  C_15
REMARK    7  A    between atoms: C_15  and  S_16
REMARK    8  A    between atoms: S_16  and  C_17
REMARK    9  A    between atoms: C_20  and  C_23
REMARK   10  A    between atoms: N_21  and  N_22
REMARK                            x       y       z     vdW  Elec       q    Type
REMARK                         _______ _______ _______ _____ _____    ______ ____
ROOT
ATOM      1  S   UNL     1      -1.098   1.330  -1.472  0.00  0.00    -0.075 S 
ENDROOT
BRANCH   1   2
ATOM      2  C   UNL     1       0.040   0.851  -2.729  0.00  0.00    +0.209 A 
ATOM      3  N   UNL     1       1.125   0.128  -2.563  0.00  0.00    -0.121 NA
ATOM      4  N   UNL     1       1.722  -0.035  -3.689  0.00  0.00    -0.127 NA
ATOM      5  C   UNL     1       1.060   0.580  -4.641  0.00  0.00    +0.183 A 
ATOM      6  N   UNL     1      -0.038   1.167  -4.056  0.00  0.00    -0.224 N 
BRANCH   5   7
ATOM      7  C   UNL     1       1.425   0.632  -6.073  0.00  0.00    +0.039 A 
ATOM      8  C   UNL     1       1.397   1.847  -6.760  0.00  0.00    +0.014 A 
ATOM      9  C   UNL     1       1.744   1.891  -8.094  0.00  0.00    +0.021 A 
ATOM     10  C   UNL     1       2.108   0.730  -8.756  0.00  0.00    +0.042 A 
ATOM     11  C   UNL     1       2.133  -0.479  -8.083  0.00  0.00    +0.040 A 
ATOM     12  C   UNL     1       1.793  -0.535  -6.746  0.00  0.00    +0.053 A 
ATOM     13 CL   UNL     1       1.824  -2.052  -5.903  0.00  0.00    -0.083 Cl
ATOM     14 CL   UNL     1       2.537   0.793 -10.437  0.00  0.00    -0.083 Cl
ENDBRANCH   5   7
BRANCH   6  15
ATOM     15  N   UNL     1      -1.004   1.910  -4.672  0.00  0.00    -0.295 N 
ATOM     16  H   UNL     1      -0.720   2.875  -4.754  0.00  0.00    +0.163 HD
ATOM     17  H   UNL     1      -1.237   1.524  -5.574  0.00  0.00    +0.163 HD
ENDBRANCH   6  15
ENDBRANCH   1   2
BRANCH   1  18
ATOM     18  C   UNL     1      -0.327   0.547  -0.034  0.00  0.00    +0.173 C 
BRANCH  18  20
ATOM     19  N   UNL     1      -0.767   0.344   2.392  0.00  0.00    -0.308 N 
ATOM     20  C   UNL     1      -1.152   0.831   1.195  0.00  0.00    +0.224 C 
ATOM     21  O   UNL     1      -2.161   1.497   1.107  0.00  0.00    -0.275 OA
ATOM     22  H   UNL     1       0.041  -0.189   2.462  0.00  0.00    +0.149 HD
BRANCH  19  23
ATOM     23  C   UNL     1      -1.569   0.620   3.586  0.00  0.00    +0.100 C 
ATOM     24  C   UNL     1      -2.695  -0.411   3.694  0.00  0.00    +0.033 C 
BRANCH  23  28
ATOM     25  C   UNL     1       0.915   0.381   7.054  0.00  0.00    -0.048 A 
ATOM     26  C   UNL     1      -0.046   1.370   6.958  0.00  0.00    +0.004 A 
ATOM     27  C   UNL     1      -0.850   1.448   5.836  0.00  0.00    +0.006 A 
ATOM     28  C   UNL     1      -0.692   0.536   4.810  0.00  0.00    -0.027 A 
ATOM     29  C   UNL     1       0.265  -0.457   4.907  0.00  0.00    +0.006 A 
ATOM     30  C   UNL     1       1.072  -0.531   6.027  0.00  0.00    +0.004 A 
BRANCH  25  32
ATOM     31  C   UNL     1       1.125  -0.605   9.319  0.00  0.00    +0.009 C 
ATOM     32  C   UNL     1       1.790   0.296   8.277  0.00  0.00    +0.032 C 
ENDBRANCH  25  32
ENDBRANCH  23  28
ENDBRANCH  19  23
ENDBRANCH  18  20
ENDBRANCH   1  18
TORSDOF 8
