REMARK  Name = ZINC07365269
REMARK  8 active torsions:
REMARK  status: ('A' for Active; 'I' for Inactive)
REMARK    1  A    between atoms: C_6  and  C_7
REMARK    2  A    between atoms: C_10  and  C_12
REMARK    3  A    between atoms: C_12  and  N_43
REMARK    4  A    between atoms: C_13  and  C_14
REMARK    5  A    between atoms: C_13  and  N_43
REMARK    6  A    between atoms: C_14  and  N_15
REMARK    7  A    between atoms: N_15  and  C_16
REMARK    8  A    between atoms: C_19  and  N_22
REMARK                            x       y       z     vdW  Elec       q    Type
REMARK                         _______ _______ _______ _____ _____    ______ ____
ROOT
ATOM      1  N   UNL     1       3.556  -5.006  -0.058  0.00  0.00    +0.385 N 
ATOM      2  H   UNL     1       4.079  -4.739  -0.900  0.00  0.00    -0.085 HD
ATOM      3  H   UNL     1       4.095  -4.747   0.777  0.00  0.00    -0.085 HD
ENDROOT
BRANCH   1   4
ATOM      4  C   UNL     1       3.341  -6.466  -0.063  0.00  0.00    -0.007 C 
BRANCH   4   8
ATOM      5  C   UNL     1       6.510  -8.120  -0.817  0.00  0.00    +0.135 A 
ATOM      6  C   UNL     1       6.563  -8.147   0.541  0.00  0.00    +0.050 A 
ATOM      7  C   UNL     1       5.384  -7.531   1.006  0.00  0.00    +0.043 A 
ATOM      8  C   UNL     1       4.677  -7.162  -0.080  0.00  0.00    +0.089 A 
ATOM      9  O   UNL     1       5.357  -7.524  -1.179  0.00  0.00    -0.462 OA
BRANCH   5  15
ATOM     10  C   UNL     1       8.690  -9.252  -1.226  0.00  0.00    +0.013 A 
ATOM     11  C   UNL     1       9.642  -9.755  -2.089  0.00  0.00    +0.021 A 
ATOM     12  C   UNL     1       9.458  -9.660  -3.458  0.00  0.00    +0.041 A 
ATOM     13  C   UNL     1       8.318  -9.064  -3.970  0.00  0.00    +0.021 A 
ATOM     14  C   UNL     1       7.356  -8.563  -3.117  0.00  0.00    +0.013 A 
ATOM     15  C   UNL     1       7.536  -8.656  -1.736  0.00  0.00    +0.017 A 
ATOM     16 CL   UNL     1      10.664 -10.289  -4.538  0.00  0.00    -0.084 Cl
ENDBRANCH   5  15
ENDBRANCH   4   8
ENDBRANCH   1   4
BRANCH   1  17
ATOM     17  C   UNL     1       2.263  -4.298  -0.042  0.00  0.00    -0.063 C 
BRANCH  17  18
ATOM     18  C   UNL     1       2.518  -2.789  -0.037  0.00  0.00    +0.082 C 
BRANCH  18  19
ATOM     19  N   UNL     1       1.238  -2.077  -0.021  0.00  0.00    -0.346 N 
ATOM     20  H   UNL     1       0.406  -2.576  -0.015  0.00  0.00    +0.146 HD
BRANCH  19  21
ATOM     21  C   UNL     1       1.215  -0.681  -0.013  0.00  0.00    +0.027 A 
ATOM     22  C   UNL     1       0.002  -0.004   0.002  0.00  0.00    +0.025 A 
ATOM     23  C   UNL     1      -0.017   1.377   0.010  0.00  0.00    +0.034 A 
ATOM     24  C   UNL     1       1.171   2.086   0.002  0.00  0.00    +0.126 A 
ATOM     25  C   UNL     1       2.380   1.416  -0.013  0.00  0.00    +0.034 A 
ATOM     26  C   UNL     1       2.406   0.035  -0.021  0.00  0.00    +0.025 A 
BRANCH  24  27
ATOM     27  N   UNL     1       1.147   3.566   0.010  0.00  0.00    +0.056 N 
ATOM     28  O   UNL     1       0.082   4.158   0.023  0.00  0.00    -0.126 OA
ATOM     29  O   UNL     1       2.191   4.192   0.003  0.00  0.00    -0.126 OA
ENDBRANCH  24  27
ENDBRANCH  19  21
ENDBRANCH  18  19
ENDBRANCH  17  18
ENDBRANCH   1  17
TORSDOF 8
