REMARK  Name = ZINC64375491
REMARK  8 active torsions:
REMARK  status: ('A' for Active; 'I' for Inactive)
REMARK    1  A    between atoms: C_1  and  O_2
REMARK    2  A    between atoms: O_2  and  C_3
REMARK    3  A    between atoms: C_6  and  C_9
REMARK    4  A    between atoms: N_11  and  C_12
REMARK    5  A    between atoms: C_21  and  C_23
REMARK    6  A    between atoms: N_25  and  C_26
REMARK    7  A    between atoms: C_26  and  C_27
REMARK    8  A    between atoms: C_27  and  C_28
REMARK                            x       y       z     vdW  Elec       q    Type
REMARK                         _______ _______ _______ _____ _____    ______ ____
ROOT
ATOM      1  C   UNL     1      -6.304  -4.645   0.043  0.00  0.00    +0.220 C 
ATOM      2  N   UNL     1      -6.146  -6.090  -0.242  0.00  0.00    -0.320 N 
ATOM      3  C   UNL     1      -5.980  -6.876   0.860  0.00  0.00    +0.027 C 
ATOM      4  C   UNL     1      -6.984  -6.514   1.962  0.00  0.00    +0.094 C 
ATOM      5  S   UNL     1      -7.021  -4.682   1.742  0.00  0.00    -0.110 S 
ATOM      6  C   UNL     1      -6.311  -6.836   3.300  0.00  0.00    +0.020 C 
ATOM      7  C   UNL     1      -5.940  -8.317   3.315  0.00  0.00    +0.006 C 
ATOM      8  C   UNL     1      -4.899  -8.645   2.258  0.00  0.00    +0.042 C 
ATOM      9  C   UNL     1      -5.051  -7.840   1.008  0.00  0.00    +0.032 C 
ATOM     10  H   UNL     1      -6.159  -6.450  -1.143  0.00  0.00    +0.148 HD
ENDROOT
BRANCH   1  13
ATOM     11  C   UNL     1      -4.956  -2.616   0.035  0.00  0.00    +0.246 C 
ATOM     12  O   UNL     1      -5.984  -1.968   0.044  0.00  0.00    -0.270 OA
ATOM     13  N   UNL     1      -5.008  -3.963   0.034  0.00  0.00    -0.284 N 
ATOM     14  H   UNL     1      -4.187  -4.480   0.027  0.00  0.00    +0.152 HD
BRANCH  11  18
ATOM     15  C   UNL     1      -1.199  -0.637   0.010  0.00  0.00    +0.120 A 
ATOM     16  C   UNL     1      -2.373   0.106   0.019  0.00  0.00    +0.046 A 
ATOM     17  C   UNL     1      -3.594  -0.532   0.028  0.00  0.00    +0.016 A 
ATOM     18  C   UNL     1      -3.650  -1.928   0.026  0.00  0.00    +0.037 A 
ATOM     19  C   UNL     1      -2.467  -2.671   0.016  0.00  0.00    +0.016 A 
ATOM     20  C   UNL     1      -1.250  -2.026   0.003  0.00  0.00    +0.046 A 
BRANCH  15  22
ATOM     21  C   UNL     1      -0.017   1.425   0.010  0.00  0.00    +0.277 C 
ATOM     22  O   UNL     1       0.002  -0.004   0.002  0.00  0.00    -0.495 OA
ENDBRANCH  15  22
ENDBRANCH  11  18
ENDBRANCH   1  13
BRANCH   9  23
ATOM     23  C   UNL     1      -4.177  -8.105  -0.072  0.00  0.00    +0.242 C 
ATOM     24  O   UNL     1      -4.275  -7.466  -1.105  0.00  0.00    -0.270 OA
ATOM     25  N   UNL     1      -3.236  -9.063   0.041  0.00  0.00    -0.311 N 
ATOM     26  H   UNL     1      -3.158  -9.571   0.863  0.00  0.00    +0.149 HD
BRANCH  25  27
ATOM     27  C   UNL     1      -2.331  -9.336  -1.079  0.00  0.00    +0.109 C 
BRANCH  27  28
ATOM     28  C   UNL     1      -1.367 -10.460  -0.692  0.00  0.00    +0.052 C 
BRANCH  28  29
ATOM     29  C   UNL     1      -0.436 -10.741  -1.843  0.00  0.00    -0.040 C 
ATOM     30  C   UNL     1       0.805 -10.237  -2.027  0.00  0.00    -0.001 A 
ATOM     31  C   UNL     1       1.628  -9.310  -1.242  0.00  0.00    +0.010 A 
ATOM     32  C   UNL     1       2.861  -8.983  -1.693  0.00  0.00    +0.001 A 
ATOM     33  C   UNL     1       3.370  -9.506  -2.889  0.00  0.00    +0.002 A 
ATOM     34  C   UNL     1       2.674 -10.363  -3.666  0.00  0.00    +0.026 A 
ATOM     35  C   UNL     1       1.366 -10.775  -3.287  0.00  0.00    +0.043 A 
ATOM     36  N   UNL     1       0.505 -11.581  -3.860  0.00  0.00    -0.380 N 
ATOM     37  C   UNL     1      -0.698 -11.650  -3.024  0.00  0.00    +0.144 C 
ATOM     38  H   UNL     1       0.643 -12.056  -4.694  0.00  0.00    +0.160 HD
ENDBRANCH  28  29
ENDBRANCH  27  28
ENDBRANCH  25  27
ENDBRANCH   9  23
TORSDOF 7
