REMARK  Name = ZINC60346286
REMARK  9 active torsions:
REMARK  status: ('A' for Active; 'I' for Inactive)
REMARK    1  A    between atoms: C_1  and  C_2
REMARK    2  A    between atoms: C_4  and  C_8
REMARK    3  A    between atoms: C_5  and  C_7
REMARK    4  A    between atoms: C_8  and  C_32
REMARK    5  A    between atoms: N_11  and  C_15
REMARK    6  A    between atoms: C_15  and  C_16
REMARK    7  A    between atoms: N_18  and  C_19
REMARK    8  A    between atoms: C_24  and  S_25
REMARK    9  A    between atoms: S_25  and  C_26
REMARK                            x       y       z     vdW  Elec       q    Type
REMARK                         _______ _______ _______ _____ _____    ______ ____
ROOT
ATOM      1  C   UNL     1      -2.002  -5.244   3.292  0.00  0.00    +0.214 C 
ENDROOT
BRANCH   1   5
ATOM      2  C   UNL     1       0.504  -4.585   0.631  0.00  0.00    +0.138 C 
ATOM      3  C   UNL     1       0.086  -5.218   1.944  0.00  0.00    +0.251 C 
ATOM      4  O   UNL     1       0.764  -5.912   2.671  0.00  0.00    -0.272 OA
ATOM      5  N   UNL     1      -1.196  -4.849   2.134  0.00  0.00    -0.215 N 
ATOM      6  C   UNL     1      -1.642  -4.079   1.135  0.00  0.00    +0.310 C 
ATOM      7  O   UNL     1      -2.767  -3.624   1.084  0.00  0.00    -0.252 OA
ATOM      8  N   UNL     1      -0.705  -3.866   0.194  0.00  0.00    -0.281 N 
ATOM      9  C   UNL     1       0.890  -5.658  -0.389  0.00  0.00    +0.047 C 
ATOM     10  H   UNL     1      -0.805  -3.340  -0.615  0.00  0.00    +0.152 HD
BRANCH   2  14
ATOM     11  C   UNL     1       3.284  -0.324   0.882  0.00  0.00    +0.086 C 
ATOM     12  C   UNL     1       2.843  -1.763   0.950  0.00  0.00    +0.103 A 
ATOM     13  C   UNL     1       1.619  -2.226   0.639  0.00  0.00    +0.051 A 
ATOM     14  C   UNL     1       1.645  -3.624   0.846  0.00  0.00    +0.025 A 
ATOM     15  C   UNL     1       2.883  -3.933   1.270  0.00  0.00    +0.108 A 
ATOM     16  O   UNL     1       3.606  -2.802   1.326  0.00  0.00    -0.465 OA
ATOM     17  C   UNL     1       3.377  -5.313   1.619  0.00  0.00    +0.086 C 
ENDBRANCH   2  14
ENDBRANCH   1   5
BRANCH   1  18
ATOM     18  C   UNL     1      -1.842  -4.221   4.388  0.00  0.00    +0.235 C 
ATOM     19  O   UNL     1      -1.124  -3.258   4.218  0.00  0.00    -0.274 OA
ATOM     20  N   UNL     1      -2.495  -4.377   5.556  0.00  0.00    -0.283 N 
ATOM     21  H   UNL     1      -3.126  -5.106   5.665  0.00  0.00    +0.155 HD
BRANCH  20  22
ATOM     22  C   UNL     1      -2.264  -3.487   6.613  0.00  0.00    +0.047 A 
ATOM     23  C   UNL     1      -1.895  -2.176   6.349  0.00  0.00    +0.024 A 
ATOM     24  C   UNL     1      -1.667  -1.299   7.393  0.00  0.00    +0.002 A 
ATOM     25  C   UNL     1      -1.805  -1.724   8.702  0.00  0.00    +0.001 A 
ATOM     26  C   UNL     1      -2.172  -3.029   8.975  0.00  0.00    +0.017 A 
ATOM     27  C   UNL     1      -2.409  -3.914   7.933  0.00  0.00    +0.034 A 
BRANCH  27  28
ATOM     28  S   UNL     1      -2.883  -5.576   8.276  0.00  0.00    -0.088 S 
BRANCH  28  29
ATOM     29  C   UNL     1      -2.980  -5.637  10.034  0.00  0.00    +0.013 A 
ATOM     30  C   UNL     1      -4.144  -5.241  10.682  0.00  0.00    +0.015 A 
ATOM     31  C   UNL     1      -4.217  -5.290  12.060  0.00  0.00    +0.001 A 
ATOM     32  C   UNL     1      -3.132  -5.732  12.796  0.00  0.00    +0.000 A 
ATOM     33  C   UNL     1      -1.972  -6.127  12.155  0.00  0.00    +0.001 A 
ATOM     34  C   UNL     1      -1.895  -6.086  10.777  0.00  0.00    +0.015 A 
ENDBRANCH  28  29
ENDBRANCH  27  28
ENDBRANCH  20  22
ENDBRANCH   1  18
TORSDOF 6
