REMARK  Name = ZINC04955045
REMARK  13 active torsions:
REMARK  status: ('A' for Active; 'I' for Inactive)
REMARK    1  A    between atoms: C_1  and  C_2
REMARK    2  A    between atoms: C_2  and  C_3
REMARK    3  A    between atoms: C_3  and  C_4
REMARK    4  A    between atoms: N_6  and  C_7
REMARK    5  A    between atoms: C_9  and  C_14
REMARK    6  A    between atoms: C_9  and  C_15
REMARK    7  A    between atoms: C_10  and  C_12
REMARK    8  A    between atoms: C_10  and  C_13
REMARK    9  A    between atoms: N_16  and  C_17
REMARK   10  A    between atoms: C_19  and  C_24
REMARK   11  A    between atoms: C_19  and  C_25
REMARK   12  A    between atoms: C_20  and  C_22
REMARK   13  A    between atoms: C_20  and  C_23
REMARK                            x       y       z     vdW  Elec       q    Type
REMARK                         _______ _______ _______ _____ _____    ______ ____
ROOT
ATOM      1  C   UNL     1       1.333   4.638  -5.366  0.00  0.00    +0.145 C 
ENDROOT
BRANCH   1   2
ATOM      2  C   UNL     1       1.220   4.637  -3.957  0.00  0.00    +0.219 C 
ATOM      3  O   UNL     1       0.576   5.505  -3.396  0.00  0.00    -0.275 OA
ATOM      4  N   UNL     1       1.826   3.675  -3.233  0.00  0.00    -0.312 N 
ATOM      5  H   UNL     1       2.339   2.983  -3.679  0.00  0.00    +0.149 HD
BRANCH   4   6
ATOM      6  C   UNL     1       1.709   3.674  -1.769  0.00  0.00    +0.070 C 
ATOM      7  C   UNL     1       2.909   2.941  -1.169  0.00  0.00    +0.009 C 
ATOM      8  C   UNL     1       2.803   2.906   0.354  0.00  0.00    -0.072 C 
ATOM      9  C   UNL     1       0.299   2.894   0.154  0.00  0.00    -0.072 C 
ATOM     10  C   UNL     1       0.436   2.931  -1.366  0.00  0.00    +0.009 C 
ATOM     11  C   UNL     1      -0.829   1.895   0.495  0.00  0.00    -0.010 C 
ATOM     12  C   UNL     1      -0.144   4.271   0.662  0.00  0.00    -0.010 C 
ATOM     13  C   UNL     1       3.146   4.288   0.923  0.00  0.00    -0.010 C 
ATOM     14  C   UNL     1       3.873   1.920   0.872  0.00  0.00    -0.010 C 
ATOM     15  N   UNL     1       1.504   2.408   0.879  0.00  0.00    +0.386 N 
ATOM     16  H   UNL     1       1.424   2.701   1.860  0.00  0.00    -0.084 HD
ATOM     17  H   UNL     1       1.513   1.382   0.829  0.00  0.00    -0.084 HD
ENDBRANCH   4   6
ENDBRANCH   1   2
BRANCH   1  19
ATOM     18  C   UNL     1      -0.403   6.400  -5.433  0.00  0.00    +0.061 C 
ATOM     19  C   UNL     1       0.624   5.522  -6.099  0.00  0.00    +0.019 C 
ATOM     20  N   UNL     1       0.839   5.621  -7.445  0.00  0.00    -0.289 NA
BRANCH  20  21
ATOM     21  C   UNL     1       0.068   6.584  -8.242  0.00  0.00    +0.103 C 
ATOM     22  C   UNL     1      -1.248   5.938  -8.676  0.00  0.00    +0.014 C 
ATOM     23  C   UNL     1      -2.062   6.911  -9.526  0.00  0.00    -0.071 C 
ATOM     24  C   UNL     1       0.076   7.936 -10.355  0.00  0.00    -0.071 C 
ATOM     25  C   UNL     1       0.864   6.953  -9.494  0.00  0.00    +0.014 C 
ATOM     26  C   UNL     1       0.121   9.329  -9.714  0.00  0.00    -0.010 C 
ATOM     27  C   UNL     1       0.793   8.038 -11.720  0.00  0.00    -0.010 C 
ATOM     28  C   UNL     1      -2.687   7.981  -8.623  0.00  0.00    -0.010 C 
ATOM     29  C   UNL     1      -3.222   6.115 -10.162  0.00  0.00    -0.010 C 
ATOM     30  N   UNL     1      -1.320   7.523 -10.661  0.00  0.00    +0.386 N 
ATOM     31  H   UNL     1      -1.838   8.355 -10.968  0.00  0.00    -0.084 HD
ATOM     32  H   UNL     1      -1.288   6.838 -11.426  0.00  0.00    -0.084 HD
ENDBRANCH  20  21
ENDBRANCH   1  19
TORSDOF 4
