REMARK  Name = ZINC09462196
REMARK  9 active torsions:
REMARK  status: ('A' for Active; 'I' for Inactive)
REMARK    1  A    between atoms: C_1  and  C_2
REMARK    2  A    between atoms: C_2  and  C_4
REMARK    3  A    between atoms: C_2  and  N_11
REMARK    4  A    between atoms: N_11  and  C_12
REMARK    5  A    between atoms: C_12  and  C_14
REMARK    6  A    between atoms: C_12  and  C_15
REMARK    7  A    between atoms: N_17  and  C_18
REMARK    8  A    between atoms: C_22  and  S_24
REMARK    9  A    between atoms: S_24  and  N_27
REMARK                            x       y       z     vdW  Elec       q    Type
REMARK                         _______ _______ _______ _____ _____    ______ ____
ROOT
ATOM      1  C   UNL     1       0.747  -0.510   3.622  0.00  0.00    +0.203 C 
ATOM      2  O   UNL     1       1.826  -1.052   3.502  0.00  0.00    -0.277 OA
ATOM      3  N   UNL     1       0.250  -0.263   4.850  0.00  0.00    -0.287 N 
ATOM      4  H   UNL     1      -0.579   0.230   4.947  0.00  0.00    +0.155 HD
ENDROOT
BRANCH   3   5
ATOM      5  C   UNL     1       0.931  -0.718   5.985  0.00  0.00    +0.035 A 
ATOM      6  C   UNL     1       2.320  -0.740   6.001  0.00  0.00    +0.023 A 
ATOM      7  C   UNL     1       2.989  -1.190   7.122  0.00  0.00    +0.004 A 
ATOM      8  C   UNL     1       2.277  -1.619   8.228  0.00  0.00    +0.028 A 
ATOM      9  C   UNL     1       0.895  -1.599   8.215  0.00  0.00    +0.107 A 
ATOM     10  C   UNL     1       0.220  -1.144   7.099  0.00  0.00    +0.051 A 
BRANCH   9  11
ATOM     11  S   UNL     1      -0.006  -2.147   9.626  0.00  0.00    +0.061 S 
ATOM     12  O   UNL     1      -1.290  -2.541   9.160  0.00  0.00    -0.153 OA
ATOM     13  O   UNL     1       0.850  -3.029  10.338  0.00  0.00    -0.153 OA
BRANCH  11  14
ATOM     14  N   UNL     1      -0.241  -0.828  10.600  0.00  0.00    -0.177 NA
ATOM     15  C   UNL     1       0.742  -0.476  11.633  0.00  0.00    +0.109 C 
ATOM     16  C   UNL     1       1.159   0.986  11.440  0.00  0.00    +0.017 C 
ATOM     17  C   UNL     1      -0.090   1.871  11.433  0.00  0.00    +0.003 C 
ATOM     18  C   UNL     1      -0.995   1.469  10.267  0.00  0.00    +0.017 C 
ATOM     19  C   UNL     1      -1.433   0.016  10.442  0.00  0.00    +0.109 C 
ENDBRANCH  11  14
ENDBRANCH   9  11
ENDBRANCH   3   5
BRANCH   1  20
ATOM     20  C   UNL     1      -0.037  -0.113   2.398  0.00  0.00    +0.014 C 
ATOM     21  C   UNL     1      -1.387  -0.832   2.402  0.00  0.00    -0.004 C 
BRANCH  20  22
ATOM     22  N   UNL     1       0.714  -0.487   1.192  0.00  0.00    +0.391 N 
ATOM     23  H   UNL     1       0.793  -1.492   1.144  0.00  0.00    -0.084 HD
ATOM     24  H   UNL     1       1.636  -0.079   1.230  0.00  0.00    -0.084 HD
BRANCH  22  26
ATOM     25  C   UNL     1      -0.003   1.536   0.013  0.00  0.00    -0.009 C 
ATOM     26  C   UNL     1       0.007   0.006   0.002  0.00  0.00    -0.042 C 
BRANCH  26  27
ATOM     27  C   UNL     1       0.711  -0.482  -1.238  0.00  0.00    -0.043 A 
ATOM     28  C   UNL     1       2.025  -0.905  -1.166  0.00  0.00    +0.003 A 
ATOM     29  C   UNL     1       2.670  -1.353  -2.304  0.00  0.00    +0.000 A 
ATOM     30  C   UNL     1       2.001  -1.379  -3.514  0.00  0.00    +0.001 A 
ATOM     31  C   UNL     1       0.688  -0.956  -3.587  0.00  0.00    +0.020 A 
ATOM     32  C   UNL     1       0.040  -0.513  -2.447  0.00  0.00    +0.043 A 
ATOM     33 CL   UNL     1      -1.613   0.012  -2.537  0.00  0.00    -0.083 Cl
ENDBRANCH  26  27
ENDBRANCH  22  26
ENDBRANCH  20  22
ENDBRANCH   1  20
TORSDOF 7
