REMARK  Name = ZINC12429165
REMARK  5 active torsions:
REMARK  status: ('A' for Active; 'I' for Inactive)
REMARK    1  A    between atoms: C_6  and  C_7
REMARK    2  A    between atoms: C_10  and  C_32
REMARK    3  A    between atoms: C_15  and  C_17
REMARK    4  A    between atoms: N_19  and  C_20
REMARK    5  A    between atoms: C_20  and  C_21
REMARK                            x       y       z     vdW  Elec       q    Type
REMARK                         _______ _______ _______ _____ _____    ______ ____
ROOT
ATOM      1  C   UNL     1      -1.293  -0.775   0.011  0.00  0.00    +0.104 C 
ATOM      2  C   UNL     1      -1.616  -1.254  -1.409  0.00  0.00    +0.063 C 
ATOM      3  C   UNL     1      -2.966  -1.980  -1.420  0.00  0.00    +0.215 C 
ATOM      4  N   UNL     1      -2.976  -2.980  -0.348  0.00  0.00    -0.238 N 
ATOM      5  C   UNL     1      -2.124  -2.955   0.719  0.00  0.00    +0.119 A 
ATOM      6  C   UNL     1      -2.403  -4.014   1.504  0.00  0.00    +0.078 A 
ATOM      7  C   UNL     1      -3.469  -4.722   0.902  0.00  0.00    +0.149 A 
ATOM      8  N   UNL     1      -3.805  -4.092  -0.210  0.00  0.00    -0.164 NA
ATOM      9  N   UNL     1      -1.162  -1.954   0.890  0.00  0.00    -0.322 N 
ATOM     10  H   UNL     1      -0.450  -2.030   1.544  0.00  0.00    +0.148 HD
ENDROOT
BRANCH   1  16
ATOM     11  C   UNL     1      -0.017   1.378   0.010  0.00  0.00    +0.007 A 
ATOM     12  C   UNL     1       1.171   2.086   0.002  0.00  0.00    +0.020 A 
ATOM     13  C   UNL     1       2.378   1.410  -0.013  0.00  0.00    +0.041 A 
ATOM     14  C   UNL     1       2.396   0.027  -0.021  0.00  0.00    +0.020 A 
ATOM     15  C   UNL     1       1.208  -0.679  -0.013  0.00  0.00    +0.007 A 
ATOM     16  C   UNL     1       0.002  -0.004   0.002  0.00  0.00    -0.027 A 
ATOM     17 CL   UNL     1       3.870   2.298  -0.023  0.00  0.00    -0.084 Cl
ENDBRANCH   1  16
BRANCH   7  18
ATOM     18  C   UNL     1      -4.096  -5.953   1.425  0.00  0.00    +0.264 C 
ATOM     19  O   UNL     1      -3.699  -6.444   2.464  0.00  0.00    -0.268 OA
ATOM     20  N   UNL     1      -5.110  -6.531   0.751  0.00  0.00    -0.310 N 
ATOM     21  H   UNL     1      -5.427  -6.140  -0.078  0.00  0.00    +0.149 HD
BRANCH  20  22
ATOM     22  C   UNL     1      -5.732  -7.752   1.269  0.00  0.00    +0.111 C 
BRANCH  22  23
ATOM     23  C   UNL     1      -6.848  -8.198   0.321  0.00  0.00    -0.013 C 
ATOM     24  C   UNL     1      -7.901  -7.093   0.217  0.00  0.00    +0.012 C 
ATOM     25  C   UNL     1      -9.016  -7.539  -0.731  0.00  0.00    -0.010 C 
ATOM     26  C   UNL     1      -9.666  -8.813  -0.189  0.00  0.00    +0.007 C 
ATOM     27  C   UNL     1      -8.613  -9.919  -0.085  0.00  0.00    -0.010 C 
ATOM     28  C   UNL     1      -7.498  -9.473   0.863  0.00  0.00    +0.012 C 
ATOM     29  C   UNL     1      -8.025 -10.195  -1.470  0.00  0.00    +0.007 C 
ATOM     30  C   UNL     1      -7.374  -8.921  -2.011  0.00  0.00    -0.010 C 
ATOM     31  C   UNL     1      -8.427  -7.816  -2.116  0.00  0.00    +0.007 C 
ATOM     32  C   UNL     1      -6.259  -8.475  -1.064  0.00  0.00    +0.012 C 
ENDBRANCH  22  23
ENDBRANCH  20  22
ENDBRANCH   7  18
BRANCH   3  33
ATOM     33  C   UNL     1      -3.166  -2.670  -2.771  0.00  0.00    +0.412 C 
ATOM     34  F   UNL     1      -2.138  -3.597  -2.977  0.00  0.00    -0.168 F 
ATOM     35  F   UNL     1      -4.398  -3.332  -2.779  0.00  0.00    -0.168 F 
ATOM     36  F   UNL     1      -3.143  -1.714  -3.791  0.00  0.00    -0.168 F 
ENDBRANCH   3  33
TORSDOF 5
