REMARK  Name = ZINC19500436
REMARK  8 active torsions:
REMARK  status: ('A' for Active; 'I' for Inactive)
REMARK    1  A    between atoms: C_1  and  C_2
REMARK    2  A    between atoms: C_2  and  C_3
REMARK    3  A    between atoms: C_3  and  C_5
REMARK    4  A    between atoms: C_3  and  N_12
REMARK    5  A    between atoms: C_14  and  C_17
REMARK    6  A    between atoms: C_24  and  C_26
REMARK    7  A    between atoms: C_26  and  C_27
REMARK    8  A    between atoms: C_27  and  N_28
REMARK                            x       y       z     vdW  Elec       q    Type
REMARK                         _______ _______ _______ _____ _____    ______ ____
ROOT
ATOM      1  C   UNL     1      -1.923   4.898   4.146  0.00  0.00    +0.269 C 
ATOM      2  O   UNL     1      -2.144   5.909   3.508  0.00  0.00    -0.268 OA
ATOM      3  N   UNL     1      -1.755   4.967   5.482  0.00  0.00    -0.293 N 
ATOM      4  C   UNL     1      -1.622   3.744   6.284  0.00  0.00    +0.108 C 
ATOM      5  C   UNL     1      -2.656   3.780   7.414  0.00  0.00    +0.019 C 
ATOM      6  C   UNL     1      -2.489   5.076   8.211  0.00  0.00    +0.003 C 
ATOM      7  C   UNL     1      -2.733   6.276   7.294  0.00  0.00    +0.022 C 
ATOM      8  C   UNL     1      -1.694   6.268   6.162  0.00  0.00    +0.075 C 
ENDROOT
BRANCH   1  11
ATOM      9  N   UNL     1      -1.911   2.055   1.919  0.00  0.00    -0.244 N 
ATOM     10  C   UNL     1      -2.102   3.371   2.137  0.00  0.00    +0.144 A 
ATOM     11  C   UNL     1      -1.839   3.595   3.459  0.00  0.00    +0.167 A 
ATOM     12  N   UNL     1      -1.487   2.429   4.026  0.00  0.00    -0.125 NA
ATOM     13  N   UNL     1      -1.518   1.494   3.142  0.00  0.00    -0.064 NA
BRANCH   9  14
ATOM     14  C   UNL     1      -2.076   1.348   0.646  0.00  0.00    +0.138 C 
BRANCH  14  15
ATOM     15  C   UNL     1      -3.171   2.005  -0.155  0.00  0.00    -0.023 A 
ATOM     16  C   UNL     1      -2.985   3.275  -0.668  0.00  0.00    +0.008 A 
ATOM     17  C   UNL     1      -3.986   3.876  -1.407  0.00  0.00    +0.038 A 
ATOM     18  C   UNL     1      -5.180   3.210  -1.624  0.00  0.00    +0.123 A 
ATOM     19  C   UNL     1      -5.368   1.940  -1.105  0.00  0.00    +0.038 A 
ATOM     20  C   UNL     1      -4.363   1.339  -0.371  0.00  0.00    +0.008 A 
ATOM     21  F   UNL     1      -6.162   3.798  -2.342  0.00  0.00    -0.205 F 
ENDBRANCH  14  15
BRANCH  14  23
ATOM     22  C   UNL     1       0.316   0.628   0.615  0.00  0.00    +0.006 C 
ATOM     23  C   UNL     1      -0.766   1.402  -0.141  0.00  0.00    +0.028 C 
ENDBRANCH  14  23
ENDBRANCH   9  14
ENDBRANCH   1  11
BRANCH   8  24
ATOM     24  C   UNL     1      -2.011   7.384   5.165  0.00  0.00    +0.004 C 
BRANCH  24  25
ATOM     25  C   UNL     1      -1.946   8.737   5.875  0.00  0.00    -0.077 C 
BRANCH  25  26
ATOM     26  N   UNL     1      -2.254   9.808   4.918  0.00  0.00    +0.380 N 
ATOM     27  C   UNL     1      -3.535   9.542   4.215  0.00  0.00    -0.079 C 
ATOM     28  C   UNL     1      -3.949  10.940   3.691  0.00  0.00    -0.020 C 
ATOM     29  C   UNL     1      -3.515  11.882   4.837  0.00  0.00    -0.020 C 
ATOM     30  C   UNL     1      -2.436  11.102   5.611  0.00  0.00    -0.079 C 
ATOM     31  H   UNL     1      -1.404   9.840   4.221  0.00  0.00    -0.082 HD
ENDBRANCH  25  26
ENDBRANCH  24  25
ENDBRANCH   8  24
TORSDOF 7
