REMARK  Name = ZINC12849159
REMARK  7 active torsions:
REMARK  status: ('A' for Active; 'I' for Inactive)
REMARK    1  A    between atoms: C_1  and  O_2
REMARK    2  A    between atoms: O_2  and  C_3
REMARK    3  A    between atoms: C_6  and  C_11
REMARK    4  A    between atoms: C_8  and  O_9
REMARK    5  A    between atoms: O_9  and  C_10
REMARK    6  A    between atoms: C_14  and  C_34
REMARK    7  A    between atoms: C_19  and  C_21
REMARK                            x       y       z     vdW  Elec       q    Type
REMARK                         _______ _______ _______ _____ _____    ______ ____
ROOT
ATOM      1  C   UNL     1       2.372  -2.798   4.315  0.00  0.00    +0.104 C 
ATOM      2  C   UNL     1       1.503  -2.864   5.576  0.00  0.00    +0.063 C 
ATOM      3  C   UNL     1       1.227  -1.448   6.095  0.00  0.00    +0.215 C 
ATOM      4  N   UNL     1       2.496  -0.720   6.183  0.00  0.00    -0.238 N 
ATOM      5  C   UNL     1       3.630  -1.089   5.515  0.00  0.00    +0.119 A 
ATOM      6  C   UNL     1       4.603  -0.209   5.823  0.00  0.00    +0.078 A 
ATOM      7  C   UNL     1       4.054   0.741   6.714  0.00  0.00    +0.149 A 
ATOM      8  N   UNL     1       2.788   0.425   6.923  0.00  0.00    -0.164 NA
ATOM      9  N   UNL     1       3.676  -2.206   4.670  0.00  0.00    -0.322 N 
ATOM     10  H   UNL     1       4.513  -2.570   4.339  0.00  0.00    +0.148 HD
ENDROOT
BRANCH   7  11
ATOM     11  C   UNL     1       4.771   1.887   7.308  0.00  0.00    +0.271 C 
ATOM     12  O   UNL     1       5.925   2.110   6.997  0.00  0.00    -0.268 OA
ATOM     13  N   UNL     1       4.145   2.687   8.195  0.00  0.00    -0.266 N 
ATOM     14  C   UNL     1       2.765   2.404   8.612  0.00  0.00    +0.114 C 
ATOM     15  C   UNL     1       1.990   3.728   8.595  0.00  0.00    +0.024 C 
ATOM     16  C   UNL     1       2.606   4.674   9.626  0.00  0.00    +0.038 C 
ATOM     17  C   UNL     1       4.095   4.775   9.425  0.00  0.00    -0.026 A 
ATOM     18  C   UNL     1       4.803   3.798   8.739  0.00  0.00    +0.040 A 
ATOM     19  C   UNL     1       6.178   3.916   8.580  0.00  0.00    +0.024 A 
ATOM     20  C   UNL     1       6.844   5.005   9.106  0.00  0.00    +0.002 A 
ATOM     21  C   UNL     1       6.141   5.978   9.792  0.00  0.00    +0.000 A 
ATOM     22  C   UNL     1       4.769   5.867   9.944  0.00  0.00    +0.005 A 
ENDBRANCH   7  11
BRANCH   1  26
ATOM     23  C   UNL     1       0.448  -0.364   1.371  0.00  0.00    +0.162 A 
ATOM     24  C   UNL     1       1.144   0.225   2.414  0.00  0.00    +0.050 A 
ATOM     25  C   UNL     1       1.765  -0.564   3.364  0.00  0.00    +0.009 A 
ATOM     26  C   UNL     1       1.693  -1.942   3.276  0.00  0.00    -0.024 A 
ATOM     27  C   UNL     1       1.000  -2.537   2.239  0.00  0.00    +0.054 A 
ATOM     28  C   UNL     1       0.370  -1.751   1.286  0.00  0.00    +0.162 A 
BRANCH  23  30
ATOM     29  C   UNL     1      -0.042   1.826   0.586  0.00  0.00    +0.277 C 
ATOM     30  O   UNL     1      -0.164   0.411   0.436  0.00  0.00    -0.491 OA
ENDBRANCH  23  30
BRANCH  28  31
ATOM     31  O   UNL     1      -0.317  -2.334   0.268  0.00  0.00    -0.491 OA
ATOM     32  C   UNL     1      -0.354  -3.763   0.245  0.00  0.00    +0.277 C 
ENDBRANCH  28  31
ENDBRANCH   1  26
BRANCH   3  33
ATOM     33  C   UNL     1       0.581  -1.527   7.479  0.00  0.00    +0.412 C 
ATOM     34  F   UNL     1       1.491  -2.077   8.388  0.00  0.00    -0.168 F 
ATOM     35  F   UNL     1       0.221  -0.242   7.899  0.00  0.00    -0.168 F 
ATOM     36  F   UNL     1      -0.561  -2.333   7.415  0.00  0.00    -0.168 F 
ENDBRANCH   3  33
TORSDOF 5
