REMARK  Name = ZINC39620534
REMARK  7 active torsions:
REMARK  status: ('A' for Active; 'I' for Inactive)
REMARK    1  A    between atoms: C_1  and  C_2
REMARK    2  A    between atoms: C_4  and  C_12
REMARK    3  A    between atoms: C_12  and  C_14
REMARK    4  A    between atoms: C_14  and  C_16
REMARK    5  A    between atoms: C_14  and  N_17
REMARK    6  A    between atoms: N_20  and  S_23
REMARK    7  A    between atoms: S_23  and  C_26
REMARK                            x       y       z     vdW  Elec       q    Type
REMARK                         _______ _______ _______ _____ _____    ______ ____
ROOT
ATOM      1  N   UNL     1      -4.754  -0.314  -1.624  0.00  0.00    -0.290 NA
ATOM      2  C   UNL     1      -4.776   1.141  -1.426  0.00  0.00    +0.102 C 
ATOM      3  C   UNL     1      -5.655   1.787  -2.502  0.00  0.00    +0.125 C 
ATOM      4  N   UNL     1      -6.974   1.136  -2.481  0.00  0.00    -0.174 NA
ATOM      5  C   UNL     1      -7.026  -0.333  -2.537  0.00  0.00    +0.125 C 
ATOM      6  C   UNL     1      -6.093  -0.895  -1.459  0.00  0.00    +0.102 C 
ENDROOT
BRANCH   4   7
ATOM      7  S   UNL     1      -8.363   2.033  -2.396  0.00  0.00    +0.061 S 
ATOM      8  O   UNL     1      -9.361   1.185  -1.841  0.00  0.00    -0.153 OA
ATOM      9  O   UNL     1      -8.008   3.277  -1.808  0.00  0.00    -0.153 OA
BRANCH   7  10
ATOM     10  C   UNL     1      -8.861   2.381  -4.050  0.00  0.00    +0.108 A 
ATOM     11  C   UNL     1      -8.401   3.520  -4.684  0.00  0.00    +0.031 A 
ATOM     12  C   UNL     1      -8.790   3.796  -5.981  0.00  0.00    +0.043 A 
ATOM     13  C   UNL     1      -9.640   2.930  -6.647  0.00  0.00    +0.159 A 
ATOM     14  C   UNL     1     -10.101   1.787  -6.011  0.00  0.00    +0.160 A 
ATOM     15  C   UNL     1      -9.706   1.512  -4.714  0.00  0.00    +0.069 A 
ATOM     16  F   UNL     1     -10.931   0.941  -6.659  0.00  0.00    -0.202 F 
ATOM     17  F   UNL     1     -10.021   3.199  -7.915  0.00  0.00    -0.202 F 
ENDBRANCH   7  10
ENDBRANCH   4   7
BRANCH   1  18
ATOM     18  C   UNL     1      -3.787  -0.953  -0.721  0.00  0.00    +0.125 C 
ATOM     19  C   UNL     1      -3.714  -2.450  -1.030  0.00  0.00    +0.032 C 
BRANCH  18  20
ATOM     20  C   UNL     1      -2.428  -0.333  -0.919  0.00  0.00    +0.179 C 
ATOM     21  O   UNL     1      -2.209   0.349  -1.899  0.00  0.00    -0.291 OA
BRANCH  20  24
ATOM     22  C   UNL     1      -0.019   1.526   0.010  0.00  0.00    +0.035 C 
ATOM     23  C   UNL     1       0.002  -0.004   0.002  0.00  0.00    +0.111 C 
ATOM     24  C   UNL     1      -1.411  -0.544   0.036  0.00  0.00    +0.027 C 
ATOM     25  C   UNL     1      -1.496  -1.289   1.198  0.00  0.00    +0.006 A 
ATOM     26  C   UNL     1      -2.543  -2.035   1.788  0.00  0.00    +0.010 A 
ATOM     27  C   UNL     1      -2.344  -2.680   2.960  0.00  0.00    +0.001 A 
ATOM     28  C   UNL     1      -1.116  -2.646   3.640  0.00  0.00    +0.002 A 
ATOM     29  C   UNL     1      -0.053  -1.963   3.162  0.00  0.00    +0.026 A 
ATOM     30  C   UNL     1      -0.185  -1.232   1.891  0.00  0.00    +0.043 A 
ATOM     31  N   UNL     1       0.660  -0.506   1.212  0.00  0.00    -0.377 N 
ATOM     32  H   UNL     1       1.578  -0.327   1.468  0.00  0.00    +0.160 HD
ENDBRANCH  20  24
ENDBRANCH  18  20
ENDBRANCH   1  18
TORSDOF 5
