REMARK  Name = ZINC43548663
REMARK  8 active torsions:
REMARK  status: ('A' for Active; 'I' for Inactive)
REMARK    1  A    between atoms: C_1  and  C_2
REMARK    2  A    between atoms: N_9  and  C_10
REMARK    3  A    between atoms: C_18  and  C_37
REMARK    4  A    between atoms: C_21  and  O_36
REMARK    5  A    between atoms: C_23  and  C_27
REMARK    6  A    between atoms: C_27  and  C_29
REMARK    7  A    between atoms: C_27  and  C_30
REMARK    8  A    between atoms: N_32  and  C_33
REMARK                            x       y       z     vdW  Elec       q    Type
REMARK                         _______ _______ _______ _____ _____    ______ ____
ROOT
ATOM      1  C   UNL     1      -0.210   1.696   0.109  0.00  0.00    +0.014 C 
ATOM      2  C   UNL     1      -0.161   0.169   0.048  0.00  0.00    +0.042 C 
ATOM      3  C   UNL     1      -1.563  -0.393   0.231  0.00  0.00    +0.057 A 
ATOM      4  C   UNL     1      -1.944  -0.912   1.425  0.00  0.00    +0.015 A 
ATOM      5  S   UNL     1      -3.615  -1.411   1.112  0.00  0.00    -0.057 S 
ATOM      6  C   UNL     1      -3.692  -0.925  -0.499  0.00  0.00    +0.163 A 
ATOM      7  N   UNL     1      -2.494  -0.425  -0.718  0.00  0.00    -0.229 NA
ATOM      8  N   UNL     1      -4.757  -1.028  -1.381  0.00  0.00    -0.294 N 
ATOM      9  C   UNL     1      -1.137  -1.022   2.672  0.00  0.00    +0.051 C 
ATOM     10  C   UNL     1       0.104  -0.120   2.538  0.00  0.00    -0.022 C 
ATOM     11  C   UNL     1       0.740  -0.357   1.161  0.00  0.00    +0.033 C 
ATOM     12  C   UNL     1       1.004  -1.851   0.981  0.00  0.00    +0.123 C 
ATOM     13  C   UNL     1       1.988  -2.319   2.057  0.00  0.00    +0.029 C 
ATOM     14  C   UNL     1       1.405  -2.048   3.444  0.00  0.00    +0.007 C 
ATOM     15  C   UNL     1       1.117  -0.552   3.609  0.00  0.00    +0.008 C 
ATOM     16  C   UNL     1      -0.277   1.350   2.721  0.00  0.00    +0.012 C 
ATOM     17  H   UNL     1      -4.640  -0.789  -2.314  0.00  0.00    +0.154 HD
ENDROOT
BRANCH   8  18
ATOM     18  C   UNL     1      -6.001  -1.476  -0.925  0.00  0.00    +0.033 A 
ATOM     19  C   UNL     1      -6.814  -2.236  -1.756  0.00  0.00    +0.026 A 
ATOM     20  C   UNL     1      -8.042  -2.678  -1.304  0.00  0.00    +0.040 A 
ATOM     21  C   UNL     1      -8.463  -2.363  -0.022  0.00  0.00    +0.124 A 
ATOM     22  C   UNL     1      -7.654  -1.605   0.808  0.00  0.00    +0.040 A 
ATOM     23  C   UNL     1      -6.423  -1.166   0.361  0.00  0.00    +0.026 A 
ATOM     24  F   UNL     1      -9.664  -2.796   0.418  0.00  0.00    -0.205 F 
ENDBRANCH   8  18
BRANCH  13  25
ATOM     25  C   UNL     1       2.242  -3.819   1.897  0.00  0.00    +0.077 C 
ATOM     26  C   UNL     1       3.225  -4.288   2.972  0.00  0.00    +0.017 C 
BRANCH  25  27
ATOM     27  C   UNL     1       2.823  -4.088   0.533  0.00  0.00    +0.216 C 
ATOM     28  O   UNL     1       3.016  -3.170  -0.236  0.00  0.00    -0.276 OA
ATOM     29  N   UNL     1       3.129  -5.348   0.167  0.00  0.00    -0.312 N 
ATOM     30  H   UNL     1       2.975  -6.083   0.782  0.00  0.00    +0.149 HD
BRANCH  29  31
ATOM     31  C   UNL     1       3.695  -5.610  -1.159  0.00  0.00    +0.073 C 
ATOM     32  C   UNL     1       3.143  -6.805  -1.939  0.00  0.00    +0.024 C 
ATOM     33  C   UNL     1       4.544  -6.871  -1.329  0.00  0.00    +0.024 C 
ENDBRANCH  29  31
ENDBRANCH  25  27
ENDBRANCH  13  25
BRANCH  12  34
ATOM     34  O   UNL     1      -0.223  -2.573   1.107  0.00  0.00    -0.391 OA
ATOM     35  H   UNL     1      -0.129  -3.530   1.003  0.00  0.00    +0.210 HD
ENDBRANCH  12  34
TORSDOF 5
