REMARK  Name = ZINC64006941
REMARK  8 active torsions:
REMARK  status: ('A' for Active; 'I' for Inactive)
REMARK    1  A    between atoms: C_1  and  C_2
REMARK    2  A    between atoms: C_3  and  C_8
REMARK    3  A    between atoms: C_4  and  C_7
REMARK    4  A    between atoms: C_8  and  C_9
REMARK    5  A    between atoms: C_24  and  C_26
REMARK    6  A    between atoms: C_26  and  C_27
REMARK    7  A    between atoms: C_27  and  C_28
REMARK    8  A    between atoms: C_27  and  C_29
REMARK                            x       y       z     vdW  Elec       q    Type
REMARK                         _______ _______ _______ _____ _____    ______ ____
ROOT
ATOM      1  C   UNL     1       1.484  -0.229  -2.966  0.00  0.00    +0.220 C 
ATOM      2  O   UNL     1       2.449  -0.397  -2.250  0.00  0.00    -0.275 OA
ATOM      3  N   UNL     1       1.651   0.178  -4.239  0.00  0.00    -0.296 N 
ATOM      4  C   UNL     1       0.479   0.384  -5.095  0.00  0.00    +0.112 C 
ATOM      5  C   UNL     1       0.595  -0.504  -6.347  0.00  0.00    +0.052 C 
ATOM      6  C   UNL     1       2.007  -0.351  -6.856  0.00  0.00    -0.035 C 
ATOM      7  C   UNL     1       2.479  -0.049  -8.060  0.00  0.00    -0.001 A 
ATOM      8  C   UNL     1       1.807   0.139  -9.356  0.00  0.00    +0.010 A 
ATOM      9  C   UNL     1       2.608   0.469 -10.403  0.00  0.00    +0.001 A 
ATOM     10  C   UNL     1       3.993   0.629 -10.293  0.00  0.00    +0.002 A 
ATOM     11  C   UNL     1       4.694   0.467  -9.142  0.00  0.00    +0.026 A 
ATOM     12  C   UNL     1       3.962   0.111  -7.972  0.00  0.00    +0.043 A 
ATOM     13  N   UNL     1       4.374  -0.126  -6.762  0.00  0.00    -0.376 N 
ATOM     14  C   UNL     1       3.222  -0.523  -5.952  0.00  0.00    +0.127 C 
ATOM     15  C   UNL     1       3.009   0.417  -4.754  0.00  0.00    +0.103 C 
ATOM     16  H   UNL     1       5.289  -0.052  -6.449  0.00  0.00    +0.160 HD
ENDROOT
BRANCH   1  17
ATOM     17  C   UNL     1       0.097  -0.476  -2.430  0.00  0.00    +0.136 C 
BRANCH  17  20
ATOM     18  C   UNL     1       0.066   1.426   0.114  0.00  0.00    +0.069 C 
ATOM     19  C   UNL     1       0.172  -0.077   0.134  0.00  0.00    +0.084 A 
ATOM     20  C   UNL     1       0.185  -0.920  -0.992  0.00  0.00    +0.026 A 
ATOM     21  C   UNL     1       0.291  -2.192  -0.562  0.00  0.00    +0.138 A 
ATOM     22  O   UNL     1       0.343  -2.174   0.778  0.00  0.00    -0.359 OA
ATOM     23  N   UNL     1       0.272  -0.823   1.198  0.00  0.00    -0.083 NA
ATOM     24  C   UNL     1       0.342  -3.420  -1.434  0.00  0.00    +0.089 C 
ENDBRANCH  17  20
ENDBRANCH   1  17
BRANCH  15  25
ATOM     25  C   UNL     1       3.144   1.873  -5.204  0.00  0.00    +0.028 C 
BRANCH  25  26
ATOM     26  C   UNL     1       3.014   2.795  -3.990  0.00  0.00    -0.015 C 
ATOM     27  C   UNL     1       4.200   2.571  -3.050  0.00  0.00    +0.007 C 
ATOM     28  C   UNL     1       3.000   4.253  -4.455  0.00  0.00    +0.007 C 
ENDBRANCH  25  26
ENDBRANCH  15  25
TORSDOF 4
