REMARK  Name = ZINC60379319
REMARK  10 active torsions:
REMARK  status: ('A' for Active; 'I' for Inactive)
REMARK    1  A    between atoms: C_1  and  C_2
REMARK    2  A    between atoms: C_2  and  O_3
REMARK    3  A    between atoms: O_3  and  C_4
REMARK    4  A    between atoms: C_4  and  C_6
REMARK    5  A    between atoms: C_10  and  N_11
REMARK    6  A    between atoms: C_12  and  C_14
REMARK    7  A    between atoms: C_14  and  N_15
REMARK    8  A    between atoms: C_18  and  C_22
REMARK    9  A    between atoms: C_18  and  C_23
REMARK   10  A    between atoms: C_30  and  C_34
REMARK                            x       y       z     vdW  Elec       q    Type
REMARK                         _______ _______ _______ _____ _____    ______ ____
ROOT
ATOM      1  N   UNL     1      -3.034  -2.523   2.498  0.00  0.00    -0.278 N 
ATOM      2  C   UNL     1      -3.809  -2.866   3.546  0.00  0.00    +0.236 C 
ATOM      3  O   UNL     1      -4.910  -3.338   3.357  0.00  0.00    -0.274 OA
ATOM      4  H   UNL     1      -2.153  -2.146   2.650  0.00  0.00    +0.155 HD
ENDROOT
BRANCH   1   9
ATOM      5  C   UNL     1      -2.842  -2.416   0.016  0.00  0.00    +0.091 A 
ATOM      6  C   UNL     1      -3.548  -2.714  -1.219  0.00  0.00    -0.021 A 
ATOM      7  C   UNL     1      -4.777  -3.243  -1.039  0.00  0.00    -0.004 A 
ATOM      8  S   UNL     1      -4.974  -3.336   0.716  0.00  0.00    -0.077 S 
ATOM      9  C   UNL     1      -3.495  -2.708   1.205  0.00  0.00    +0.086 A 
ATOM     10  C   UNL     1      -5.743  -3.656  -2.106  0.00  0.00    +0.046 C 
ATOM     11  C   UNL     1      -4.984  -3.738  -3.439  0.00  0.00    -0.009 C 
ATOM     12  C   UNL     1      -4.148  -2.467  -3.612  0.00  0.00    +0.008 C 
ATOM     13  C   UNL     1      -2.989  -2.466  -2.612  0.00  0.00    +0.037 C 
ATOM     14  C   UNL     1      -5.983  -3.859  -4.591  0.00  0.00    +0.008 C 
BRANCH   5  15
ATOM     15  C   UNL     1      -1.497  -1.838   0.006  0.00  0.00    +0.342 C 
ATOM     16  O   UNL     1      -0.523  -2.566  -0.007  0.00  0.00    -0.245 OA
BRANCH  15  17
ATOM     17  O   UNL     1      -1.339  -0.499   0.012  0.00  0.00    -0.461 OA
BRANCH  17  19
ATOM     18  C   UNL     1      -0.019   1.526   0.010  0.00  0.00    +0.048 C 
ATOM     19  C   UNL     1       0.002  -0.004   0.002  0.00  0.00    +0.229 C 
ENDBRANCH  17  19
ENDBRANCH  15  17
ENDBRANCH   5  15
ENDBRANCH   1   9
BRANCH   2  20
ATOM     20  C   UNL     1      -3.307  -2.665   4.953  0.00  0.00    +0.214 C 
BRANCH  20  21
ATOM     21  N   UNL     1      -4.327  -3.112   5.904  0.00  0.00    -0.215 N 
ATOM     22  C   UNL     1      -5.297  -2.321   6.402  0.00  0.00    +0.253 C 
ATOM     23  O   UNL     1      -5.484  -1.148   6.156  0.00  0.00    -0.272 OA
ATOM     24  C   UNL     1      -6.108  -3.201   7.332  0.00  0.00    +0.152 C 
ATOM     25  N   UNL     1      -5.437  -4.510   7.242  0.00  0.00    -0.280 N 
ATOM     26  C   UNL     1      -4.414  -4.359   6.382  0.00  0.00    +0.310 C 
ATOM     27  O   UNL     1      -3.651  -5.255   6.075  0.00  0.00    -0.252 OA
ATOM     28  C   UNL     1      -7.556  -3.305   6.850  0.00  0.00    +0.048 C 
ATOM     29  H   UNL     1      -5.686  -5.322   7.709  0.00  0.00    +0.152 HD
BRANCH  24  30
ATOM     30  C   UNL     1      -6.054  -2.674   8.743  0.00  0.00    +0.073 A 
ATOM     31  C   UNL     1      -6.639  -3.397   9.765  0.00  0.00    +0.026 A 
ATOM     32  C   UNL     1      -6.584  -2.902  11.059  0.00  0.00    +0.003 A 
ATOM     33  C   UNL     1      -5.939  -1.695  11.277  0.00  0.00    +0.020 A 
ATOM     34  C   UNL     1      -5.377  -1.028  10.205  0.00  0.00    +0.111 A 
ATOM     35  N   UNL     1      -5.444  -1.531   8.988  0.00  0.00    -0.257 NA
ENDBRANCH  24  30
ENDBRANCH  20  21
ENDBRANCH   2  20
TORSDOF 7
