REMARK  Name = ZINC20681452
REMARK  6 active torsions:
REMARK  status: ('A' for Active; 'I' for Inactive)
REMARK    1  A    between atoms: C_1  and  C_2
REMARK    2  A    between atoms: C_2  and  O_3
REMARK    3  A    between atoms: O_3  and  C_4
REMARK    4  A    between atoms: C_17  and  C_20
REMARK    5  A    between atoms: C_23  and  O_27
REMARK    6  A    between atoms: C_25  and  O_26
REMARK                            x       y       z     vdW  Elec       q    Type
REMARK                         _______ _______ _______ _____ _____    ______ ____
ROOT
ATOM      1  C   UNL     1       6.034  -2.137   1.510  0.00  0.00    +0.121 A 
ATOM      2  C   UNL     1       6.073  -2.357   0.141  0.00  0.00    +0.047 A 
ATOM      3  C   UNL     1       4.895  -2.528  -0.556  0.00  0.00    +0.027 A 
ATOM      4  C   UNL     1       3.677  -2.481   0.111  0.00  0.00    +0.032 A 
ATOM      5  C   UNL     1       3.631  -2.263   1.478  0.00  0.00    -0.016 A 
ATOM      6  C   UNL     1       4.820  -2.090   2.173  0.00  0.00    +0.051 A 
ATOM      7  C   UNL     1       2.343  -2.208   2.237  0.00  0.00    +0.049 C 
ATOM      8  C   UNL     1       1.977  -0.789   2.603  0.00  0.00    -0.023 C 
ATOM      9  C   UNL     1       0.673  -0.625   2.535  0.00  0.00    -0.030 C 
ATOM     10  C   UNL     1      -0.005  -1.915   2.117  0.00  0.00    +0.033 C 
ATOM     11  C   UNL     1       1.136  -2.709   1.415  0.00  0.00    +0.029 C 
ATOM     12  C   UNL     1       1.235  -2.187  -0.021  0.00  0.00    +0.108 C 
ATOM     13  N   UNL     1       2.491  -2.657  -0.615  0.00  0.00    -0.336 N 
ATOM     14  H   UNL     1       2.486  -3.135  -1.606  0.00  0.00    +0.147 HD
ENDROOT
BRANCH  12  15
ATOM     15  C   UNL     1       1.214  -0.680  -0.013  0.00  0.00    +0.015 A 
ATOM     16  C   UNL     1       2.396   0.026   0.094  0.00  0.00    +0.012 A 
ATOM     17  C   UNL     1       2.380   1.408   0.102  0.00  0.00    +0.046 A 
ATOM     18  C   UNL     1       1.175   2.089   0.002  0.00  0.00    +0.120 A 
ATOM     19  C   UNL     1      -0.012   1.383  -0.105  0.00  0.00    +0.091 A 
ATOM     20  C   UNL     1       0.006  -0.003  -0.113  0.00  0.00    +0.125 A 
BRANCH  20  21
ATOM     21  O   UNL     1      -1.156  -0.699  -0.219  0.00  0.00    -0.506 OA
ATOM     22  H   UNL     1      -2.113  -0.162  -0.298  0.00  0.00    +0.292 HD
ENDBRANCH  20  21
BRANCH  18  23
ATOM     23  O   UNL     1       1.160   3.448   0.009  0.00  0.00    -0.507 OA
ATOM     24  H   UNL     1       0.205   3.988  -0.070  0.00  0.00    +0.292 HD
ENDBRANCH  18  23
ENDBRANCH  12  15
BRANCH   1  25
ATOM     25  O   UNL     1       7.192  -1.967   2.203  0.00  0.00    -0.492 OA
BRANCH  25  27
ATOM     26  C   UNL     1       9.596  -1.816   2.400  0.00  0.00    +0.048 C 
ATOM     27  C   UNL     1       8.410  -2.028   1.457  0.00  0.00    +0.225 C 
ENDBRANCH  25  27
ENDBRANCH   1  25
TORSDOF 5
