REMARK  Name = ZINC14855214
REMARK  11 active torsions:
REMARK  status: ('A' for Active; 'I' for Inactive)
REMARK    1  A    between atoms: C_1  and  C_2
REMARK    2  A    between atoms: N_5  and  S_11
REMARK    3  A    between atoms: C_7  and  C_10
REMARK    4  A    between atoms: S_11  and  C_14
REMARK    5  A    between atoms: C_17  and  C_20
REMARK    6  A    between atoms: N_22  and  C_23
REMARK    7  A    between atoms: C_23  and  C_25
REMARK    8  A    between atoms: C_23  and  C_36
REMARK    9  A    between atoms: C_25  and  C_26
REMARK   10  A    between atoms: C_36  and  O_38
REMARK   11  A    between atoms: O_38  and  C_39
REMARK                            x       y       z     vdW  Elec       q    Type
REMARK                         _______ _______ _______ _____ _____    ______ ____
ROOT
ATOM      1  C   UNL     1       1.806  -1.833  -6.340  0.00  0.00    +0.245 C 
ATOM      2  O   UNL     1       1.075  -2.143  -7.260  0.00  0.00    -0.270 OA
ATOM      3  N   UNL     1       3.007  -2.428  -6.204  0.00  0.00    -0.298 N 
ATOM      4  H   UNL     1       3.669  -2.148  -5.371  0.00  0.00    +0.150 HD
ENDROOT
BRANCH   1   8
ATOM      5  C   UNL     1       0.576   1.129  -3.554  0.00  0.00    +0.106 A 
ATOM      6  C   UNL     1       1.812   0.523  -3.414  0.00  0.00    +0.029 A 
ATOM      7  C   UNL     1       2.215  -0.444  -4.313  0.00  0.00    +0.015 A 
ATOM      8  C   UNL     1       1.378  -0.802  -5.370  0.00  0.00    +0.037 A 
ATOM      9  C   UNL     1       0.134  -0.184  -5.508  0.00  0.00    +0.015 A 
ATOM     10  C   UNL     1      -0.259   0.777  -4.600  0.00  0.00    +0.029 A 
BRANCH   5  11
ATOM     11  S   UNL     1       0.066   2.357  -2.399  0.00  0.00    +0.061 S 
ATOM     12  O   UNL     1      -0.896   3.165  -3.063  0.00  0.00    -0.153 OA
ATOM     13  O   UNL     1       1.251   2.897  -1.830  0.00  0.00    -0.153 OA
BRANCH  11  17
ATOM     14  C   UNL     1      -4.289   1.452   0.112  0.00  0.00    +0.039 C 
ATOM     15  C   UNL     1      -2.811   1.844   0.072  0.00  0.00    +0.131 C 
ATOM     16  C   UNL     1      -2.188   1.357  -1.242  0.00  0.00    +0.140 C 
ATOM     17  N   UNL     1      -0.734   1.578  -1.176  0.00  0.00    -0.172 NA
ATOM     18  C   UNL     1      -0.013   1.086   0.008  0.00  0.00    +0.140 C 
ATOM     19  C   UNL     1      -0.741   1.585   1.261  0.00  0.00    +0.131 C 
ATOM     20  O   UNL     1      -2.125   1.238   1.170  0.00  0.00    -0.371 OA
ATOM     21  C   UNL     1      -0.129   0.932   2.502  0.00  0.00    +0.039 C 
ENDBRANCH  11  17
ENDBRANCH   5  11
ENDBRANCH   1   8
BRANCH   3  22
ATOM     22  C   UNL     1       3.432  -3.449  -7.165  0.00  0.00    +0.186 C 
BRANCH  22  23
ATOM     23  C   UNL     1       4.059  -2.783  -8.361  0.00  0.00    +0.328 C 
ATOM     24  O   UNL     1       4.143  -1.578  -8.407  0.00  0.00    -0.249 OA
BRANCH  23  25
ATOM     25  O   UNL     1       4.525  -3.527  -9.377  0.00  0.00    -0.467 OA
ATOM     26  C   UNL     1       5.116  -2.818 -10.497  0.00  0.00    +0.280 C 
ENDBRANCH  23  25
ENDBRANCH  22  23
BRANCH  22  27
ATOM     27  C   UNL     1       4.453  -4.378  -6.504  0.00  0.00    +0.071 C 
BRANCH  27  28
ATOM     28  C   UNL     1       3.791  -5.136  -5.383  0.00  0.00    -0.020 A 
ATOM     29  C   UNL     1       3.788  -4.799  -4.083  0.00  0.00    +0.087 A 
ATOM     30  N   UNL     1       3.086  -5.726  -3.362  0.00  0.00    -0.360 N 
ATOM     31  H   UNL     1       2.979  -5.611  -2.274  0.00  0.00    +0.165 HD
ATOM     32  C   UNL     1       2.607  -6.707  -4.202  0.00  0.00    +0.047 A 
ATOM     33  C   UNL     1       3.023  -6.378  -5.505  0.00  0.00    +0.003 A 
ATOM     34  C   UNL     1       2.683  -7.208  -6.575  0.00  0.00    +0.010 A 
ATOM     35  C   UNL     1       1.939  -8.332  -6.352  0.00  0.00    +0.001 A 
ATOM     36  C   UNL     1       1.522  -8.658  -5.069  0.00  0.00    +0.002 A 
ATOM     37  C   UNL     1       1.850  -7.856  -3.998  0.00  0.00    +0.026 A 
ENDBRANCH  27  28
ENDBRANCH  22  27
ENDBRANCH   3  22
TORSDOF 8
