REMARK  Name = ZINC06333785
REMARK  9 active torsions:
REMARK  status: ('A' for Active; 'I' for Inactive)
REMARK    1  A    between atoms: C_3  and  C_7
REMARK    2  A    between atoms: C_10  and  S_13
REMARK    3  A    between atoms: N_11  and  N_12
REMARK    4  A    between atoms: S_13  and  C_14
REMARK    5  A    between atoms: C_14  and  C_15
REMARK    6  A    between atoms: C_15  and  C_16
REMARK    7  A    between atoms: C_16  and  C_17
REMARK    8  A    between atoms: N_19  and  N_20
REMARK    9  A    between atoms: C_21  and  C_22
REMARK                            x       y       z     vdW  Elec       q    Type
REMARK                         _______ _______ _______ _____ _____    ______ ____
ROOT
ATOM      1  S   UNL     1       7.557   2.347   0.340  0.00  0.00    -0.084 S 
ENDROOT
BRANCH   1   5
ATOM      2  C   UNL     1       3.680   2.029  -0.023  0.00  0.00    +0.183 A 
ATOM      3  N   UNL     1       3.891   3.297  -0.286  0.00  0.00    -0.127 NA
ATOM      4  N   UNL     1       5.146   3.560  -0.204  0.00  0.00    -0.121 NA
ATOM      5  C   UNL     1       5.814   2.474   0.116  0.00  0.00    +0.209 A 
ATOM      6  N   UNL     1       4.905   1.464   0.249  0.00  0.00    -0.224 N 
BRANCH   2   9
ATOM      7  C   UNL     1      -0.017   1.379   0.010  0.00  0.00    +0.020 A 
ATOM      8  C   UNL     1       1.181   2.073   0.002  0.00  0.00    +0.014 A 
ATOM      9  C   UNL     1       2.373   1.339  -0.013  0.00  0.00    +0.039 A 
ATOM     10  C   UNL     1       2.306  -0.055  -0.020  0.00  0.00    +0.122 A 
ATOM     11  N   UNL     1       1.141  -0.670  -0.013  0.00  0.00    -0.263 NA
ATOM     12  C   UNL     1       0.002  -0.004   0.002  0.00  0.00    +0.111 A 
ENDBRANCH   2   9
BRANCH   6  13
ATOM     13  N   UNL     1       5.158   0.163   0.579  0.00  0.00    -0.295 N 
ATOM     14  H   UNL     1       5.330  -0.393  -0.245  0.00  0.00    +0.163 HD
ATOM     15  H   UNL     1       5.930   0.098   1.226  0.00  0.00    +0.163 HD
ENDBRANCH   6  13
ENDBRANCH   1   5
BRANCH   1  16
ATOM     16  C   UNL     1       8.163   4.028   0.028  0.00  0.00    +0.078 C 
BRANCH  16  17
ATOM     17  C   UNL     1       9.684   4.060   0.191  0.00  0.00    +0.020 C 
BRANCH  17  18
ATOM     18  C   UNL     1      10.196   5.478  -0.072  0.00  0.00    +0.098 C 
BRANCH  18  19
ATOM     19  C   UNL     1      11.694   5.510   0.089  0.00  0.00    +0.232 C 
ATOM     20  O   UNL     1      12.294   4.497   0.385  0.00  0.00    -0.274 OA
ATOM     21  N   UNL     1      12.367   6.662  -0.096  0.00  0.00    -0.207 N 
ATOM     22  H   UNL     1      11.887   7.472  -0.333  0.00  0.00    +0.177 HD
BRANCH  21  23
ATOM     23  N   UNL     1      13.760   6.692   0.053  0.00  0.00    -0.187 NA
ATOM     24  C   UNL     1      14.409   7.804  -0.126  0.00  0.00    +0.145 C 
BRANCH  24  25
ATOM     25  C   UNL     1      15.867   7.835   0.031  0.00  0.00    +0.032 A 
ATOM     26  C   UNL     1      16.738   8.903  -0.107  0.00  0.00    +0.017 A 
ATOM     27  C   UNL     1      18.080   8.681   0.092  0.00  0.00    +0.008 A 
ATOM     28  C   UNL     1      18.508   7.433   0.415  0.00  0.00    +0.046 A 
ATOM     29  S   UNL     1      16.982   6.507   0.456  0.00  0.00    -0.096 S 
ENDBRANCH  24  25
ENDBRANCH  21  23
ENDBRANCH  18  19
ENDBRANCH  17  18
ENDBRANCH  16  17
ENDBRANCH   1  16
TORSDOF 9
