REMARK  Name = ZINC03398816
REMARK  8 active torsions:
REMARK  status: ('A' for Active; 'I' for Inactive)
REMARK    1  A    between atoms: C_1  and  C_2
REMARK    2  A    between atoms: C_2  and  N_3
REMARK    3  A    between atoms: N_3  and  C_4
REMARK    4  A    between atoms: C_12  and  C_14
REMARK    5  A    between atoms: C_14  and  O_15
REMARK    6  A    between atoms: O_15  and  C_16
REMARK    7  A    between atoms: C_16  and  C_18
REMARK    8  A    between atoms: N_27  and  C_29
REMARK                            x       y       z     vdW  Elec       q    Type
REMARK                         _______ _______ _______ _____ _____    ______ ____
ROOT
ATOM      1  O   UNL     1      -1.309   3.544   0.028  0.00  0.00    -0.451 OA
ENDROOT
BRANCH   1   2
ATOM      2  C   UNL     1      -1.300   2.197   0.020  0.00  0.00    +0.360 C 
ATOM      3  O   UNL     1      -2.348   1.582   0.022  0.00  0.00    -0.243 OA
BRANCH   2   4
ATOM      4  C   UNL     1      -0.018   1.468   0.010  0.00  0.00    +0.176 A 
ATOM      5  C   UNL     1       0.002  -0.004   0.002  0.00  0.00    +0.021 A 
ATOM      6  C   UNL     1      -1.156  -0.773   0.009  0.00  0.00    +0.011 A 
ATOM      7  C   UNL     1      -1.055  -2.148  -0.000  0.00  0.00    +0.001 A 
ATOM      8  C   UNL     1       0.186  -2.771  -0.015  0.00  0.00    +0.001 A 
ATOM      9  C   UNL     1       1.347  -2.026  -0.022  0.00  0.00    +0.014 A 
ATOM     10  C   UNL     1       1.266  -0.637  -0.013  0.00  0.00    +0.050 A 
ATOM     11  C   UNL     1       2.452   0.231  -0.020  0.00  0.00    +0.275 A 
ATOM     12  O   UNL     1       3.572  -0.245  -0.034  0.00  0.00    -0.266 OA
ATOM     13  N   UNL     1       2.270   1.567  -0.011  0.00  0.00    -0.231 N 
ATOM     14  N   UNL     1       1.118   2.123   0.003  0.00  0.00    -0.161 NA
ATOM     15  C   UNL     1       3.455   2.428  -0.018  0.00  0.00    +0.176 C 
ENDBRANCH   2   4
ENDBRANCH   1   2
BRANCH   1  16
ATOM     16  C   UNL     1      -2.607   4.195   0.037  0.00  0.00    +0.328 C 
BRANCH  16  18
ATOM     17  N   UNL     1      -3.494   6.504   0.054  0.00  0.00    -0.294 N 
ATOM     18  C   UNL     1      -2.420   5.690   0.044  0.00  0.00    +0.254 C 
ATOM     19  O   UNL     1      -1.302   6.161   0.042  0.00  0.00    -0.272 OA
BRANCH  17  20
ATOM     20  C   UNL     1      -3.312   7.958   0.061  0.00  0.00    +0.099 C 
ATOM     21  C   UNL     1      -2.507   8.386  -1.177  0.00  0.00    +0.046 C 
ATOM     22  C   UNL     1      -2.036   9.852  -1.019  0.00  0.00    +0.168 C 
ATOM     23  S   UNL     1      -1.909  10.041   0.806  0.00  0.00    -0.029 S 
ATOM     24  O   UNL     1      -2.838  11.027   1.234  0.00  0.00    -0.174 OA
ATOM     25  O   UNL     1      -0.540  10.168   1.164  0.00  0.00    -0.174 OA
ATOM     26  C   UNL     1      -2.514   8.381   1.327  0.00  0.00    +0.188 C 
ENDBRANCH  17  20
BRANCH  17  28
ATOM     27  C   UNL     1      -5.307   5.729   1.501  0.00  0.00    +0.024 C 
ATOM     28  C   UNL     1      -4.844   5.935   0.057  0.00  0.00    +0.105 C 
ENDBRANCH  17  28
ENDBRANCH  16  18
ENDBRANCH   1  16
TORSDOF 6
