REMARK  Name = ZINC02294727
REMARK  6 active torsions:
REMARK  status: ('A' for Active; 'I' for Inactive)
REMARK    1  A    between atoms: C_1  and  N_2
REMARK    2  A    between atoms: N_7  and  C_17
REMARK    3  A    between atoms: N_10  and  C_11
REMARK    4  A    between atoms: C_11  and  N_57
REMARK    5  A    between atoms: N_18  and  C_21
REMARK    6  A    between atoms: C_21  and  N_59
REMARK                            x       y       z     vdW  Elec       q    Type
REMARK                         _______ _______ _______ _____ _____    ______ ____
ROOT
ATOM      1  C   UNL     1       8.117   1.102   3.064  0.00  0.00    +0.135 C 
ATOM      2  N   UNL     1       6.745   0.645   3.296  0.00  0.00    -0.267 N 
ATOM      3  C   UNL     1       5.831   1.083   4.355  0.00  0.00    +0.205 C 
ATOM      4  C   UNL     1       4.524   1.014   3.466  0.00  0.00    +0.205 C 
ATOM      5  N   UNL     1       3.623   1.754   4.243  0.00  0.00    -0.267 N 
ATOM      6  C   UNL     1       4.384   2.751   4.801  0.00  0.00    +0.306 C 
ATOM      7  O   UNL     1       3.921   3.736   5.344  0.00  0.00    -0.252 OA
ATOM      8  N   UNL     1       5.722   2.508   4.674  0.00  0.00    -0.280 N 
ATOM      9  C   UNL     1       2.188   1.517   4.421  0.00  0.00    +0.135 C 
ATOM     10  N   UNL     1       4.698  -0.233   2.842  0.00  0.00    -0.280 N 
ATOM     11  C   UNL     1       6.047  -0.282   2.576  0.00  0.00    +0.306 C 
ATOM     12  O   UNL     1       6.559  -1.057   1.792  0.00  0.00    -0.252 OA
ENDROOT
BRANCH   8  13
ATOM     13  C   UNL     1       6.816   3.470   4.825  0.00  0.00    +0.036 C 
BRANCH  13  19
ATOM     14  C   UNL     1       6.746   3.822   7.219  0.00  0.00    -0.077 C 
ATOM     15  C   UNL     1       7.408   3.436   8.543  0.00  0.00    -0.019 C 
ATOM     16  C   UNL     1       8.851   3.948   8.554  0.00  0.00    -0.004 C 
ATOM     17  C   UNL     1       9.602   3.361   7.356  0.00  0.00    -0.019 C 
ATOM     18  C   UNL     1       8.876   3.749   6.066  0.00  0.00    -0.077 C 
ATOM     19  N   UNL     1       7.501   3.206   6.107  0.00  0.00    +0.390 N 
ATOM     20  H   UNL     1       7.548   2.192   6.258  0.00  0.00    -0.080 HD
ENDBRANCH  13  19
ENDBRANCH   8  13
BRANCH  10  21
ATOM     21  C   UNL     1       3.682  -1.247   2.549  0.00  0.00    +0.036 C 
BRANCH  21  27
ATOM     22  C   UNL     1       1.760  -1.559   1.111  0.00  0.00    -0.077 C 
ATOM     23  C   UNL     1       1.259  -1.414  -0.328  0.00  0.00    -0.019 C 
ATOM     24  C   UNL     1       1.251   0.068  -0.713  0.00  0.00    -0.004 C 
ATOM     25  C   UNL     1       2.663   0.637  -0.547  0.00  0.00    -0.019 C 
ATOM     26  C   UNL     1       3.124   0.432   0.897  0.00  0.00    -0.077 C 
ATOM     27  N   UNL     1       3.132  -1.015   1.198  0.00  0.00    +0.390 N 
ATOM     28  H   UNL     1       3.725  -1.495   0.510  0.00  0.00    -0.080 HD
ENDBRANCH  21  27
ENDBRANCH  10  21
TORSDOF 4
