REMARK  Name = ZINC62495526
REMARK  3 active torsions:
REMARK  status: ('A' for Active; 'I' for Inactive)
REMARK    1  A    between atoms: C_3  and  C_9
REMARK    2  A    between atoms: C_9  and  C_10
REMARK    3  A    between atoms: C_17  and  O_22
REMARK                            x       y       z     vdW  Elec       q    Type
REMARK                         _______ _______ _______ _____ _____    ______ ____
ROOT
ATOM      1  C   UNL     1       4.364   2.250   1.340  0.00  0.00    +0.263 C 
ATOM      2  C   UNL     1       5.536   3.196   1.264  0.00  0.00    +0.258 C 
ATOM      3  O   UNL     1       5.397   4.363   1.563  0.00  0.00    -0.271 OA
ATOM      4  N   UNL     1       6.740   2.738   0.861  0.00  0.00    -0.279 N 
ATOM      5  C   UNL     1       6.911   1.365   0.641  0.00  0.00    +0.079 A 
ATOM      6  C   UNL     1       8.052   0.889   0.015  0.00  0.00    +0.072 A 
ATOM      7  C   UNL     1       8.201  -0.471  -0.207  0.00  0.00    +0.119 A 
ATOM      8  C   UNL     1       7.209  -1.354   0.196  0.00  0.00    +0.049 A 
ATOM      9  C   UNL     1       6.073  -0.882   0.827  0.00  0.00    +0.051 A 
ATOM     10  C   UNL     1       5.922   0.475   1.056  0.00  0.00    +0.143 A 
ATOM     11  O   UNL     1       4.822   0.946   1.703  0.00  0.00    -0.477 OA
ATOM     12  H   UNL     1       7.478   3.353   0.725  0.00  0.00    +0.155 HD
ENDROOT
BRANCH   7  13
ATOM     13  O   UNL     1       9.319  -0.941  -0.821  0.00  0.00    -0.507 OA
ATOM     14  H   UNL     1      10.038  -1.162  -0.213  0.00  0.00    +0.292 HD
ENDBRANCH   7  13
BRANCH   1  15
ATOM     15  C   UNL     1       3.671   2.186  -0.023  0.00  0.00    +0.091 C 
BRANCH  15  18
ATOM     16  C   UNL     1       3.182   5.641  -1.464  0.00  0.00    +0.002 A 
ATOM     17  C   UNL     1       3.737   4.410  -1.169  0.00  0.00    +0.005 A 
ATOM     18  C   UNL     1       3.066   3.529  -0.342  0.00  0.00    -0.024 A 
ATOM     19  C   UNL     1       1.839   3.879   0.192  0.00  0.00    +0.063 A 
ATOM     20  C   UNL     1       1.283   5.112  -0.103  0.00  0.00    +0.060 A 
ATOM     21  C   UNL     1       1.956   5.993  -0.931  0.00  0.00    +0.021 A 
ATOM     22 CL   UNL     1      -0.257   5.553   0.566  0.00  0.00    -0.082 Cl
ATOM     23 CL   UNL     1       0.996   2.772   1.230  0.00  0.00    -0.082 Cl
ENDBRANCH  15  18
ENDBRANCH   1  15
TORSDOF 3
