REMARK  Name = ZINC01434625
REMARK  11 active torsions:
REMARK  status: ('A' for Active; 'I' for Inactive)
REMARK    1  A    between atoms: C_1  and  C_2
REMARK    2  A    between atoms: C_3  and  C_32
REMARK    3  A    between atoms: C_4  and  C_23
REMARK    4  A    between atoms: C_10  and  C_15
REMARK    5  A    between atoms: C_20  and  O_21
REMARK    6  A    between atoms: O_21  and  C_22
REMARK    7  A    between atoms: C_27  and  N_29
REMARK    8  A    between atoms: C_32  and  O_34
REMARK    9  A    between atoms: O_34  and  C_35
REMARK   10  A    between atoms: C_35  and  C_36
REMARK   11  A    between atoms: C_35  and  C_37
REMARK                            x       y       z     vdW  Elec       q    Type
REMARK                         _______ _______ _______ _____ _____    ______ ____
ROOT
ATOM      1  C   UNL     1      -2.738   6.484  -2.461  0.00  0.00    +0.061 C 
ATOM      2  C   UNL     1      -2.050   6.155  -1.161  0.00  0.00    +0.016 C 
ATOM      3  C   UNL     1      -0.799   5.664  -1.174  0.00  0.00    +0.065 C 
ATOM      4  C   UNL     1      -0.085   5.318   0.100  0.00  0.00    +0.092 C 
ATOM      5  C   UNL     1      -0.746   5.973   1.287  0.00  0.00    +0.024 C 
ATOM      6  C   UNL     1      -2.003   6.456   1.196  0.00  0.00    +0.016 C 
ATOM      7  N   UNL     1      -2.702   6.359   0.023  0.00  0.00    -0.321 N 
ATOM      8  C   UNL     1      -2.669   7.117   2.377  0.00  0.00    +0.060 C 
ATOM      9  C   UNL     1      -2.140   6.505   3.675  0.00  0.00    +0.035 C 
ATOM     10  C   UNL     1      -0.619   6.688   3.716  0.00  0.00    +0.088 C 
ATOM     11  C   UNL     1      -0.018   6.065   2.486  0.00  0.00    +0.162 C 
ATOM     12  O   UNL     1       1.117   5.633   2.530  0.00  0.00    -0.292 OA
ATOM     13  H   UNL     1      -3.799   6.445   0.039  0.00  0.00    +0.152 HD
ENDROOT
BRANCH   9  14
ATOM     14  C   UNL     1      -2.766   7.201   4.856  0.00  0.00    -0.002 A 
ATOM     15  C   UNL     1      -2.601   8.563   5.023  0.00  0.00    +0.007 A 
ATOM     16  C   UNL     1      -3.175   9.202   6.106  0.00  0.00    +0.001 A 
ATOM     17  C   UNL     1      -3.916   8.481   7.025  0.00  0.00    +0.004 A 
ATOM     18  C   UNL     1      -4.084   7.120   6.862  0.00  0.00    +0.046 A 
ATOM     19  C   UNL     1      -3.513   6.477   5.774  0.00  0.00    +0.124 A 
BRANCH  19  20
ATOM     20  O   UNL     1      -3.681   5.138   5.609  0.00  0.00    -0.495 OA
ATOM     21  C   UNL     1      -4.462   4.457   6.592  0.00  0.00    +0.277 C 
ENDBRANCH  19  20
ENDBRANCH   9  14
BRANCH   4  22
ATOM     22  C   UNL     1      -0.105   3.822   0.287  0.00  0.00    -0.033 A 
ATOM     23  C   UNL     1      -1.311   3.153   0.381  0.00  0.00    +0.005 A 
ATOM     24  C   UNL     1      -1.329   1.781   0.546  0.00  0.00    +0.003 A 
ATOM     25  C   UNL     1      -0.141   1.079   0.629  0.00  0.00    +0.033 A 
ATOM     26  C   UNL     1       1.065   1.748   0.534  0.00  0.00    +0.126 A 
ATOM     27  C   UNL     1       1.083   3.120   0.364  0.00  0.00    +0.037 A 
BRANCH  26  28
ATOM     28  N   UNL     1       2.337   0.996   0.616  0.00  0.00    +0.056 N 
ATOM     29  O   UNL     1       2.322  -0.213   0.766  0.00  0.00    -0.126 OA
ATOM     30  O   UNL     1       3.400   1.586   0.533  0.00  0.00    -0.126 OA
ENDBRANCH  26  28
ENDBRANCH   4  22
BRANCH   3  31
ATOM     31  C   UNL     1      -0.142   5.470  -2.411  0.00  0.00    +0.338 C 
ATOM     32  O   UNL     1       0.742   6.231  -2.757  0.00  0.00    -0.245 OA
BRANCH  31  33
ATOM     33  O   UNL     1      -0.496   4.441  -3.209  0.00  0.00    -0.459 OA
BRANCH  33  34
ATOM     34  C   UNL     1       0.209   4.305  -4.444  0.00  0.00    +0.171 C 
ATOM     35  C   UNL     1       0.267   2.827  -4.838  0.00  0.00    +0.052 C 
ATOM     36  C   UNL     1      -0.516   5.095  -5.535  0.00  0.00    +0.052 C 
ENDBRANCH  33  34
ENDBRANCH  31  33
ENDBRANCH   3  31
TORSDOF 7
