REMARK  Name = ZINC33904297
REMARK  10 active torsions:
REMARK  status: ('A' for Active; 'I' for Inactive)
REMARK    1  A    between atoms: C_1  and  C_2
REMARK    2  A    between atoms: N_8  and  C_9
REMARK    3  A    between atoms: C_9  and  C_10
REMARK    4  A    between atoms: C_11  and  C_21
REMARK    5  A    between atoms: N_23  and  N_24
REMARK    6  A    between atoms: C_25  and  C_26
REMARK    7  A    between atoms: C_29  and  C_32
REMARK    8  A    between atoms: C_32  and  C_33
REMARK    9  A    between atoms: C_32  and  C_34
REMARK   10  A    between atoms: C_32  and  C_35
REMARK                            x       y       z     vdW  Elec       q    Type
REMARK                         _______ _______ _______ _____ _____    ______ ____
ROOT
ATOM      1  C   UNL     1       1.723  -0.825   2.855  0.00  0.00    +0.063 A 
ATOM      2  C   UNL     1       1.689  -0.106   4.016  0.00  0.00    +0.170 A 
ATOM      3  N   UNL     1       1.881  -0.949   5.045  0.00  0.00    -0.124 NA
ATOM      4  N   UNL     1       2.033  -2.147   4.599  0.00  0.00    -0.058 NA
ATOM      5  N   UNL     1       1.933  -2.115   3.201  0.00  0.00    -0.194 N 
ATOM      6  C   UNL     1       2.034  -3.206   2.331  0.00  0.00    +0.240 A 
ATOM      7  C   UNL     1       2.256  -4.600   2.726  0.00  0.00    +0.206 A 
ATOM      8  N   UNL     1       2.292  -5.331   1.646  0.00  0.00    -0.032 NA
ATOM      9  O   UNL     1       2.101  -4.474   0.535  0.00  0.00    -0.239 OA
ATOM     10  N   UNL     1       1.940  -3.157   1.032  0.00  0.00    -0.027 NA
ATOM     11  N   UNL     1       2.405  -5.063   4.028  0.00  0.00    -0.337 N 
ATOM     12  H   UNL     1       2.364  -4.442   4.772  0.00  0.00    +0.144 HD
ATOM     13  H   UNL     1       2.549  -6.008   4.194  0.00  0.00    +0.144 HD
ENDROOT
BRANCH   2  14
ATOM     14  C   UNL     1       1.478   1.350   4.123  0.00  0.00    +0.285 C 
ATOM     15  O   UNL     1       1.314   2.016   3.118  0.00  0.00    -0.267 OA
ATOM     16  N   UNL     1       1.466   1.942   5.333  0.00  0.00    -0.202 N 
ATOM     17  H   UNL     1       1.597   1.411   6.135  0.00  0.00    +0.178 HD
BRANCH  16  18
ATOM     18  N   UNL     1       1.265   3.325   5.435  0.00  0.00    -0.187 NA
ATOM     19  C   UNL     1       1.371   3.913   6.586  0.00  0.00    +0.138 C 
BRANCH  19  20
ATOM     20  C   UNL     1       2.141   3.277   7.671  0.00  0.00    -0.005 A 
ATOM     21  C   UNL     1       2.027   3.748   8.982  0.00  0.00    +0.010 A 
ATOM     22  C   UNL     1       2.750   3.148   9.992  0.00  0.00    +0.005 A 
ATOM     23  C   UNL     1       3.587   2.083   9.709  0.00  0.00    -0.042 A 
ATOM     24  C   UNL     1       3.704   1.612   8.414  0.00  0.00    +0.005 A 
ATOM     25  C   UNL     1       2.983   2.198   7.395  0.00  0.00    +0.010 A 
BRANCH  23  26
ATOM     26  C   UNL     1       4.374   1.433  10.818  0.00  0.00    -0.013 C 
ATOM     27  C   UNL     1       3.411   0.881  11.871  0.00  0.00    +0.015 C 
ATOM     28  C   UNL     1       5.213   0.289  10.245  0.00  0.00    +0.015 C 
ATOM     29  C   UNL     1       5.296   2.469  11.464  0.00  0.00    +0.015 C 
ENDBRANCH  23  26
ENDBRANCH  19  20
ENDBRANCH  16  18
ENDBRANCH   2  14
BRANCH   1  30
ATOM     30  C   UNL     1       1.553  -0.285   1.459  0.00  0.00    -0.019 C 
BRANCH  30  37
ATOM     31  C   UNL     1       0.513   1.749  -0.174  0.00  0.00    -0.013 C 
ATOM     32  C   UNL     1      -0.049   0.327  -0.216  0.00  0.00    -0.071 C 
ATOM     33  C   UNL     1      -1.539   0.378  -0.563  0.00  0.00    -0.016 C 
ATOM     34  C   UNL     1      -2.097  -1.047  -0.604  0.00  0.00    -0.003 C 
ATOM     35  C   UNL     1      -1.838  -1.726   0.744  0.00  0.00    -0.019 C 
ATOM     36  C   UNL     1      -0.337  -1.699   1.042  0.00  0.00    -0.078 C 
ATOM     37  N   UNL     1       0.130  -0.308   1.095  0.00  0.00    +0.385 N 
ATOM     38  H   UNL     1      -0.401   0.198   1.788  0.00  0.00    -0.081 HD
ENDBRANCH  30  37
ENDBRANCH   1  30
TORSDOF 6
