REMARK  Name = ZINC36269509
REMARK  4 active torsions:
REMARK  status: ('A' for Active; 'I' for Inactive)
REMARK    1  A    between atoms: C_1  and  C_2
REMARK    2  A    between atoms: C_3  and  C_7
REMARK    3  A    between atoms: N_9  and  C_10
REMARK    4  A    between atoms: C_11  and  C_19
REMARK                            x       y       z     vdW  Elec       q    Type
REMARK                         _______ _______ _______ _____ _____    ______ ____
ROOT
ATOM      1  C   UNL     1      -0.011  -0.798  -4.890  0.00  0.00    +0.090 A 
ATOM      2  C   UNL     1      -0.012  -1.584  -6.033  0.00  0.00    +0.083 A 
ATOM      3  C   UNL     1      -0.026  -0.897  -7.308  0.00  0.00    -0.022 A 
ATOM      4  C   UNL     1      -0.036   0.453  -7.212  0.00  0.00    -0.021 A 
ATOM      5  S   UNL     1      -0.037   0.776  -5.474  0.00  0.00    -0.079 S 
ATOM      6  C   UNL     1      -0.047   1.419  -8.354  0.00  0.00    -0.039 C 
ATOM      7  N   UNL     1       0.337   0.693  -9.578  0.00  0.00    +0.382 N 
ATOM      8  C   UNL     1      -0.476  -0.523  -9.707  0.00  0.00    -0.077 C 
ATOM      9  C   UNL     1      -0.034  -1.566  -8.675  0.00  0.00    +0.018 C 
ATOM     10  H   UNL     1       0.186   1.285 -10.381  0.00  0.00    -0.085 HD
ATOM     11  H   UNL     1       1.313   0.441  -9.527  0.00  0.00    -0.085 HD
ENDROOT
BRANCH   1  14
ATOM     12  C   UNL     1      -0.007  -0.307  -2.574  0.00  0.00    +0.259 C 
ATOM     13  O   UNL     1      -0.025   0.881  -2.836  0.00  0.00    -0.269 OA
ATOM     14  N   UNL     1       0.001  -1.216  -3.568  0.00  0.00    -0.274 N 
ATOM     15  H   UNL     1       0.015  -2.164  -3.359  0.00  0.00    +0.156 HD
BRANCH  12  18
ATOM     16  C   UNL     1      -0.018   1.503   0.010  0.00  0.00    +0.069 C 
ATOM     17  C   UNL     1       0.002  -0.004   0.002  0.00  0.00    +0.081 A 
ATOM     18  C   UNL     1       0.006  -0.751  -1.171  0.00  0.00    +0.117 A 
ATOM     19  S   UNL     1       0.032  -2.401  -0.490  0.00  0.00    +0.041 S 
ATOM     20  N   UNL     1       0.035  -2.005   1.082  0.00  0.00    -0.110 NA
ATOM     21  N   UNL     1       0.023  -0.720   1.099  0.00  0.00    -0.146 NA
ENDBRANCH  12  18
ENDBRANCH   1  14
BRANCH   2  22
ATOM     22  C   UNL     1       0.002  -3.014  -5.955  0.00  0.00    +0.102 C 
ATOM     23  N   UNL     1       0.013  -4.149  -5.894  0.00  0.00    -0.191 NA
ENDBRANCH   2  22
TORSDOF 3
