REMARK  Name = ZINC67271781
REMARK  4 active torsions:
REMARK  status: ('A' for Active; 'I' for Inactive)
REMARK    1  A    between atoms: C_1  and  C_2
REMARK    2  A    between atoms: C_3  and  C_23
REMARK    3  A    between atoms: C_7  and  N_8
REMARK    4  A    between atoms: C_9  and  C_11
REMARK                            x       y       z     vdW  Elec       q    Type
REMARK                         _______ _______ _______ _____ _____    ______ ____
ROOT
ATOM      1  N   UNL     1       0.030  -0.395   2.429  0.00  0.00    -0.270 N 
ATOM      2  C   UNL     1       0.052  -1.307   3.420  0.00  0.00    +0.221 C 
ATOM      3  O   UNL     1       0.066  -2.491   3.155  0.00  0.00    -0.275 OA
ATOM      4  H   UNL     1       0.018   0.552   2.640  0.00  0.00    +0.156 HD
ENDROOT
BRANCH   2   5
ATOM      5  C   UNL     1       0.058  -0.857   4.858  0.00  0.00    +0.075 C 
ATOM      6  C   UNL     1      -1.199  -0.032   5.140  0.00  0.00    +0.015 C 
ATOM      7  C   UNL     1      -1.186   0.434   6.598  0.00  0.00    +0.036 C 
ATOM      8  C   UNL     1      -1.136  -0.779   7.520  0.00  0.00    +0.112 C 
ATOM      9  C   UNL     1       0.102  -1.623   7.236  0.00  0.00    +0.036 C 
ATOM     10  C   UNL     1       0.084  -2.081   5.776  0.00  0.00    +0.015 C 
ATOM     11  C   UNL     1      -1.157  -0.343   8.967  0.00  0.00    +0.244 C 
ATOM     12  O   UNL     1      -0.340   0.345   9.539  0.00  0.00    -0.273 OA
ATOM     13  N   UNL     1      -2.278  -0.883   9.490  0.00  0.00    -0.238 N 
ATOM     14  C   UNL     1      -2.956  -1.590   8.578  0.00  0.00    +0.307 C 
ATOM     15  O   UNL     1      -3.998  -2.171   8.810  0.00  0.00    -0.252 OA
ATOM     16  N   UNL     1      -2.354  -1.587   7.373  0.00  0.00    -0.285 N 
ATOM     17  H   UNL     1      -2.558  -0.773  10.412  0.00  0.00    +0.159 HD
ATOM     18  H   UNL     1      -2.663  -2.030   6.567  0.00  0.00    +0.151 HD
ENDBRANCH   2   5
BRANCH   1  25
ATOM     19  C   UNL     1      -0.018   1.503   0.010  0.00  0.00    +0.049 C 
ATOM     20  C   UNL     1       0.002  -0.004   0.002  0.00  0.00    +0.021 A 
ATOM     21  C   UNL     1       0.009  -0.821  -1.132  0.00  0.00    +0.170 A 
ATOM     22  N   UNL     1       0.028  -2.069  -0.740  0.00  0.00    -0.168 NA
ATOM     23  N   UNL     1       0.034  -2.092   0.661  0.00  0.00    -0.263 N 
ATOM     24  H   UNL     1       0.048  -2.885   1.219  0.00  0.00    +0.190 HD
ATOM     25  C   UNL     1       0.023  -0.812   1.097  0.00  0.00    +0.124 A 
BRANCH  21  26
ATOM     26  C   UNL     1      -0.005  -0.346  -2.562  0.00  0.00    +0.436 C 
ATOM     27  F   UNL     1       1.310  -0.180  -3.010  0.00  0.00    -0.164 F 
ATOM     28  F   UNL     1      -0.655  -1.292  -3.362  0.00  0.00    -0.164 F 
ATOM     29  F   UNL     1      -0.682   0.876  -2.641  0.00  0.00    -0.164 F 
ENDBRANCH  21  26
ENDBRANCH   1  25
TORSDOF 3
