REMARK  Name = ZINC36447006
REMARK  10 active torsions:
REMARK  status: ('A' for Active; 'I' for Inactive)
REMARK    1  A    between atoms: C_1  and  C_2
REMARK    2  A    between atoms: C_2  and  N_3
REMARK    3  A    between atoms: N_3  and  C_4
REMARK    4  A    between atoms: N_3  and  C_17
REMARK    5  A    between atoms: C_4  and  C_5
REMARK    6  A    between atoms: C_17  and  C_18
REMARK    7  A    between atoms: C_21  and  C_34
REMARK    8  A    between atoms: C_24  and  C_26
REMARK    9  A    between atoms: C_29  and  O_32
REMARK   10  A    between atoms: O_32  and  C_33
REMARK                            x       y       z     vdW  Elec       q    Type
REMARK                         _______ _______ _______ _____ _____    ______ ____
ROOT
ATOM      1  C   UNL     1      -2.029   1.450  -1.165  0.00  0.00    +0.250 C 
ATOM      2  O   UNL     1      -1.516   2.098  -0.276  0.00  0.00    -0.272 OA
ATOM      3  N   UNL     1      -2.579   2.076  -2.224  0.00  0.00    -0.181 N 
ATOM      4  C   UNL     1      -2.623   3.532  -2.430  0.00  0.00    +0.173 C 
ATOM      5  C   UNL     1      -3.355   3.685  -3.778  0.00  0.00    +0.090 C 
ATOM      6  C   UNL     1      -3.651   2.262  -4.195  0.00  0.00    +0.069 C 
ATOM      7  N   UNL     1      -3.195   1.449  -3.305  0.00  0.00    -0.181 NA
ENDROOT
BRANCH   6   8
ATOM      8  C   UNL     1      -4.349   1.866  -5.431  0.00  0.00    -0.002 A 
ATOM      9  C   UNL     1      -4.790   2.841  -6.330  0.00  0.00    +0.013 A 
ATOM     10  C   UNL     1      -5.441   2.466  -7.486  0.00  0.00    +0.046 A 
ATOM     11  C   UNL     1      -5.660   1.121  -7.756  0.00  0.00    +0.120 A 
ATOM     12  C   UNL     1      -5.224   0.149  -6.866  0.00  0.00    +0.046 A 
ATOM     13  C   UNL     1      -4.567   0.514  -5.711  0.00  0.00    +0.013 A 
BRANCH  11  14
ATOM     14  O   UNL     1      -6.304   0.756  -8.896  0.00  0.00    -0.495 OA
ATOM     15  C   UNL     1      -6.496  -0.643  -9.112  0.00  0.00    +0.277 C 
ENDBRANCH  11  14
ENDBRANCH   6   8
BRANCH   4  16
ATOM     16  C   UNL     1      -3.397   4.201  -1.323  0.00  0.00    +0.128 A 
ATOM     17  C   UNL     1      -3.093   5.381  -0.753  0.00  0.00    +0.046 A 
ATOM     18  C   UNL     1      -4.078   5.626   0.232  0.00  0.00    +0.041 A 
ATOM     19  C   UNL     1      -4.924   4.581   0.204  0.00  0.00    +0.195 A 
ATOM     20  O   UNL     1      -4.510   3.724  -0.744  0.00  0.00    -0.466 OA
ENDBRANCH   4  16
BRANCH   1  21
ATOM     21  C   UNL     1      -2.049  -0.055  -1.085  0.00  0.00    +0.182 C 
BRANCH  21  22
ATOM     22  N   UNL     1      -1.315  -0.492   0.111  0.00  0.00    -0.287 NA
BRANCH  22  24
ATOM     23  C   UNL     1       0.141  -2.116  -1.002  0.00  0.00    +0.020 C 
ATOM     24  C   UNL     1      -0.974  -1.918   0.027  0.00  0.00    +0.082 C 
ENDBRANCH  22  24
BRANCH  22  25
ATOM     25  C   UNL     1      -2.079  -0.204   1.332  0.00  0.00    +0.159 C 
BRANCH  25  26
ATOM     26  C   UNL     1      -1.204  -0.434   2.537  0.00  0.00    +0.125 A 
ATOM     27  N   UNL     1      -1.737  -0.225   3.769  0.00  0.00    -0.309 N 
ATOM     28  H   UNL     1      -2.659   0.066   3.851  0.00  0.00    +0.170 HD
ATOM     29  C   UNL     1      -0.993  -0.418   4.884  0.00  0.00    +0.259 A 
ATOM     30  O   UNL     1      -1.458  -0.235   5.994  0.00  0.00    -0.267 OA
ATOM     31  C   UNL     1       0.398  -0.860   4.701  0.00  0.00    +0.065 A 
ATOM     32  C   UNL     1       1.247  -1.087   5.782  0.00  0.00    +0.015 A 
ATOM     33  C   UNL     1       2.541  -1.499   5.553  0.00  0.00    +0.001 A 
ATOM     34  C   UNL     1       3.003  -1.689   4.257  0.00  0.00    +0.002 A 
ATOM     35  C   UNL     1       2.180  -1.469   3.175  0.00  0.00    +0.028 A 
ATOM     36  C   UNL     1       0.864  -1.052   3.381  0.00  0.00    +0.078 A 
ATOM     37  N   UNL     1       0.018  -0.828   2.345  0.00  0.00    -0.232 NA
ENDBRANCH  25  26
ENDBRANCH  22  25
ENDBRANCH  21  22
ENDBRANCH   1  21
TORSDOF 8
