REMARK  Name = ZINC38050894
REMARK  6 active torsions:
REMARK  status: ('A' for Active; 'I' for Inactive)
REMARK    1  A    between atoms: C_3  and  S_17
REMARK    2  A    between atoms: C_6  and  N_7
REMARK    3  A    between atoms: N_7  and  C_8
REMARK    4  A    between atoms: C_14  and  N_16
REMARK    5  A    between atoms: S_17  and  N_20
REMARK    6  A    between atoms: N_20  and  C_21
REMARK                            x       y       z     vdW  Elec       q    Type
REMARK                         _______ _______ _______ _____ _____    ______ ____
ROOT
ATOM      1  C   UNL     1      -0.017   1.385   0.010  0.00  0.00    +0.025 A 
ATOM      2  C   UNL     1       1.171   2.090   0.002  0.00  0.00    +0.030 A 
ATOM      3  C   UNL     1       2.377   1.415  -0.013  0.00  0.00    +0.105 A 
ATOM      4  C   UNL     1       2.400   0.032  -0.021  0.00  0.00    +0.030 A 
ATOM      5  C   UNL     1       1.216  -0.679  -0.014  0.00  0.00    +0.025 A 
ATOM      6  C   UNL     1       0.002  -0.004   0.002  0.00  0.00    +0.027 A 
ENDROOT
BRANCH   3   7
ATOM      7  S   UNL     1       3.890   2.319  -0.024  0.00  0.00    +0.059 S 
ATOM      8  O   UNL     1       4.872   1.461  -0.589  0.00  0.00    -0.153 OA
ATOM      9  O   UNL     1       3.595   3.599  -0.566  0.00  0.00    -0.153 OA
BRANCH   7  10
ATOM     10  N   UNL     1       4.326   2.562   1.555  0.00  0.00    -0.187 NA
ATOM     11  H   UNL     1       4.354   3.461   1.917  0.00  0.00    +0.148 HD
BRANCH  10  12
ATOM     12  C   UNL     1       4.671   1.419   2.404  0.00  0.00    +0.077 C 
ATOM     13  C   UNL     1       4.308   1.506   3.888  0.00  0.00    +0.022 C 
ATOM     14  C   UNL     1       5.769   1.621   3.449  0.00  0.00    +0.022 C 
ENDBRANCH  10  12
ENDBRANCH   7  10
ENDBRANCH   3   7
BRANCH   6  15
ATOM     15  N   UNL     1      -1.197  -0.720   0.010  0.00  0.00    -0.343 N 
ATOM     16  H   UNL     1      -2.044  -0.248   0.021  0.00  0.00    +0.146 HD
BRANCH  15  17
ATOM     17  C   UNL     1      -1.175  -2.185   0.002  0.00  0.00    +0.056 C 
ATOM     18  C   UNL     1      -1.056  -2.686  -1.439  0.00  0.00    +0.020 C 
ATOM     19  C   UNL     1      -2.253  -2.189  -2.252  0.00  0.00    +0.002 C 
ATOM     20  C   UNL     1      -3.547  -2.721  -1.632  0.00  0.00    -0.001 C 
ATOM     21  C   UNL     1      -3.666  -2.221  -0.191  0.00  0.00    -0.014 C 
ATOM     22  C   UNL     1      -2.469  -2.718   0.622  0.00  0.00    -0.055 C 
BRANCH  22  23
ATOM     23  N   UNL     1      -2.583  -2.237   2.005  0.00  0.00    +0.381 N 
ATOM     24  H   UNL     1      -2.598  -1.229   2.011  0.00  0.00    -0.090 HD
ATOM     25  H   UNL     1      -3.436  -2.589   2.414  0.00  0.00    -0.090 HD
ATOM     26  H   UNL     1      -1.793  -2.565   2.541  0.00  0.00    -0.090 HD
ENDBRANCH  22  23
ENDBRANCH  15  17
ENDBRANCH   6  15
TORSDOF 6
