REMARK  Name = ZINC05823723
REMARK  8 active torsions:
REMARK  status: ('A' for Active; 'I' for Inactive)
REMARK    1  A    between atoms: C_1  and  C_2
REMARK    2  A    between atoms: C_2  and  C_30
REMARK    3  A    between atoms: C_6  and  C_17
REMARK    4  A    between atoms: C_11  and  O_16
REMARK    5  A    between atoms: C_12  and  O_15
REMARK    6  A    between atoms: C_24  and  S_26
REMARK    7  A    between atoms: S_26  and  C_27
REMARK    8  A    between atoms: C_27  and  C_28
REMARK                            x       y       z     vdW  Elec       q    Type
REMARK                         _______ _______ _______ _____ _____    ______ ____
ROOT
ATOM      1  C   UNL     1      -0.019   1.537   0.011  0.00  0.00    +0.034 C 
ATOM      2  C   UNL     1       0.002  -0.004   0.002  0.00  0.00    +0.040 C 
ATOM      3  C   UNL     1       0.654  -0.462  -1.294  0.00  0.00    +0.096 C 
ATOM      4  C   UNL     1       1.404  -1.783  -1.156  0.00  0.00    +0.181 C 
ATOM      5  C   UNL     1       0.428  -2.957  -1.080  0.00  0.00    +0.081 C 
ATOM      6  C   UNL     1       1.215  -4.258  -0.896  0.00  0.00    +0.058 C 
ATOM      7  C   UNL     1       2.391  -4.302  -1.834  0.00  0.00    +0.006 A 
ATOM      8  C   UNL     1       3.060  -5.501  -2.024  0.00  0.00    +0.011 A 
ATOM      9  C   UNL     1       4.133  -5.580  -2.892  0.00  0.00    +0.050 A 
ATOM     10  C   UNL     1       4.558  -4.450  -3.572  0.00  0.00    +0.162 A 
ATOM     11  C   UNL     1       3.905  -3.241  -3.373  0.00  0.00    +0.201 A 
ATOM     12  C   UNL     1       2.823  -3.167  -2.498  0.00  0.00    +0.172 A 
ATOM     13  O   UNL     1       2.225  -1.961  -2.316  0.00  0.00    -0.464 OA
ATOM     14  N   UNL     1       2.249  -1.760   0.039  0.00  0.00    -0.288 N 
ATOM     15  C   UNL     1       1.753  -1.206   1.194  0.00  0.00    +0.131 C 
ATOM     16  N   UNL     1       0.712  -0.445   1.192  0.00  0.00    -0.363 N 
ATOM     17  C   UNL     1      -1.450  -0.488   0.060  0.00  0.00    +0.034 C 
ATOM     18  H   UNL     1       3.148  -2.130   0.017  0.00  0.00    +0.152 HD
ATOM     19  H   UNL     1       0.375  -0.144   2.055  0.00  0.00    +0.162 HD
ENDROOT
BRANCH   6  20
ATOM     20  C   UNL     1       0.297  -5.421  -1.174  0.00  0.00    -0.040 A 
ATOM     21  C   UNL     1      -0.293  -5.553  -2.417  0.00  0.00    +0.004 A 
ATOM     22  C   UNL     1      -1.135  -6.619  -2.673  0.00  0.00    +0.000 A 
ATOM     23  C   UNL     1      -1.386  -7.554  -1.686  0.00  0.00    +0.000 A 
ATOM     24  C   UNL     1      -0.795  -7.423  -0.443  0.00  0.00    +0.000 A 
ATOM     25  C   UNL     1       0.050  -6.359  -0.189  0.00  0.00    +0.004 A 
ENDBRANCH   6  20
BRANCH  11  26
ATOM     26  O   UNL     1       4.323  -2.126  -4.033  0.00  0.00    -0.501 OA
ATOM     27  H   UNL     1       3.893  -1.992  -4.888  0.00  0.00    +0.292 HD
ENDBRANCH  11  26
BRANCH  10  28
ATOM     28  O   UNL     1       5.608  -4.525  -4.433  0.00  0.00    -0.503 OA
ATOM     29  H   UNL     1       5.356  -4.736  -5.343  0.00  0.00    +0.292 HD
ENDBRANCH  10  28
BRANCH  15  30
ATOM     30  S   UNL     1       2.564  -1.544   2.721  0.00  0.00    -0.089 S 
BRANCH  30  31
ATOM     31  C   UNL     1       1.589  -0.629   3.948  0.00  0.00    +0.103 C 
BRANCH  31  32
ATOM     32  C   UNL     1       2.183  -0.836   5.317  0.00  0.00    -0.023 C 
ATOM     33  C   UNL     1       2.703   0.177   5.965  0.00  0.00    +0.005 C 
ENDBRANCH  31  32
ENDBRANCH  30  31
ENDBRANCH  15  30
TORSDOF 6
