REMARK  Name = ZINC21308937
REMARK  5 active torsions:
REMARK  status: ('A' for Active; 'I' for Inactive)
REMARK    1  A    between atoms: C_11  and  C_29
REMARK    2  A    between atoms: C_14  and  C_16
REMARK    3  A    between atoms: C_16  and  N_17
REMARK    4  A    between atoms: N_20  and  C_23
REMARK    5  A    between atoms: C_23  and  C_24
REMARK                            x       y       z     vdW  Elec       q    Type
REMARK                         _______ _______ _______ _____ _____    ______ ____
ROOT
ATOM      1  C   UNL     1      -5.352   7.185   9.286  0.00  0.00    +0.002 A 
ATOM      2  C   UNL     1      -6.257   7.265   8.244  0.00  0.00    +0.002 A 
ATOM      3  C   UNL     1      -6.494   6.165   7.440  0.00  0.00    +0.025 A 
ATOM      4  C   UNL     1      -5.820   4.978   7.680  0.00  0.00    +0.058 A 
ATOM      5  C   UNL     1      -4.892   4.904   8.719  0.00  0.00    +0.055 A 
ATOM      6  C   UNL     1      -4.669   6.007   9.527  0.00  0.00    +0.025 A 
ATOM      7  N   UNL     1      -4.172   3.719   8.908  0.00  0.00    -0.284 N 
ATOM      8  C   UNL     1      -4.810   2.529   8.951  0.00  0.00    +0.219 C 
ATOM      9  O   UNL     1      -4.168   1.503   9.031  0.00  0.00    -0.275 OA
ATOM     10  C   UNL     1      -6.314   2.467   8.901  0.00  0.00    +0.128 C 
ATOM     11  C   UNL     1      -6.809   2.728   7.473  0.00  0.00    +0.194 C 
ATOM     12  N   UNL     1      -6.064   3.846   6.891  0.00  0.00    -0.259 N 
ATOM     13  C   UNL     1      -5.626   3.789   5.618  0.00  0.00    +0.204 C 
ATOM     14  O   UNL     1      -5.843   2.804   4.945  0.00  0.00    -0.277 OA
ATOM     15  H   UNL     1      -3.079   3.752   9.022  0.00  0.00    +0.155 HD
ENDROOT
BRANCH  11  16
ATOM     16  C   UNL     1      -8.300   3.069   7.501  0.00  0.00    +0.409 C 
ATOM     17  F   UNL     1      -8.749   3.301   6.196  0.00  0.00    -0.169 F 
ATOM     18  F   UNL     1      -9.012   2.002   8.057  0.00  0.00    -0.169 F 
ATOM     19  F   UNL     1      -8.501   4.218   8.274  0.00  0.00    -0.169 F 
ENDBRANCH  11  16
BRANCH  13  20
ATOM     20  C   UNL     1      -4.866   4.950   5.030  0.00  0.00    +0.019 C 
BRANCH  20  21
ATOM     21  N   UNL     1      -4.502   4.644   3.640  0.00  0.00    +0.387 N 
ATOM     22  C   UNL     1      -3.972   5.835   2.960  0.00  0.00    -0.063 C 
ATOM     23  C   UNL     1      -3.680   5.495   1.496  0.00  0.00    +0.066 C 
ATOM     24  N   UNL     1      -2.719   4.386   1.436  0.00  0.00    -0.301 NA
ATOM     25  C   UNL     1      -3.249   3.196   2.116  0.00  0.00    +0.066 C 
ATOM     26  C   UNL     1      -3.540   3.535   3.579  0.00  0.00    -0.063 C 
ATOM     27  H   UNL     1      -5.416   4.331   3.114  0.00  0.00    -0.081 HD
BRANCH  24  28
ATOM     28  C   UNL     1      -2.355   4.080   0.046  0.00  0.00    +0.126 C 
BRANCH  28  29
ATOM     29  C   UNL     1      -1.196   3.116   0.030  0.00  0.00    +0.004 A 
ATOM     30  C   UNL     1      -1.213   1.761   0.017  0.00  0.00    +0.012 A 
ATOM     31  C   UNL     1      -0.013   1.076   0.008  0.00  0.00    +0.008 A 
ATOM     32  C   UNL     1       1.146   1.780   0.001  0.00  0.00    +0.045 A 
ATOM     33  S   UNL     1       0.555   3.464   0.015  0.00  0.00    -0.100 S 
ENDBRANCH  28  29
ENDBRANCH  24  28
ENDBRANCH  20  21
ENDBRANCH  13  20
TORSDOF 5
