REMARK  Name = ZINC40267225
REMARK  4 active torsions:
REMARK  status: ('A' for Active; 'I' for Inactive)
REMARK    1  A    between atoms: C_4  and  C_7
REMARK    2  A    between atoms: C_12  and  C_18
REMARK    3  A    between atoms: C_15  and  O_17
REMARK    4  A    between atoms: C_21  and  C_24
REMARK                            x       y       z     vdW  Elec       q    Type
REMARK                         _______ _______ _______ _____ _____    ______ ____
ROOT
ATOM      1  C   UNL     1       3.698  -0.688  -0.037  0.00  0.00    +0.106 A 
ATOM      2  C   UNL     1       3.863  -1.903   0.635  0.00  0.00    +0.106 A 
ATOM      3  C   UNL     1       5.126  -2.434   0.506  0.00  0.00    +0.044 A 
ATOM      4  S   UNL     1       5.950  -1.341  -0.432  0.00  0.00    +0.010 S 
ATOM      5  N   UNL     1       4.739  -0.212  -0.691  0.00  0.00    -0.208 NA
ATOM      6  C   UNL     1       5.560  -3.730   1.115  0.00  0.00    +0.068 C 
ATOM      7  C   UNL     1       4.719  -3.950   2.381  0.00  0.00    +0.109 C 
ATOM      8  C   UNL     1       3.289  -3.557   2.151  0.00  0.00    +0.188 C 
ATOM      9  N   UNL     1       2.915  -2.601   1.367  0.00  0.00    -0.214 NA
ENDROOT
BRANCH   1  13
ATOM     10  C   UNL     1      -0.017   1.379   0.010  0.00  0.00    +0.000 A 
ATOM     11  C   UNL     1       1.169   2.092   0.002  0.00  0.00    +0.001 A 
ATOM     12  C   UNL     1       2.377   1.427  -0.013  0.00  0.00    +0.010 A 
ATOM     13  C   UNL     1       2.402   0.033  -0.021  0.00  0.00    +0.003 A 
ATOM     14  C   UNL     1       1.205  -0.680  -0.013  0.00  0.00    +0.010 A 
ATOM     15  C   UNL     1       0.002  -0.004   0.002  0.00  0.00    +0.001 A 
ENDBRANCH   1  13
BRANCH   6  16
ATOM     16  C   UNL     1       7.022  -3.662   1.476  0.00  0.00    -0.039 A 
ATOM     17  C   UNL     1       7.465  -2.712   2.379  0.00  0.00    +0.005 A 
ATOM     18  C   UNL     1       8.801  -2.644   2.713  0.00  0.00    +0.015 A 
ATOM     19  C   UNL     1       9.708  -3.537   2.137  0.00  0.00    +0.063 A 
ATOM     20  C   UNL     1       9.254  -4.494   1.226  0.00  0.00    +0.015 A 
ATOM     21  C   UNL     1       7.914  -4.554   0.905  0.00  0.00    +0.005 A 
BRANCH  19  22
ATOM     22  C   UNL     1      11.140  -3.470   2.489  0.00  0.00    +0.387 C 
ATOM     23  O   UNL     1      11.534  -2.631   3.287  0.00  0.00    -0.241 OA
ATOM     24  O   UNL     1      11.931  -4.253   1.983  0.00  0.00    -0.241 OA
ENDBRANCH  19  22
ENDBRANCH   6  16
BRANCH   8  25
ATOM     25  O   UNL     1       2.332  -4.247   2.807  0.00  0.00    -0.495 OA
ATOM     26  H   UNL     1       1.432  -3.947   2.618  0.00  0.00    +0.293 HD
ENDBRANCH   8  25
TORSDOF 4
