REMARK  Name = ZINC09716195
REMARK  7 active torsions:
REMARK  status: ('A' for Active; 'I' for Inactive)
REMARK    1  A    between atoms: C_8  and  S_10
REMARK    2  A    between atoms: S_10  and  C_11
REMARK    3  A    between atoms: C_11  and  C_12
REMARK    4  A    between atoms: N_14  and  N_15
REMARK    5  A    between atoms: C_16  and  C_18
REMARK    6  A    between atoms: C_18  and  N_19
REMARK    7  A    between atoms: C_20  and  C_22
REMARK                            x       y       z     vdW  Elec       q    Type
REMARK                         _______ _______ _______ _____ _____    ______ ____
ROOT
ATOM      1  N   UNL     1      -8.506   0.978   2.543  0.00  0.00    -0.233 N 
ATOM      2  C   UNL     1      -7.222   1.323   2.320  0.00  0.00    +0.246 C 
ATOM      3  O   UNL     1      -6.635   2.023   3.116  0.00  0.00    -0.273 OA
ATOM      4  H   UNL     1      -8.976   0.418   1.906  0.00  0.00    +0.173 HD
ENDROOT
BRANCH   1   7
ATOM      5  C   UNL     1     -10.445   1.086   3.920  0.00  0.00    +0.239 C 
ATOM      6  O   UNL     1     -11.033   0.385   3.123  0.00  0.00    -0.273 OA
ATOM      7  N   UNL     1      -9.162   1.430   3.696  0.00  0.00    -0.234 N 
ATOM      8  H   UNL     1      -8.692   1.991   4.333  0.00  0.00    +0.173 HD
BRANCH   5   9
ATOM      9  C   UNL     1     -11.151   1.572   5.160  0.00  0.00    +0.173 C 
BRANCH   9  10
ATOM     10  S   UNL     1     -12.849   0.945   5.172  0.00  0.00    -0.089 S 
BRANCH  10  18
ATOM     11  C   UNL     1     -16.273   2.771  10.314  0.00  0.00    +0.002 A 
ATOM     12  C   UNL     1     -15.228   3.495  10.867  0.00  0.00    +0.001 A 
ATOM     13  C   UNL     1     -14.015   3.548  10.204  0.00  0.00    +0.017 A 
ATOM     14  C   UNL     1     -13.866   2.885   9.012  0.00  0.00    +0.040 A 
ATOM     15  C   UNL     1     -14.908   2.138   8.418  0.00  0.00    +0.079 A 
ATOM     16  C   UNL     1     -16.133   2.106   9.124  0.00  0.00    +0.029 A 
ATOM     17  N   UNL     1     -14.607   1.541   7.244  0.00  0.00    -0.233 NA
ATOM     18  C   UNL     1     -13.422   1.645   6.684  0.00  0.00    +0.136 A 
ATOM     19  S   UNL     1     -12.538   2.671   7.851  0.00  0.00    -0.061 S 
ENDBRANCH  10  18
ENDBRANCH   9  10
ENDBRANCH   5   9
ENDBRANCH   1   7
BRANCH   2  20
ATOM     20  C   UNL     1      -6.517   0.837   1.080  0.00  0.00    +0.201 C 
BRANCH  20  21
ATOM     21  N   UNL     1      -5.143   1.344   1.069  0.00  0.00    -0.306 N 
ATOM     22  C   UNL     1      -4.318   1.035   0.049  0.00  0.00    +0.220 C 
ATOM     23  O   UNL     1      -4.714   0.337  -0.861  0.00  0.00    -0.275 OA
ATOM     24  H   UNL     1      -4.826   1.902   1.797  0.00  0.00    +0.149 HD
BRANCH  22  25
ATOM     25  C   UNL     1      -2.904   1.556   0.038  0.00  0.00    +0.048 C 
ATOM     26  C   UNL     1      -2.188   1.063  -1.221  0.00  0.00    +0.019 C 
ATOM     27  C   UNL     1      -0.753   1.593  -1.232  0.00  0.00    -0.009 C 
ATOM     28  C   UNL     1      -0.013   1.086   0.008  0.00  0.00    +0.007 C 
ATOM     29  C   UNL     1      -0.729   1.579   1.267  0.00  0.00    -0.009 C 
ATOM     30  C   UNL     1      -2.164   1.050   1.278  0.00  0.00    +0.019 C 
ATOM     31  C   UNL     1      -0.750   3.109   1.275  0.00  0.00    +0.007 C 
ATOM     32  C   UNL     1      -1.490   3.616   0.036  0.00  0.00    -0.009 C 
ATOM     33  C   UNL     1      -0.773   3.123  -1.223  0.00  0.00    +0.007 C 
ATOM     34  C   UNL     1      -2.925   3.086   0.047  0.00  0.00    +0.019 C 
ENDBRANCH  22  25
ENDBRANCH  20  21
ENDBRANCH   2  20
TORSDOF 7
