REMARK  Name = ZINC16956698
REMARK  7 active torsions:
REMARK  status: ('A' for Active; 'I' for Inactive)
REMARK    1  A    between atoms: C_1  and  C_2
REMARK    2  A    between atoms: C_2  and  O_3
REMARK    3  A    between atoms: O_3  and  C_4
REMARK    4  A    between atoms: C_4  and  C_6
REMARK    5  A    between atoms: C_7  and  C_22
REMARK    6  A    between atoms: C_10  and  N_11
REMARK    7  A    between atoms: N_11  and  C_12
REMARK                            x       y       z     vdW  Elec       q    Type
REMARK                         _______ _______ _______ _____ _____    ______ ____
ROOT
ATOM      1  C   UNL     1       1.459  -2.220  -2.549  0.00  0.00    +0.095 A 
ATOM      2  C   UNL     1       2.909  -2.238  -2.630  0.00  0.00    +0.012 A 
ATOM      3  C   UNL     1       3.421  -2.502  -3.863  0.00  0.00    +0.057 A 
ATOM      4  S   UNL     1       1.970  -2.715  -4.871  0.00  0.00    -0.081 S 
ATOM      5  C   UNL     1       0.769  -2.476  -3.725  0.00  0.00    +0.084 A 
ENDROOT
BRANCH   2   6
ATOM      6  C   UNL     1       3.768  -1.988  -1.454  0.00  0.00    +0.021 A 
ATOM      7  C   UNL     1       4.829  -2.719  -0.990  0.00  0.00    +0.016 A 
ATOM      8  C   UNL     1       5.488  -2.284   0.141  0.00  0.00    +0.008 A 
ATOM      9  C   UNL     1       5.068  -1.151   0.756  0.00  0.00    +0.046 A 
ATOM     10  S   UNL     1       3.699  -0.650  -0.275  0.00  0.00    -0.097 S 
ENDBRANCH   2   6
BRANCH   1  11
ATOM     11  C   UNL     1       0.761  -1.952  -1.292  0.00  0.00    +0.342 C 
ATOM     12  O   UNL     1       0.475  -2.870  -0.547  0.00  0.00    -0.245 OA
BRANCH  11  13
ATOM     13  O   UNL     1       0.436  -0.686  -0.958  0.00  0.00    -0.461 OA
BRANCH  13  15
ATOM     14  C   UNL     1      -0.527   0.993   0.490  0.00  0.00    +0.048 C 
ATOM     15  C   UNL     1      -0.244  -0.497   0.285  0.00  0.00    +0.229 C 
ENDBRANCH  13  15
ENDBRANCH  11  13
ENDBRANCH   1  11
BRANCH   5  16
ATOM     16  N   UNL     1      -0.601  -2.522  -3.911  0.00  0.00    -0.314 N 
ATOM     17  H   UNL     1      -1.198  -2.363  -3.163  0.00  0.00    +0.152 HD
BRANCH  16  18
ATOM     18  C   UNL     1      -1.106  -2.786  -5.131  0.00  0.00    +0.091 C 
ATOM     19  C   UNL     1      -2.479  -2.717  -5.345  0.00  0.00    +0.119 C 
ATOM     20  C   UNL     1      -3.392  -2.182  -4.324  0.00  0.00    +0.286 C 
ATOM     21  N   UNL     1      -4.690  -2.149  -4.604  0.00  0.00    -0.184 NA
ATOM     22  C   UNL     1      -5.163  -2.581  -5.764  0.00  0.00    +0.195 C 
ATOM     23  N   UNL     1      -4.405  -3.076  -6.731  0.00  0.00    -0.150 NA
ATOM     24  C   UNL     1      -3.086  -3.169  -6.606  0.00  0.00    +0.276 C 
ATOM     25  O   UNL     1      -2.332  -3.665  -7.595  0.00  0.00    -0.268 OA
ATOM     26  S   UNL     1      -6.901  -2.493  -6.035  0.00  0.00    -0.012 SA
ATOM     27  O   UNL     1      -2.929  -1.742  -3.147  0.00  0.00    -0.265 OA
ENDBRANCH  16  18
ENDBRANCH   5  16
TORSDOF 6
