REMARK  Name = ZINC36925551
REMARK  5 active torsions:
REMARK  status: ('A' for Active; 'I' for Inactive)
REMARK    1  A    between atoms: C_1  and  C_2
REMARK    2  A    between atoms: C_6  and  N_15
REMARK    3  A    between atoms: C_7  and  N_8
REMARK    4  A    between atoms: N_8  and  S_9
REMARK    5  A    between atoms: S_9  and  C_12
REMARK                            x       y       z     vdW  Elec       q    Type
REMARK                         _______ _______ _______ _____ _____    ______ ____
ROOT
ATOM      1  C   UNL     1      -0.035   0.999  -0.257  0.00  0.00    +0.046 C 
ATOM      2  C   UNL     1       0.179  -0.467   0.025  0.00  0.00    -0.024 A 
ATOM      3  C   UNL     1       0.255  -1.368  -1.021  0.00  0.00    +0.005 A 
ATOM      4  C   UNL     1       0.451  -2.712  -0.768  0.00  0.00    +0.002 A 
ATOM      5  C   UNL     1       0.572  -3.164   0.534  0.00  0.00    +0.025 A 
ATOM      6  C   UNL     1       0.497  -2.268   1.588  0.00  0.00    +0.050 A 
ATOM      7  C   UNL     1       0.304  -0.910   1.332  0.00  0.00    +0.098 A 
ENDROOT
BRANCH   6   8
ATOM      8  N   UNL     1       0.620  -2.723   2.907  0.00  0.00    -0.356 N 
ATOM      9  H   UNL     1       0.829  -3.654   3.081  0.00  0.00    +0.142 HD
ATOM     10  H   UNL     1       0.495  -2.108   3.646  0.00  0.00    +0.142 HD
ENDBRANCH   6   8
BRANCH   7  11
ATOM     11  N   UNL     1       0.233   0.001   2.393  0.00  0.00    -0.095 NA
BRANCH  11  12
ATOM     12  S   UNL     1       1.415   1.145   2.583  0.00  0.00    +0.125 S 
ATOM     13  O   UNL     1       2.630   0.409   2.616  0.00  0.00    -0.148 OA
ATOM     14  O   UNL     1       1.171   2.094   1.553  0.00  0.00    -0.148 OA
BRANCH  12  15
ATOM     15  C   UNL     1       1.089   1.887   4.206  0.00  0.00    +0.501 C 
ATOM     16  F   UNL     1       1.162   0.899   5.193  0.00  0.00    -0.182 F 
ATOM     17  F   UNL     1       2.043   2.877   4.466  0.00  0.00    -0.182 F 
ENDBRANCH  12  15
ENDBRANCH  11  12
ENDBRANCH   7  11
TORSDOF 4
