REMARK  Name = ZINC44490990
REMARK  6 active torsions:
REMARK  status: ('A' for Active; 'I' for Inactive)
REMARK    1  A    between atoms: C_1  and  C_2
REMARK    2  A    between atoms: C_2  and  C_4
REMARK    3  A    between atoms: C_2  and  N_10
REMARK    4  A    between atoms: C_4  and  N_5
REMARK    5  A    between atoms: C_11  and  C_13
REMARK    6  A    between atoms: C_18  and  O_19
REMARK                            x       y       z     vdW  Elec       q    Type
REMARK                         _______ _______ _______ _____ _____    ______ ____
ROOT
ATOM      1  N   UNL     1       0.711  -0.489   1.189  0.00  0.00    -0.307 N 
ATOM      2  C   UNL     1       2.054  -0.600   1.174  0.00  0.00    +0.248 C 
ATOM      3  O   UNL     1       2.678  -0.297   0.175  0.00  0.00    -0.270 OA
ATOM      4  H   UNL     1       0.213  -0.731   1.986  0.00  0.00    +0.149 HD
ENDROOT
BRANCH   2   5
ATOM      5  C   UNL     1       2.767  -1.088   2.369  0.00  0.00    +0.078 A 
ATOM      6  C   UNL     1       2.054  -1.443   3.517  0.00  0.00    +0.018 A 
ATOM      7  C   UNL     1       2.725  -1.899   4.629  0.00  0.00    +0.016 A 
ATOM      8  C   UNL     1       4.108  -2.008   4.616  0.00  0.00    +0.021 A 
ATOM      9  C   UNL     1       4.825  -1.660   3.487  0.00  0.00    +0.061 A 
ATOM     10  C   UNL     1       4.164  -1.205   2.357  0.00  0.00    +0.130 A 
ATOM     11 BR   UNL     1       5.016  -2.636   6.151  0.00  0.00    -0.050 Br
BRANCH  10  12
ATOM     12  O   UNL     1       4.866  -0.868   1.246  0.00  0.00    -0.506 OA
ATOM     13  H   UNL     1       5.141   0.059   1.221  0.00  0.00    +0.292 HD
ENDBRANCH  10  12
ENDBRANCH   2   5
BRANCH   1  15
ATOM     14  C   UNL     1      -0.019   1.526   0.010  0.00  0.00    +0.030 C 
ATOM     15  C   UNL     1       0.002  -0.004   0.002  0.00  0.00    +0.091 C 
BRANCH  15  16
ATOM     16  C   UNL     1      -1.433  -0.534   0.013  0.00  0.00    +0.165 C 
BRANCH  16  17
ATOM     17  N   UNL     1      -1.416  -1.993  -0.116  0.00  0.00    -0.270 N 
ATOM     18  C   UNL     1      -2.002  -2.871   0.726  0.00  0.00    +0.108 A 
ATOM     19  C   UNL     1      -1.756  -4.117   0.259  0.00  0.00    +0.041 A 
ATOM     20  C   UNL     1      -0.994  -3.996  -0.908  0.00  0.00    +0.134 A 
ATOM     21  N   UNL     1      -0.795  -2.723  -1.137  0.00  0.00    -0.180 NA
ENDBRANCH  16  17
ENDBRANCH  15  16
ENDBRANCH   1  15
TORSDOF 5
