REMARK  Name = ZINC21325553
REMARK  9 active torsions:
REMARK  status: ('A' for Active; 'I' for Inactive)
REMARK    1  A    between atoms: C_5  and  C_7
REMARK    2  A    between atoms: C_7  and  O_8
REMARK    3  A    between atoms: O_8  and  C_9
REMARK    4  A    between atoms: C_14  and  C_15
REMARK    5  A    between atoms: N_16  and  N_17
REMARK    6  A    between atoms: C_21  and  S_24
REMARK    7  A    between atoms: N_22  and  N_23
REMARK    8  A    between atoms: S_24  and  C_25
REMARK    9  A    between atoms: C_25  and  C_26
REMARK                            x       y       z     vdW  Elec       q    Type
REMARK                         _______ _______ _______ _____ _____    ______ ____
ROOT
ATOM      1  N   UNL     1      -1.484   7.170   2.438  0.00  0.00    -0.204 N 
ATOM      2  C   UNL     1      -1.153   5.979   1.810  0.00  0.00    +0.254 A 
ATOM      3  N   UNL     1      -0.585   5.860   0.634  0.00  0.00    -0.109 NA
ATOM      4  N   UNL     1      -0.423   4.494   0.368  0.00  0.00    -0.119 NA
ATOM      5  C   UNL     1      -0.897   3.823   1.391  0.00  0.00    +0.210 A 
ATOM      6  N   UNL     1      -1.365   4.722   2.306  0.00  0.00    -0.211 N 
ATOM      7  H   UNL     1      -2.035   7.155   3.391  0.00  0.00    +0.177 HD
ENDROOT
BRANCH   6   8
ATOM      8  N   UNL     1      -1.942   4.420   3.507  0.00  0.00    -0.294 N 
ATOM      9  H   UNL     1      -2.064   3.370   3.809  0.00  0.00    +0.163 HD
ATOM     10  H   UNL     1      -2.283   5.227   4.172  0.00  0.00    +0.163 HD
ENDBRANCH   6   8
BRANCH   1  12
ATOM     11  C   UNL     1      -1.341   9.504   2.494  0.00  0.00    +0.142 C 
ATOM     12  N   UNL     1      -1.119   8.393   1.860  0.00  0.00    -0.187 NA
BRANCH  11  18
ATOM     13  C   UNL     1      -1.400  11.996   2.478  0.00  0.00    +0.130 A 
ATOM     14  C   UNL     1      -1.131  13.203   1.856  0.00  0.00    +0.046 A 
ATOM     15  C   UNL     1      -0.529  13.223   0.612  0.00  0.00    +0.004 A 
ATOM     16  C   UNL     1      -0.191  12.039  -0.021  0.00  0.00    +0.001 A 
ATOM     17  C   UNL     1      -0.447  10.828   0.587  0.00  0.00    +0.013 A 
ATOM     18  C   UNL     1      -1.060  10.794   1.841  0.00  0.00    +0.036 A 
BRANCH  13  19
ATOM     19  O   UNL     1      -1.992  11.976   3.701  0.00  0.00    -0.487 OA
BRANCH  19  20
ATOM     20  C   UNL     1      -2.411  13.231   4.240  0.00  0.00    +0.266 C 
BRANCH  20  25
ATOM     21  C   UNL     1      -3.531  11.565   7.437  0.00  0.00    +0.000 A 
ATOM     22  C   UNL     1      -4.117  12.622   8.109  0.00  0.00    +0.001 A 
ATOM     23  C   UNL     1      -4.152  13.876   7.529  0.00  0.00    +0.020 A 
ATOM     24  C   UNL     1      -3.599  14.074   6.276  0.00  0.00    +0.047 A 
ATOM     25  C   UNL     1      -3.012  13.016   5.605  0.00  0.00    +0.008 A 
ATOM     26  C   UNL     1      -2.983  11.761   6.184  0.00  0.00    +0.008 A 
ATOM     27 CL   UNL     1      -3.643  15.649   5.547  0.00  0.00    -0.083 Cl
ENDBRANCH  20  25
ENDBRANCH  19  20
ENDBRANCH  13  19
ENDBRANCH  11  18
ENDBRANCH   1  12
BRANCH   5  28
ATOM     28  S   UNL     1      -0.931   2.068   1.552  0.00  0.00    -0.080 S 
BRANCH  28  29
ATOM     29  C   UNL     1      -0.177   1.471   0.014  0.00  0.00    +0.112 C 
BRANCH  29  30
ATOM     30  C   UNL     1      -0.144  -0.035   0.023  0.00  0.00    -0.037 A 
ATOM     31  C   UNL     1       0.953  -0.699   0.540  0.00  0.00    +0.007 A 
ATOM     32  C   UNL     1       0.982  -2.081   0.553  0.00  0.00    +0.038 A 
ATOM     33  C   UNL     1      -0.083  -2.800   0.038  0.00  0.00    +0.123 A 
ATOM     34  C   UNL     1      -1.179  -2.134  -0.485  0.00  0.00    +0.038 A 
ATOM     35  C   UNL     1      -1.208  -0.752  -0.492  0.00  0.00    +0.007 A 
ATOM     36  F   UNL     1      -0.053  -4.151   0.045  0.00  0.00    -0.205 F 
ENDBRANCH  29  30
ENDBRANCH  28  29
ENDBRANCH   5  28
TORSDOF 9
