REMARK  Name = ZINC44713725
REMARK  11 active torsions:
REMARK  status: ('A' for Active; 'I' for Inactive)
REMARK    1  A    between atoms: C_1  and  C_2
REMARK    2  A    between atoms: C_3  and  C_9
REMARK    3  A    between atoms: C_4  and  C_8
REMARK    4  A    between atoms: C_9  and  C_11
REMARK    5  A    between atoms: C_9  and  N_12
REMARK    6  A    between atoms: C_13  and  C_15
REMARK    7  A    between atoms: C_26  and  C_28
REMARK    8  A    between atoms: C_31  and  O_36
REMARK    9  A    between atoms: C_33  and  O_34
REMARK   10  A    between atoms: O_34  and  C_35
REMARK   11  A    between atoms: O_36  and  C_37
REMARK                            x       y       z     vdW  Elec       q    Type
REMARK                         _______ _______ _______ _____ _____    ______ ____
ROOT
ATOM      1  C   UNL     1      -2.648  -1.633  -4.884  0.00  0.00    +0.100 C 
ATOM      2  C   UNL     1      -1.989  -2.912  -5.446  0.00  0.00    +0.121 C 
ATOM      3  N   UNL     1      -2.693  -3.165  -6.726  0.00  0.00    -0.296 N 
ATOM      4  C   UNL     1      -2.883  -1.818  -7.314  0.00  0.00    +0.115 C 
ATOM      5  C   UNL     1      -3.233  -0.917  -6.113  0.00  0.00    -0.004 C 
ATOM      6  C   UNL     1      -2.591   0.457  -6.279  0.00  0.00    -0.010 C 
ATOM      7  C   UNL     1      -3.230   1.173  -7.473  0.00  0.00    -0.082 C 
ATOM      8  N   UNL     1      -4.674   1.309  -7.248  0.00  0.00    +0.379 N 
ATOM      9  C   UNL     1      -5.298  -0.018  -7.182  0.00  0.00    -0.082 C 
ATOM     10  C   UNL     1      -4.747  -0.784  -5.976  0.00  0.00    -0.010 C 
ATOM     11  C   UNL     1      -3.075  -4.352  -7.238  0.00  0.00    +0.250 C 
ATOM     12  O   UNL     1      -2.932  -5.369  -6.587  0.00  0.00    -0.270 OA
ATOM     13  H   UNL     1      -4.833   1.798  -6.380  0.00  0.00    -0.086 HD
ATOM     14  H   UNL     1      -5.083   1.835  -8.006  0.00  0.00    -0.086 HD
ENDROOT
BRANCH  11  15
ATOM     15  C   UNL     1      -3.665  -4.416  -8.586  0.00  0.00    +0.079 A 
ATOM     16  C   UNL     1      -3.219  -3.551  -9.590  0.00  0.00    +0.020 A 
ATOM     17  C   UNL     1      -3.772  -3.614 -10.848  0.00  0.00    +0.046 A 
ATOM     18  C   UNL     1      -4.776  -4.537 -11.126  0.00  0.00    +0.124 A 
ATOM     19  C   UNL     1      -5.226  -5.400 -10.138  0.00  0.00    +0.092 A 
ATOM     20  C   UNL     1      -4.673  -5.350  -8.870  0.00  0.00    +0.136 A 
BRANCH  20  21
ATOM     21  O   UNL     1      -5.107  -6.197  -7.903  0.00  0.00    -0.494 OA
ATOM     22  C   UNL     1      -6.136  -7.121  -8.265  0.00  0.00    +0.277 C 
ENDBRANCH  20  21
BRANCH  18  23
ATOM     23  O   UNL     1      -5.316  -4.593 -12.370  0.00  0.00    -0.495 OA
ATOM     24  C   UNL     1      -4.807  -3.676 -13.340  0.00  0.00    +0.277 C 
ENDBRANCH  18  23
ENDBRANCH  11  15
BRANCH   1  26
ATOM     25  N   UNL     1      -2.001   0.158  -3.306  0.00  0.00    -0.308 N 
ATOM     26  C   UNL     1      -1.618  -0.763  -4.211  0.00  0.00    +0.219 C 
ATOM     27  O   UNL     1      -0.443  -0.893  -4.485  0.00  0.00    -0.275 OA
ATOM     28  H   UNL     1      -2.940   0.262  -3.087  0.00  0.00    +0.149 HD
BRANCH  25  29
ATOM     29  C   UNL     1      -0.999   1.003  -2.652  0.00  0.00    +0.104 C 
ATOM     30  C   UNL     1      -0.338   0.223  -1.514  0.00  0.00    +0.033 C 
BRANCH  29  33
ATOM     31  C   UNL     1      -3.661   1.073  -1.010  0.00  0.00    +0.065 C 
ATOM     32  C   UNL     1      -2.818   2.264  -1.385  0.00  0.00    +0.038 A 
ATOM     33  C   UNL     1      -1.666   2.235  -2.095  0.00  0.00    +0.015 A 
ATOM     34  C   UNL     1      -1.205   3.549  -2.221  0.00  0.00    +0.065 A 
ATOM     35  N   UNL     1      -2.049   4.339  -1.609  0.00  0.00    -0.179 NA
ATOM     36  N   UNL     1      -3.078   3.552  -1.077  0.00  0.00    -0.281 N 
ATOM     37  H   UNL     1      -3.842   3.875  -0.575  0.00  0.00    +0.189 HD
ATOM     38  C   UNL     1       0.049   3.981  -2.938  0.00  0.00    +0.068 C 
ENDBRANCH  29  33
ENDBRANCH  25  29
ENDBRANCH   1  26
TORSDOF 6
