REMARK  Name = ZINC36202727
REMARK  10 active torsions:
REMARK  status: ('A' for Active; 'I' for Inactive)
REMARK    1  A    between atoms: C_4  and  C_7
REMARK    2  A    between atoms: C_7  and  C_8
REMARK    3  A    between atoms: C_7  and  C_14
REMARK    4  A    between atoms: C_7  and  O_34
REMARK    5  A    between atoms: C_17  and  C_19
REMARK    6  A    between atoms: C_19  and  N_20
REMARK    7  A    between atoms: N_20  and  C_21
REMARK    8  A    between atoms: N_20  and  C_27
REMARK    9  A    between atoms: C_21  and  C_22
REMARK   10  A    between atoms: C_27  and  C_28
REMARK                            x       y       z     vdW  Elec       q    Type
REMARK                         _______ _______ _______ _____ _____    ______ ____
ROOT
ATOM      1  C   UNL     1       5.669  -0.895  -0.399  0.00  0.00    +0.146 A 
ATOM      2  C   UNL     1       6.950  -1.139  -0.729  0.00  0.00    +0.048 A 
ATOM      3  C   UNL     1       7.017  -1.140  -2.141  0.00  0.00    +0.043 A 
ATOM      4  C   UNL     1       5.772  -0.897  -2.590  0.00  0.00    +0.089 A 
ATOM      5  O   UNL     1       4.959  -0.755  -1.531  0.00  0.00    -0.463 OA
ENDROOT
BRANCH   1   6
ATOM      6  C   UNL     1       5.122  -0.802   1.002  0.00  0.00    +0.174 C 
BRANCH   6  10
ATOM      7  C   UNL     1       1.790   1.870   1.056  0.00  0.00    +0.000 A 
ATOM      8  C   UNL     1       1.747   0.728   0.279  0.00  0.00    +0.000 A 
ATOM      9  C   UNL     1       2.825  -0.137   0.261  0.00  0.00    +0.007 A 
ATOM     10  C   UNL     1       3.947   0.141   1.020  0.00  0.00    -0.004 A 
ATOM     11  C   UNL     1       3.990   1.284   1.796  0.00  0.00    +0.007 A 
ATOM     12  C   UNL     1       2.911   2.148   1.815  0.00  0.00    +0.000 A 
ENDBRANCH   6  10
BRANCH   6  13
ATOM     13  C   UNL     1       4.678  -2.167   1.460  0.00  0.00    -0.004 A 
ATOM     14  C   UNL     1       4.026  -3.013   0.582  0.00  0.00    +0.007 A 
ATOM     15  C   UNL     1       3.619  -4.265   1.002  0.00  0.00    +0.000 A 
ATOM     16  C   UNL     1       3.863  -4.672   2.300  0.00  0.00    +0.000 A 
ATOM     17  C   UNL     1       4.516  -3.826   3.178  0.00  0.00    +0.000 A 
ATOM     18  C   UNL     1       4.927  -2.576   2.757  0.00  0.00    +0.007 A 
ENDBRANCH   6  13
BRANCH   6  19
ATOM     19  O   UNL     1       6.139  -0.313   1.879  0.00  0.00    -0.372 OA
ATOM     20  H   UNL     1       6.473   0.564   1.643  0.00  0.00    +0.212 HD
ENDBRANCH   6  19
ENDBRANCH   1   6
BRANCH   4  21
ATOM     21  C   UNL     1       5.359  -0.805  -4.037  0.00  0.00    -0.003 C 
BRANCH  21  22
ATOM     22  N   UNL     1       5.045  -2.148  -4.542  0.00  0.00    +0.389 N 
ATOM     23  H   UNL     1       5.826  -2.763  -4.371  0.00  0.00    -0.081 HD
BRANCH  22  24
ATOM     24  C   UNL     1       4.783  -2.078  -5.986  0.00  0.00    -0.042 C 
BRANCH  24  25
ATOM     25  C   UNL     1       6.041  -1.664  -6.705  0.00  0.00    -0.057 A 
ATOM     26  C   UNL     1       6.267  -0.335  -7.013  0.00  0.00    +0.009 A 
ATOM     27  C   UNL     1       7.409   0.004  -7.661  0.00  0.00    +0.045 A 
ATOM     28  S   UNL     1       8.208  -1.581  -7.855  0.00  0.00    -0.105 S 
ATOM     29  C   UNL     1       6.969  -2.587  -7.055  0.00  0.00    +0.047 A 
ENDBRANCH  24  25
ENDBRANCH  22  24
BRANCH  22  30
ATOM     30  C   UNL     1       3.854  -2.664  -3.853  0.00  0.00    -0.046 C 
BRANCH  30  31
ATOM     31  C   UNL     1       3.599  -4.109  -4.288  0.00  0.00    +0.102 C 
ATOM     32  C   UNL     1       2.284  -4.620  -3.663  0.00  0.00    +0.032 C 
ATOM     33  C   UNL     1       2.641  -6.085  -3.294  0.00  0.00    +0.030 C 
ATOM     34  C   UNL     1       4.135  -5.936  -2.912  0.00  0.00    +0.160 C 
ATOM     35  O   UNL     1       4.659  -4.951  -3.820  0.00  0.00    -0.378 OA
ENDBRANCH  30  31
ENDBRANCH  22  30
ENDBRANCH  21  22
ENDBRANCH   4  21
TORSDOF 10
