REMARK  Name = ZINC39670906
REMARK  7 active torsions:
REMARK  status: ('A' for Active; 'I' for Inactive)
REMARK    1  A    between atoms: C_3  and  C_6
REMARK    2  A    between atoms: C_6  and  C_7
REMARK    3  A    between atoms: C_7  and  N_8
REMARK    4  A    between atoms: C_9  and  C_11
REMARK    5  A    between atoms: C_22  and  C_24
REMARK    6  A    between atoms: C_24  and  C_25
REMARK    7  A    between atoms: C_25  and  C_26
REMARK                            x       y       z     vdW  Elec       q    Type
REMARK                         _______ _______ _______ _____ _____    ______ ____
ROOT
ATOM      1  C   UNL     1       7.779   0.515   2.539  0.00  0.00    +0.100 C 
ATOM      2  C   UNL     1       8.280  -0.837   1.983  0.00  0.00    +0.121 C 
ATOM      3  N   UNL     1       9.480  -1.153   2.794  0.00  0.00    -0.300 N 
ATOM      4  C   UNL     1       9.119  -0.729   4.168  0.00  0.00    +0.115 C 
ATOM      5  C   UNL     1       8.331   0.582   3.973  0.00  0.00    -0.004 C 
ATOM      6  C   UNL     1       7.184   0.662   4.977  0.00  0.00    -0.010 C 
ATOM      7  C   UNL     1       7.758   0.786   6.391  0.00  0.00    -0.082 C 
ATOM      8  N   UNL     1       8.596   1.989   6.477  0.00  0.00    +0.379 N 
ATOM      9  C   UNL     1       9.747   1.862   5.576  0.00  0.00    -0.082 C 
ATOM     10  C   UNL     1       9.258   1.784   4.127  0.00  0.00    -0.010 C 
ATOM     11  C   UNL     1      10.638  -1.702   2.376  0.00  0.00    +0.216 C 
ATOM     12  O   UNL     1      11.535  -1.901   3.168  0.00  0.00    -0.276 OA
ATOM     13  H   UNL     1       8.051   2.796   6.214  0.00  0.00    -0.086 HD
ATOM     14  H   UNL     1       8.923   2.102   7.425  0.00  0.00    -0.086 HD
ENDROOT
BRANCH   1  16
ATOM     15  N   UNL     1       5.625   1.726   2.435  0.00  0.00    -0.315 N 
ATOM     16  C   UNL     1       6.273   0.550   2.554  0.00  0.00    +0.218 C 
ATOM     17  O   UNL     1       5.643  -0.480   2.673  0.00  0.00    -0.275 OA
ATOM     18  H   UNL     1       6.128   2.550   2.339  0.00  0.00    +0.149 HD
BRANCH  15  19
ATOM     19  C   UNL     1       4.160   1.760   2.449  0.00  0.00    +0.112 C 
BRANCH  19  20
ATOM     20  C   UNL     1       3.682   3.205   2.299  0.00  0.00    +0.093 C 
BRANCH  20  23
ATOM     21  C   UNL     1       0.060   3.358   2.963  0.00  0.00    +0.041 A 
ATOM     22  C   UNL     1       1.403   3.376   3.406  0.00  0.00    +0.044 A 
ATOM     23  C   UNL     1       2.175   3.240   2.314  0.00  0.00    +0.106 A 
ATOM     24  O   UNL     1       1.377   3.142   1.238  0.00  0.00    -0.468 OA
ATOM     25  C   UNL     1       0.093   3.212   1.626  0.00  0.00    +0.195 A 
ENDBRANCH  20  23
ENDBRANCH  19  20
ENDBRANCH  15  19
ENDBRANCH   1  16
BRANCH  11  26
ATOM     26  C   UNL     1      10.818  -2.068   0.926  0.00  0.00    +0.096 C 
BRANCH  26  27
ATOM     27  C   UNL     1      12.211  -2.668   0.721  0.00  0.00    +0.013 C 
BRANCH  27  28
ATOM     28  C   UNL     1      12.394  -3.039  -0.752  0.00  0.00    -0.011 C 
ATOM     29  C   UNL     1      11.462  -4.212  -1.121  0.00  0.00    +0.003 C 
ATOM     30  C   UNL     1      12.298  -5.067  -2.105  0.00  0.00    +0.000 C 
ATOM     31  C   UNL     1      13.724  -4.980  -1.507  0.00  0.00    +0.000 C 
ATOM     32  C   UNL     1      13.832  -3.528  -0.998  0.00  0.00    +0.003 C 
ENDBRANCH  27  28
ENDBRANCH  26  27
ENDBRANCH  11  26
TORSDOF 7
