REMARK  Name = ZINC08735499
REMARK  8 active torsions:
REMARK  status: ('A' for Active; 'I' for Inactive)
REMARK    1  A    between atoms: C_1  and  C_2
REMARK    2  A    between atoms: C_2  and  C_3
REMARK    3  A    between atoms: C_3  and  C_33
REMARK    4  A    between atoms: N_6  and  N_10
REMARK    5  A    between atoms: C_11  and  C_13
REMARK    6  A    between atoms: C_13  and  N_60
REMARK    7  A    between atoms: N_16  and  C_19
REMARK    8  A    between atoms: N_22  and  C_27
REMARK                            x       y       z     vdW  Elec       q    Type
REMARK                         _______ _______ _______ _____ _____    ______ ____
ROOT
ATOM      1  C   UNL     1      -2.469   0.234  -0.781  0.00  0.00    -0.059 C 
ATOM      2  C   UNL     1      -3.588  -0.808  -0.703  0.00  0.00    +0.086 C 
ATOM      3  N   UNL     1      -4.884  -0.146  -0.906  0.00  0.00    -0.331 N 
ATOM      4  C   UNL     1      -5.110   0.888   0.113  0.00  0.00    +0.086 C 
ATOM      5  C   UNL     1      -3.991   1.930   0.035  0.00  0.00    -0.059 C 
ATOM      6  N   UNL     1      -2.696   1.256   0.263  0.00  0.00    +0.387 N 
ATOM      7  H   UNL     1      -2.715   0.797   1.181  0.00  0.00    -0.081 HD
ENDROOT
BRANCH   3   8
ATOM      8  C   UNL     1      -5.917  -1.070  -0.913  0.00  0.00    +0.074 A 
ATOM      9  C   UNL     1      -6.194  -1.837   0.239  0.00  0.00    +0.158 A 
ATOM     10  N   UNL     1      -7.169  -2.702   0.237  0.00  0.00    -0.170 NA
ATOM     11  N   UNL     1      -7.954  -2.901  -0.904  0.00  0.00    -0.195 N 
ATOM     12  C   UNL     1      -7.721  -2.194  -2.028  0.00  0.00    +0.292 A 
ATOM     13  O   UNL     1      -8.410  -2.373  -3.020  0.00  0.00    -0.264 OA
ATOM     14  C   UNL     1      -6.682  -1.253  -2.050  0.00  0.00    +0.129 A 
ATOM     15 CL   UNL     1      -6.361  -0.330  -3.486  0.00  0.00    -0.076 Cl
BRANCH  11  16
ATOM     16  C   UNL     1      -8.990  -3.841  -0.878  0.00  0.00    +0.069 A 
ATOM     17  C   UNL     1     -10.255  -3.496  -1.337  0.00  0.00    +0.028 A 
ATOM     18  C   UNL     1     -11.274  -4.428  -1.315  0.00  0.00    +0.002 A 
ATOM     19  C   UNL     1     -11.039  -5.700  -0.826  0.00  0.00    +0.000 A 
ATOM     20  C   UNL     1      -9.782  -6.045  -0.364  0.00  0.00    +0.002 A 
ATOM     21  C   UNL     1      -8.757  -5.120  -0.389  0.00  0.00    +0.028 A 
ENDBRANCH  11  16
ENDBRANCH   3   8
BRANCH   6  22
ATOM     22  C   UNL     1      -1.599   2.248   0.245  0.00  0.00    +0.020 C 
BRANCH  22  24
ATOM     23  N   UNL     1       0.817   2.284   0.775  0.00  0.00    -0.225 N 
ATOM     24  C   UNL     1      -0.328   1.576   0.696  0.00  0.00    +0.213 C 
ATOM     25  O   UNL     1      -0.333   0.398   0.983  0.00  0.00    -0.276 OA
ATOM     26  H   UNL     1       0.821   3.226   0.545  0.00  0.00    +0.173 HD
BRANCH  23  30
ATOM     27  C   UNL     1       3.807   0.963   2.401  0.00  0.00    +0.111 C 
ATOM     28  C   UNL     1       2.559   1.824   2.403  0.00  0.00    +0.263 C 
ATOM     29  O   UNL     1       2.149   2.516   3.310  0.00  0.00    -0.271 OA
ATOM     30  N   UNL     1       2.000   1.658   1.188  0.00  0.00    -0.137 N 
ATOM     31  C   UNL     1       2.717   0.827   0.424  0.00  0.00    +0.326 C 
ATOM     32  O   UNL     1       2.416   0.525  -0.714  0.00  0.00    -0.251 OA
ATOM     33  N   UNL     1       3.810   0.361   1.057  0.00  0.00    -0.284 N 
ATOM     34  C   UNL     1       3.719  -0.122   3.476  0.00  0.00    +0.041 C 
ATOM     35  H   UNL     1       4.471  -0.251   0.697  0.00  0.00    +0.151 HD
BRANCH  27  37
ATOM     36  C   UNL     1       6.305   0.976   2.370  0.00  0.00    +0.006 C 
ATOM     37  C   UNL     1       5.054   1.824   2.608  0.00  0.00    +0.032 C 
ENDBRANCH  27  37
ENDBRANCH  23  30
ENDBRANCH  22  24
ENDBRANCH   6  22
TORSDOF 6
