REMARK  Name = ZINC21167095
REMARK  5 active torsions:
REMARK  status: ('A' for Active; 'I' for Inactive)
REMARK    1  A    between atoms: C_1  and  C_2
REMARK    2  A    between atoms: C_4  and  C_30
REMARK    3  A    between atoms: C_6  and  N_8
REMARK    4  A    between atoms: N_8  and  C_9
REMARK    5  A    between atoms: C_9  and  C_10
REMARK                            x       y       z     vdW  Elec       q    Type
REMARK                         _______ _______ _______ _____ _____    ______ ____
ROOT
ATOM      1  N   UNL     1       3.642   3.202   3.330  0.00  0.00    -0.277 N 
ATOM      2  C   UNL     1       3.014   2.700   2.212  0.00  0.00    +0.136 C 
ATOM      3  N   UNL     1       2.168   3.316   1.449  0.00  0.00    -0.362 N 
ATOM      4  C   UNL     1       1.588   2.686   0.278  0.00  0.00    +0.117 C 
ATOM      5  C   UNL     1       1.885   3.561  -0.964  0.00  0.00    +0.191 C 
ATOM      6  S   UNL     1       2.114   2.289  -2.280  0.00  0.00    -0.028 S 
ATOM      7  O   UNL     1       3.123   2.722  -3.182  0.00  0.00    -0.174 OA
ATOM      8  O   UNL     1       0.844   1.893  -2.779  0.00  0.00    -0.174 OA
ATOM      9  C   UNL     1       2.791   0.952  -1.201  0.00  0.00    +0.182 C 
ATOM     10  C   UNL     1       2.036   1.226   0.113  0.00  0.00    +0.099 C 
ATOM     11  S   UNL     1       3.201   1.068   1.519  0.00  0.00    -0.085 S 
ATOM     12  H   UNL     1       1.869   4.348   1.681  0.00  0.00    +0.162 HD
ENDROOT
BRANCH   1  18
ATOM     13  C   UNL     1       4.816   6.999   6.224  0.00  0.00    +0.044 C 
ATOM     14  C   UNL     1       4.025   6.411   5.083  0.00  0.00    -0.048 A 
ATOM     15  C   UNL     1       3.129   7.199   4.386  0.00  0.00    +0.006 A 
ATOM     16  C   UNL     1       2.402   6.663   3.339  0.00  0.00    -0.048 A 
ATOM     17  C   UNL     1       2.569   5.339   2.986  0.00  0.00    +0.027 A 
ATOM     18  C   UNL     1       3.469   4.544   3.685  0.00  0.00    +0.036 A 
ATOM     19  C   UNL     1       4.194   5.084   4.740  0.00  0.00    +0.027 A 
ATOM     20  C   UNL     1       1.425   7.526   2.581  0.00  0.00    +0.044 C 
ENDBRANCH   1  18
BRANCH   1  21
ATOM     21  C   UNL     1       4.489   2.332   4.149  0.00  0.00    +0.149 C 
BRANCH  21  22
ATOM     22  C   UNL     1       5.926   2.479   3.716  0.00  0.00    -0.011 A 
ATOM     23  C   UNL     1       6.241   3.260   2.620  0.00  0.00    +0.009 A 
ATOM     24  C   UNL     1       7.557   3.396   2.224  0.00  0.00    +0.039 A 
ATOM     25  C   UNL     1       8.562   2.750   2.924  0.00  0.00    +0.125 A 
ATOM     26  C   UNL     1       8.246   1.967   4.021  0.00  0.00    +0.058 A 
ATOM     27  C   UNL     1       6.928   1.836   4.420  0.00  0.00    +0.048 A 
ATOM     28 CL   UNL     1       6.532   0.861   5.801  0.00  0.00    -0.083 Cl
ATOM     29  F   UNL     1       9.849   2.883   2.537  0.00  0.00    -0.205 F 
ENDBRANCH  21  22
ENDBRANCH   1  21
TORSDOF 3
