REMARK  Name = ZINC34387199
REMARK  9 active torsions:
REMARK  status: ('A' for Active; 'I' for Inactive)
REMARK    1  A    between atoms: C_1  and  C_2
REMARK    2  A    between atoms: C_2  and  C_3
REMARK    3  A    between atoms: C_3  and  C_5
REMARK    4  A    between atoms: C_3  and  C_6
REMARK    5  A    between atoms: C_6  and  C_34
REMARK    6  A    between atoms: C_11  and  C_14
REMARK    7  A    between atoms: C_19  and  C_20
REMARK    8  A    between atoms: N_23  and  C_26
REMARK    9  A    between atoms: C_29  and  C_33
REMARK                            x       y       z     vdW  Elec       q    Type
REMARK                         _______ _______ _______ _____ _____    ______ ____
ROOT
ATOM      1  C   UNL     1       0.541  -1.955  -0.828  0.00  0.00    +0.051 C 
ATOM      2  C   UNL     1       1.430  -2.861  -1.663  0.00  0.00    +0.086 C 
ATOM      3  C   UNL     1       2.749  -2.747  -0.808  0.00  0.00    +0.077 C 
ATOM      4  C   UNL     1       2.250  -2.986   0.557  0.00  0.00    -0.026 C 
ATOM      5  N   UNL     1       0.997  -2.138   0.584  0.00  0.00    +0.396 N 
ATOM      6  C   UNL     1       3.738  -3.251  -1.728  0.00  0.00    +0.229 C 
ATOM      7  O   UNL     1       4.735  -3.888  -1.462  0.00  0.00    -0.275 OA
ATOM      8  N   UNL     1       3.307  -2.853  -2.969  0.00  0.00    -0.210 N 
ATOM      9  C   UNL     1       2.005  -2.404  -2.967  0.00  0.00    +0.229 C 
ATOM     10  O   UNL     1       1.441  -1.769  -3.832  0.00  0.00    -0.275 OA
ATOM     11  H   UNL     1       1.194  -1.239   0.998  0.00  0.00    -0.083 HD
ATOM     12  H   UNL     1       0.281  -2.610   1.115  0.00  0.00    -0.083 HD
ENDROOT
BRANCH   8  13
ATOM     13  C   UNL     1       4.104  -2.906  -4.122  0.00  0.00    +0.045 A 
ATOM     14  C   UNL     1       3.593  -2.478  -5.340  0.00  0.00    +0.024 A 
ATOM     15  C   UNL     1       4.380  -2.531  -6.474  0.00  0.00    +0.006 A 
ATOM     16  C   UNL     1       5.675  -3.010  -6.398  0.00  0.00    -0.032 A 
ATOM     17  C   UNL     1       6.186  -3.438  -5.185  0.00  0.00    +0.046 A 
ATOM     18  C   UNL     1       5.405  -3.382  -4.046  0.00  0.00    +0.044 A 
ATOM     19 CL   UNL     1       7.812  -4.039  -5.094  0.00  0.00    -0.083 Cl
ATOM     20  C   UNL     1       6.530  -3.067  -7.637  0.00  0.00    +0.045 C 
ENDBRANCH   8  13
BRANCH   4  21
ATOM     21  C   UNL     1       1.940  -4.445   0.766  0.00  0.00    -0.058 A 
ATOM     22  C   UNL     1       0.653  -4.913   0.578  0.00  0.00    +0.002 A 
ATOM     23  C   UNL     1       0.369  -6.252   0.770  0.00  0.00    +0.000 A 
ATOM     24  C   UNL     1       1.373  -7.124   1.150  0.00  0.00    +0.000 A 
ATOM     25  C   UNL     1       2.660  -6.657   1.337  0.00  0.00    +0.003 A 
ATOM     26  C   UNL     1       2.945  -5.318   1.141  0.00  0.00    -0.049 A 
ATOM     27  C   UNL     1       4.349  -4.809   1.340  0.00  0.00    +0.044 C 
ENDBRANCH   4  21
BRANCH   1  28
ATOM     28  C   UNL     1      -0.902  -2.367  -0.966  0.00  0.00    +0.347 C 
ATOM     29  O   UNL     1      -1.443  -2.334  -2.058  0.00  0.00    -0.248 OA
ATOM     30  O   UNL     1      -1.529  -2.732   0.014  0.00  0.00    -0.248 OA
ENDBRANCH   1  28
BRANCH   1  31
ATOM     31  C   UNL     1       0.718  -0.497  -1.257  0.00  0.00    -0.014 C 
ATOM     32  C   UNL     1       2.159  -0.059  -0.988  0.00  0.00    +0.006 C 
BRANCH  31  34
ATOM     33  C   UNL     1      -0.154   1.827  -0.976  0.00  0.00    +0.004 C 
ATOM     34  C   UNL     1      -0.242   0.389  -0.461  0.00  0.00    -0.001 C 
ENDBRANCH  31  34
ENDBRANCH   1  31
TORSDOF 5
