REMARK  Name = ZINC17058993
REMARK  7 active torsions:
REMARK  status: ('A' for Active; 'I' for Inactive)
REMARK    1  A    between atoms: C_1  and  O_2
REMARK    2  A    between atoms: O_2  and  C_3
REMARK    3  A    between atoms: C_6  and  S_9
REMARK    4  A    between atoms: S_9  and  O_12
REMARK    5  A    between atoms: O_12  and  C_13
REMARK    6  A    between atoms: C_16  and  C_19
REMARK    7  A    between atoms: C_24  and  C_31
REMARK                            x       y       z     vdW  Elec       q    Type
REMARK                         _______ _______ _______ _____ _____    ______ ____
ROOT
ATOM      1  C   UNL     1      -1.720   2.194   1.663  0.00  0.00    +0.024 C 
ATOM      2  C   UNL     1      -1.575   1.504   0.481  0.00  0.00    +0.079 C 
ATOM      3  C   UNL     1      -1.764   2.163  -0.842  0.00  0.00    +0.136 C 
ATOM      4  N   UNL     1      -2.619   3.128  -1.047  0.00  0.00    -0.284 NA
ATOM      5  N   UNL     1      -0.927   1.639  -1.854  0.00  0.00    -0.233 N 
ATOM      6  C   UNL     1      -0.585   2.296  -3.008  0.00  0.00    +0.056 C 
ATOM      7  C   UNL     1       0.166   1.649  -3.925  0.00  0.00    +0.072 C 
ATOM      8  S   UNL     1       0.423   0.063  -3.147  0.00  0.00    -0.062 S 
ATOM      9  C   UNL     1      -0.444   0.360  -1.688  0.00  0.00    +0.163 C 
ATOM     10  N   UNL     1      -0.599  -0.416  -0.640  0.00  0.00    -0.154 NA
ATOM     11  C   UNL     1      -1.221   0.063   0.454  0.00  0.00    +0.273 C 
ATOM     12  O   UNL     1      -1.487  -0.666   1.395  0.00  0.00    -0.268 OA
ATOM     13  H   UNL     1      -3.226   3.397  -0.340  0.00  0.00    +0.188 HD
ENDROOT
BRANCH   1  17
ATOM     14  C   UNL     1      -2.183   6.401   1.616  0.00  0.00    +0.157 A 
ATOM     15  C   UNL     1      -2.823   5.644   2.593  0.00  0.00    +0.049 A 
ATOM     16  C   UNL     1      -2.677   4.282   2.613  0.00  0.00    +0.011 A 
ATOM     17  C   UNL     1      -1.881   3.650   1.647  0.00  0.00    -0.024 A 
ATOM     18  C   UNL     1      -1.234   4.418   0.668  0.00  0.00    +0.011 A 
ATOM     19  C   UNL     1      -1.392   5.780   0.655  0.00  0.00    +0.049 A 
BRANCH  14  20
ATOM     20  O   UNL     1      -2.331   7.750   1.601  0.00  0.00    -0.342 OA
BRANCH  20  21
ATOM     21  S   UNL     1      -1.290   8.496   2.423  0.00  0.00    +0.151 S 
ATOM     22  O   UNL     1      -1.707   9.853   2.471  0.00  0.00    -0.131 OA
ATOM     23  O   UNL     1      -1.069   7.724   3.596  0.00  0.00    -0.131 OA
BRANCH  21  27
ATOM     24  C   UNL     1       2.580   8.413   0.073  0.00  0.00    +0.120 A 
ATOM     25  C   UNL     1       1.679   9.452  -0.109  0.00  0.00    +0.047 A 
ATOM     26  C   UNL     1       0.499   9.475   0.609  0.00  0.00    +0.034 A 
ATOM     27  C   UNL     1       0.216   8.464   1.509  0.00  0.00    +0.128 A 
ATOM     28  C   UNL     1       1.115   7.430   1.696  0.00  0.00    +0.034 A 
ATOM     29  C   UNL     1       2.294   7.400   0.976  0.00  0.00    +0.047 A 
BRANCH  24  31
ATOM     30  C   UNL     1       4.622   7.288  -0.394  0.00  0.00    +0.277 C 
ATOM     31  O   UNL     1       3.742   8.388  -0.633  0.00  0.00    -0.495 OA
ENDBRANCH  24  31
ENDBRANCH  21  27
ENDBRANCH  20  21
ENDBRANCH  14  20
ENDBRANCH   1  17
BRANCH   6  32
ATOM     32  C   UNL     1      -1.031   3.686  -3.244  0.00  0.00    -0.003 A 
ATOM     33  C   UNL     1      -2.390   3.973  -3.383  0.00  0.00    +0.010 A 
ATOM     34  C   UNL     1      -2.799   5.272  -3.599  0.00  0.00    +0.001 A 
ATOM     35  C   UNL     1      -1.865   6.290  -3.687  0.00  0.00    +0.000 A 
ATOM     36  C   UNL     1      -0.516   6.011  -3.556  0.00  0.00    +0.001 A 
ATOM     37  C   UNL     1      -0.094   4.717  -3.335  0.00  0.00    +0.010 A 
ENDBRANCH   6  32
TORSDOF 6
