REMARK  Name = ZINC39943977
REMARK  5 active torsions:
REMARK  status: ('A' for Active; 'I' for Inactive)
REMARK    1  A    between atoms: N_9  and  C_25
REMARK    2  A    between atoms: C_10  and  S_12
REMARK    3  A    between atoms: S_12  and  C_13
REMARK    4  A    between atoms: C_13  and  C_14
REMARK    5  A    between atoms: C_14  and  C_16
REMARK                            x       y       z     vdW  Elec       q    Type
REMARK                         _______ _______ _______ _____ _____    ______ ____
ROOT
ATOM      1  C   UNL     1      -0.017   1.363   0.009  0.00  0.00    +0.001 A 
ATOM      2  C   UNL     1       1.168   2.089   0.002  0.00  0.00    +0.002 A 
ATOM      3  C   UNL     1       2.379   1.458  -0.013  0.00  0.00    +0.028 A 
ATOM      4  C   UNL     1       2.432   0.061  -0.021  0.00  0.00    +0.079 A 
ATOM      5  C   UNL     1       1.225  -0.674  -0.013  0.00  0.00    +0.065 A 
ATOM      6  C   UNL     1       0.002  -0.004   0.002  0.00  0.00    +0.015 A 
ATOM      7  C   UNL     1       1.305  -2.141  -0.022  0.00  0.00    +0.267 A 
ATOM      8  O   UNL     1       0.300  -2.829  -0.016  0.00  0.00    -0.267 OA
ATOM      9  N   UNL     1       2.538  -2.699  -0.037  0.00  0.00    -0.254 N 
ATOM     10  C   UNL     1       3.655  -1.911  -0.043  0.00  0.00    +0.177 A 
ATOM     11  N   UNL     1       3.606  -0.602  -0.035  0.00  0.00    -0.223 NA
ENDROOT
BRANCH   9  12
ATOM     12  C   UNL     1       2.670  -4.094  -0.045  0.00  0.00    +0.070 A 
ATOM     13  C   UNL     1       2.730  -4.780  -1.251  0.00  0.00    +0.028 A 
ATOM     14  C   UNL     1       2.860  -6.155  -1.257  0.00  0.00    +0.002 A 
ATOM     15  C   UNL     1       2.931  -6.849  -0.063  0.00  0.00    +0.002 A 
ATOM     16  C   UNL     1       2.871  -6.171   1.140  0.00  0.00    +0.022 A 
ATOM     17  C   UNL     1       2.747  -4.794   1.153  0.00  0.00    +0.065 A 
ATOM     18 CL   UNL     1       2.680  -3.941   2.663  0.00  0.00    -0.081 Cl
ENDBRANCH   9  12
BRANCH  10  19
ATOM     19  S   UNL     1       5.235  -2.692  -0.061  0.00  0.00    -0.079 S 
BRANCH  19  20
ATOM     20  C   UNL     1       6.408  -1.309  -0.064  0.00  0.00    +0.156 C 
BRANCH  20  21
ATOM     21  C   UNL     1       7.817  -1.845  -0.080  0.00  0.00    +0.172 C 
ATOM     22  O   UNL     1       8.010  -3.044  -0.087  0.00  0.00    -0.291 OA
BRANCH  21  23
ATOM     23  C   UNL     1       8.911  -0.954  -0.085  0.00  0.00    +0.024 C 
ATOM     24  C   UNL     1      10.255  -1.280  -0.104  0.00  0.00    +0.006 A 
ATOM     25  C   UNL     1      10.946  -2.514  -0.123  0.00  0.00    +0.010 A 
ATOM     26  C   UNL     1      12.297  -2.539  -0.140  0.00  0.00    +0.001 A 
ATOM     27  C   UNL     1      13.072  -1.368  -0.139  0.00  0.00    +0.002 A 
ATOM     28  C   UNL     1      12.511  -0.140  -0.121  0.00  0.00    +0.026 A 
ATOM     29  C   UNL     1      11.044  -0.023  -0.103  0.00  0.00    +0.043 A 
ATOM     30  N   UNL     1      10.254   1.012  -0.084  0.00  0.00    -0.380 N 
ATOM     31  C   UNL     1       8.860   0.558  -0.077  0.00  0.00    +0.152 C 
ATOM     32  H   UNL     1      10.543   1.938  -0.080  0.00  0.00    +0.160 HD
ENDBRANCH  21  23
ENDBRANCH  20  21
ENDBRANCH  19  20
ENDBRANCH  10  19
TORSDOF 5
