REMARK  Name = ZINC02447403
REMARK  10 active torsions:
REMARK  status: ('A' for Active; 'I' for Inactive)
REMARK    1  A    between atoms: C_1  and  C_2
REMARK    2  A    between atoms: C_2  and  C_3
REMARK    3  A    between atoms: C_2  and  C_4
REMARK    4  A    between atoms: C_7  and  C_10
REMARK    5  A    between atoms: N_11  and  N_12
REMARK    6  A    between atoms: C_13  and  C_15
REMARK    7  A    between atoms: C_16  and  C_26
REMARK    8  A    between atoms: C_26  and  N_27
REMARK    9  A    between atoms: N_27  and  C_28
REMARK   10  A    between atoms: N_27  and  C_29
REMARK                            x       y       z     vdW  Elec       q    Type
REMARK                         _______ _______ _______ _____ _____    ______ ____
ROOT
ATOM      1  C   UNL     1       2.930  -4.420   8.730  0.00  0.00    +0.170 A 
ATOM      2  C   UNL     1       2.406  -5.229   9.697  0.00  0.00    +0.063 A 
ATOM      3  N   UNL     1       3.386  -5.438  10.605  0.00  0.00    -0.194 N 
ATOM      4  N   UNL     1       4.510  -4.731  10.156  0.00  0.00    -0.058 NA
ATOM      5  N   UNL     1       4.208  -4.148   9.048  0.00  0.00    -0.124 NA
ATOM      6  C   UNL     1       3.295  -6.209  11.769  0.00  0.00    +0.240 A 
ATOM      7  C   UNL     1       4.368  -6.418  12.745  0.00  0.00    +0.206 A 
ATOM      8  N   UNL     1       3.914  -7.191  13.694  0.00  0.00    -0.032 NA
ATOM      9  O   UNL     1       2.568  -7.510  13.388  0.00  0.00    -0.239 OA
ATOM     10  N   UNL     1       2.240  -6.860  12.172  0.00  0.00    -0.027 NA
ATOM     11  N   UNL     1       5.650  -5.886  12.672  0.00  0.00    -0.337 N 
ATOM     12  H   UNL     1       5.898  -5.319  11.925  0.00  0.00    +0.144 HD
ATOM     13  H   UNL     1       6.296  -6.080  13.369  0.00  0.00    +0.144 HD
ENDROOT
BRANCH   1  15
ATOM     14  N   UNL     1       2.851  -3.138   6.649  0.00  0.00    -0.202 N 
ATOM     15  C   UNL     1       2.217  -3.931   7.536  0.00  0.00    +0.285 C 
ATOM     16  O   UNL     1       1.056  -4.243   7.350  0.00  0.00    -0.267 OA
ATOM     17  H   UNL     1       3.777  -2.889   6.797  0.00  0.00    +0.178 HD
BRANCH  14  19
ATOM     18  C   UNL     1       2.784  -1.910   4.661  0.00  0.00    +0.138 C 
ATOM     19  N   UNL     1       2.173  -2.673   5.514  0.00  0.00    -0.187 NA
BRANCH  18  23
ATOM     20  C   UNL     1       0.731  -0.503   1.223  0.00  0.00    -0.045 A 
ATOM     21  C   UNL     1       2.051  -0.145   1.431  0.00  0.00    +0.004 A 
ATOM     22  C   UNL     1       2.725  -0.599   2.546  0.00  0.00    +0.010 A 
ATOM     23  C   UNL     1       2.071  -1.421   3.467  0.00  0.00    -0.005 A 
ATOM     24  C   UNL     1       0.737  -1.778   3.250  0.00  0.00    +0.010 A 
ATOM     25  C   UNL     1       0.075  -1.313   2.134  0.00  0.00    +0.004 A 
BRANCH  20  27
ATOM     26  C   UNL     1      -0.019   1.526   0.010  0.00  0.00    +0.012 C 
ATOM     27  C   UNL     1       0.002  -0.004   0.002  0.00  0.00    +0.013 C 
ATOM     28  C   UNL     1       0.718  -0.497  -1.257  0.00  0.00    +0.012 C 
ENDBRANCH  20  27
ENDBRANCH  18  23
ENDBRANCH  14  19
ENDBRANCH   1  15
BRANCH   2  29
ATOM     29  C   UNL     1       1.006  -5.784   9.743  0.00  0.00    -0.020 C 
BRANCH  29  30
ATOM     30  N   UNL     1       0.132  -4.849  10.465  0.00  0.00    +0.383 N 
ATOM     31  C   UNL     1       0.028  -3.594   9.709  0.00  0.00    -0.095 C 
ATOM     32  H   UNL     1       0.521  -4.662  11.377  0.00  0.00    -0.081 HD
BRANCH  30  33
ATOM     33  C   UNL     1      -1.203  -5.443  10.614  0.00  0.00    -0.068 C 
ATOM     34  C   UNL     1      -2.113  -4.469  11.366  0.00  0.00    -0.015 C 
ATOM     35  C   UNL     1      -3.504  -5.087  11.521  0.00  0.00    -0.002 C 
ATOM     36  C   UNL     1      -3.396  -6.394  12.309  0.00  0.00    -0.000 C 
ATOM     37  C   UNL     1      -2.486  -7.368  11.557  0.00  0.00    -0.002 C 
ATOM     38  C   UNL     1      -1.095  -6.750  11.401  0.00  0.00    -0.015 C 
ENDBRANCH  30  33
ENDBRANCH  29  30
ENDBRANCH   2  29
TORSDOF 7
