REMARK  Name = ZINC13031570
REMARK  14 active torsions:
REMARK  status: ('A' for Active; 'I' for Inactive)
REMARK    1  A    between atoms: C_1  and  C_2
REMARK    2  A    between atoms: C_5  and  C_7
REMARK    3  A    between atoms: C_7  and  C_9
REMARK    4  A    between atoms: C_7  and  N_17
REMARK    5  A    between atoms: N_11  and  C_12
REMARK    6  A    between atoms: C_12  and  C_13
REMARK    7  A    between atoms: C_13  and  C_14
REMARK    8  A    between atoms: C_14  and  C_15
REMARK    9  A    between atoms: C_14  and  C_16
REMARK   10  A    between atoms: N_17  and  C_18
REMARK   11  A    between atoms: C_23  and  O_24
REMARK   12  A    between atoms: O_24  and  C_25
REMARK   13  A    between atoms: C_26  and  C_28
REMARK   14  A    between atoms: C_28  and  N_29
REMARK                            x       y       z     vdW  Elec       q    Type
REMARK                         _______ _______ _______ _____ _____    ______ ____
ROOT
ATOM      1  N   UNL     1      -5.489   3.497  -1.596  0.00  0.00    -0.247 N 
ATOM      2  C   UNL     1      -4.183   3.729  -1.361  0.00  0.00    +0.242 C 
ATOM      3  O   UNL     1      -3.415   3.871  -2.289  0.00  0.00    -0.273 OA
ENDROOT
BRANCH   1   4
ATOM      4  C   UNL     1      -6.376   3.333  -0.523  0.00  0.00    +0.079 A 
ATOM      5  C   UNL     1      -7.027   4.433   0.017  0.00  0.00    +0.027 A 
ATOM      6  C   UNL     1      -7.901   4.268   1.074  0.00  0.00    +0.002 A 
ATOM      7  C   UNL     1      -8.130   3.008   1.597  0.00  0.00    +0.004 A 
ATOM      8  C   UNL     1      -7.485   1.907   1.064  0.00  0.00    +0.047 A 
ATOM      9  C   UNL     1      -6.611   2.063   0.000  0.00  0.00    +0.141 A 
BRANCH   9  10
ATOM     10  O   UNL     1      -5.980   0.981  -0.528  0.00  0.00    -0.493 OA
ATOM     11  C   UNL     1      -6.269  -0.289   0.059  0.00  0.00    +0.277 C 
ENDBRANCH   9  10
ENDBRANCH   1   4
BRANCH   1  12
ATOM     12  C   UNL     1      -5.983   3.418  -2.973  0.00  0.00    +0.233 C 
BRANCH  12  17
ATOM     13  C   UNL     1      -8.584  -0.839  -2.230  0.00  0.00    +0.086 C 
ATOM     14  C   UNL     1      -7.725   0.210  -2.887  0.00  0.00    +0.102 A 
ATOM     15  C   UNL     1      -7.197   0.133  -4.122  0.00  0.00    +0.045 A 
ATOM     16  C   UNL     1      -6.472   1.329  -4.332  0.00  0.00    +0.047 A 
ATOM     17  C   UNL     1      -6.594   2.061  -3.210  0.00  0.00    +0.135 A 
ATOM     18  O   UNL     1      -7.356   1.379  -2.340  0.00  0.00    -0.462 OA
ENDBRANCH  12  17
BRANCH  12  19
ATOM     19  C   UNL     1      -7.025   4.484  -3.195  0.00  0.00    +0.242 C 
ATOM     20  O   UNL     1      -7.326   5.235  -2.292  0.00  0.00    -0.273 OA
ATOM     21  N   UNL     1      -7.623   4.601  -4.397  0.00  0.00    -0.313 N 
ATOM     22  H   UNL     1      -7.383   4.000  -5.120  0.00  0.00    +0.149 HD
BRANCH  21  23
ATOM     23  C   UNL     1      -8.636   5.637  -4.613  0.00  0.00    +0.104 C 
BRANCH  23  24
ATOM     24  C   UNL     1      -9.152   5.554  -6.051  0.00  0.00    +0.022 C 
BRANCH  24  25
ATOM     25  C   UNL     1     -10.210   6.636  -6.277  0.00  0.00    -0.016 C 
ATOM     26  C   UNL     1     -10.635   6.635  -7.747  0.00  0.00    +0.007 C 
ATOM     27  C   UNL     1     -11.427   6.351  -5.394  0.00  0.00    +0.007 C 
ENDBRANCH  24  25
ENDBRANCH  23  24
ENDBRANCH  21  23
ENDBRANCH  12  19
ENDBRANCH   1  12
BRANCH   2  28
ATOM     28  C   UNL     1      -3.675   3.810   0.056  0.00  0.00    +0.242 C 
BRANCH  28  29
ATOM     29  N   UNL     1      -2.233   4.067   0.044  0.00  0.00    -0.235 N 
ATOM     30  C   UNL     1      -1.230   3.127   0.030  0.00  0.00    +0.090 A 
ATOM     31  C   UNL     1      -1.209   1.737   0.017  0.00  0.00    +0.029 A 
ATOM     32  C   UNL     1      -0.013   1.076   0.008  0.00  0.00    +0.002 A 
ATOM     33  C   UNL     1       1.184   1.781   0.000  0.00  0.00    +0.002 A 
ATOM     34  C   UNL     1       1.191   3.145   0.007  0.00  0.00    +0.032 A 
ATOM     35  C   UNL     1      -0.022   3.847   0.022  0.00  0.00    +0.113 A 
ATOM     36  N   UNL     1      -0.328   5.160   0.032  0.00  0.00    -0.129 NA
ATOM     37  N   UNL     1      -1.604   5.321   0.044  0.00  0.00    -0.064 NA
ENDBRANCH  28  29
ENDBRANCH   2  28
TORSDOF 10
