REMARK  Name = ZINC34849388
REMARK  5 active torsions:
REMARK  status: ('A' for Active; 'I' for Inactive)
REMARK    1  A    between atoms: C_3  and  O_25
REMARK    2  A    between atoms: C_4  and  N_10
REMARK    3  A    between atoms: C_6  and  N_7
REMARK    4  A    between atoms: C_11  and  C_13
REMARK    5  A    between atoms: C_19  and  C_21
REMARK                            x       y       z     vdW  Elec       q    Type
REMARK                         _______ _______ _______ _____ _____    ______ ____
ROOT
ATOM      1  N   UNL     1       3.622  -0.661  -0.043  0.00  0.00    -0.282 N 
ATOM      2  C   UNL     1       3.642  -2.005   0.058  0.00  0.00    +0.222 C 
ATOM      3  O   UNL     1       2.601  -2.628   0.070  0.00  0.00    -0.275 OA
ATOM      4  H   UNL     1       4.453  -0.170  -0.134  0.00  0.00    +0.155 HD
ENDROOT
BRANCH   2   5
ATOM      5  C   UNL     1       4.957  -2.734   0.154  0.00  0.00    +0.094 C 
ATOM      6  C   UNL     1       5.285  -3.011   1.623  0.00  0.00    +0.060 C 
ATOM      7  C   UNL     1       6.445  -3.959   1.724  0.00  0.00    +0.015 C 
ATOM      8  C   UNL     1       6.863  -4.701   0.747  0.00  0.00    -0.011 C 
ATOM      9  C   UNL     1       6.251  -4.710  -0.623  0.00  0.00    +0.044 C 
ATOM     10  C   UNL     1       4.860  -4.074  -0.587  0.00  0.00    +0.118 C 
ATOM     11 CL   UNL     1       7.279  -4.066   3.243  0.00  0.00    -0.089 Cl
BRANCH  10  12
ATOM     12  C   UNL     1       4.369  -3.840  -1.992  0.00  0.00    +0.360 C 
ATOM     13  O   UNL     1       4.785  -4.532  -2.906  0.00  0.00    -0.246 OA
ATOM     14  O   UNL     1       3.556  -2.959  -2.216  0.00  0.00    -0.246 OA
ENDBRANCH  10  12
ENDBRANCH   2   5
BRANCH   1  18
ATOM     15  C   UNL     1      -0.013   1.382   0.042  0.00  0.00    +0.036 A 
ATOM     16  C   UNL     1       1.082   1.954  -0.579  0.00  0.00    +0.049 A 
ATOM     17  C   UNL     1       2.292   1.280  -0.610  0.00  0.00    +0.138 A 
ATOM     18  C   UNL     1       2.401   0.025  -0.014  0.00  0.00    +0.078 A 
ATOM     19  C   UNL     1       1.299  -0.542   0.607  0.00  0.00    +0.059 A 
ATOM     20  C   UNL     1       0.095   0.137   0.633  0.00  0.00    +0.128 A 
BRANCH  20  21
ATOM     21  N   UNL     1      -1.081  -0.470   1.297  0.00  0.00    +0.056 N 
ATOM     22  O   UNL     1      -2.134   0.123   1.321  0.00  0.00    -0.126 OA
ATOM     23  O   UNL     1      -0.988  -1.558   1.814  0.00  0.00    -0.126 OA
ENDBRANCH  20  21
BRANCH  17  24
ATOM     24  O   UNL     1       3.369   1.841  -1.221  0.00  0.00    -0.505 OA
ATOM     25  H   UNL     1       3.913   2.386  -0.636  0.00  0.00    +0.292 HD
ENDBRANCH  17  24
ENDBRANCH   1  18
TORSDOF 5
