REMARK  Name = ZINC22322543
REMARK  13 active torsions:
REMARK  status: ('A' for Active; 'I' for Inactive)
REMARK    1  A    between atoms: C_1  and  C_2
REMARK    2  A    between atoms: C_2  and  O_3
REMARK    3  A    between atoms: O_3  and  C_4
REMARK    4  A    between atoms: C_7  and  N_10
REMARK    5  A    between atoms: N_10  and  C_11
REMARK    6  A    between atoms: N_10  and  S_29
REMARK    7  A    between atoms: C_11  and  C_12
REMARK    8  A    between atoms: N_14  and  C_15
REMARK    9  A    between atoms: C_18  and  C_27
REMARK   10  A    between atoms: C_18  and  C_28
REMARK   11  A    between atoms: C_23  and  C_26
REMARK   12  A    between atoms: S_29  and  C_32
REMARK   13  A    between atoms: C_35  and  C_38
REMARK                            x       y       z     vdW  Elec       q    Type
REMARK                         _______ _______ _______ _____ _____    ______ ____
ROOT
ATOM      1  N   UNL     1      -0.996  -3.600   0.763  0.00  0.00    -0.194 N 
ENDROOT
BRANCH   1   5
ATOM      2  C   UNL     1      -3.292  -6.206  -1.542  0.00  0.00    +0.121 A 
ATOM      3  C   UNL     1      -3.686  -4.885  -1.390  0.00  0.00    +0.047 A 
ATOM      4  C   UNL     1      -2.926  -4.021  -0.626  0.00  0.00    +0.028 A 
ATOM      5  C   UNL     1      -1.767  -4.475  -0.011  0.00  0.00    +0.052 A 
ATOM      6  C   UNL     1      -1.370  -5.796  -0.168  0.00  0.00    +0.028 A 
ATOM      7  C   UNL     1      -2.135  -6.661  -0.927  0.00  0.00    +0.047 A 
BRANCH   2   8
ATOM      8  O   UNL     1      -4.041  -7.057  -2.294  0.00  0.00    -0.492 OA
BRANCH   8  10
ATOM      9  C   UNL     1      -4.541  -9.203  -3.284  0.00  0.00    +0.048 C 
ATOM     10  C   UNL     1      -3.576  -8.403  -2.407  0.00  0.00    +0.225 C 
ENDBRANCH   8  10
ENDBRANCH   2   8
ENDBRANCH   1   5
BRANCH   1  11
ATOM     11  S   UNL     1       0.595  -3.341   0.384  0.00  0.00    +0.075 S 
ATOM     12  O   UNL     1       0.767  -3.772  -0.959  0.00  0.00    -0.150 OA
ATOM     13  O   UNL     1       0.903  -2.020   0.806  0.00  0.00    -0.150 OA
BRANCH  11  14
ATOM     14  C   UNL     1       1.553  -4.428   1.387  0.00  0.00    +0.109 A 
ATOM     15  C   UNL     1       1.900  -4.055   2.673  0.00  0.00    +0.029 A 
ATOM     16  C   UNL     1       2.648  -4.909   3.461  0.00  0.00    +0.005 A 
ATOM     17  C   UNL     1       3.057  -6.132   2.962  0.00  0.00    -0.050 A 
ATOM     18  C   UNL     1       2.714  -6.502   1.674  0.00  0.00    +0.005 A 
ATOM     19  C   UNL     1       1.962  -5.649   0.887  0.00  0.00    +0.029 A 
ATOM     20  C   UNL     1       3.875  -7.061   3.820  0.00  0.00    +0.044 C 
ENDBRANCH  11  14
ENDBRANCH   1  11
BRANCH   1  21
ATOM     21  C   UNL     1      -1.597  -2.913   1.909  0.00  0.00    +0.227 C 
BRANCH  21  22
ATOM     22  C   UNL     1      -2.287  -1.659   1.438  0.00  0.00    +0.233 C 
ATOM     23  O   UNL     1      -2.277  -1.367   0.261  0.00  0.00    -0.274 OA
ATOM     24  N   UNL     1      -2.914  -0.861   2.325  0.00  0.00    -0.307 N 
ATOM     25  H   UNL     1      -2.922  -1.125   3.393  0.00  0.00    +0.149 HD
BRANCH  24  26
ATOM     26  C   UNL     1      -3.584   0.358   1.867  0.00  0.00    +0.111 C 
ATOM     27  C   UNL     1      -4.691   0.734   2.856  0.00  0.00    +0.074 C 
ATOM     28  C   UNL     1      -5.174   2.151   2.523  0.00  0.00    +0.107 C 
ATOM     29  O   UNL     1      -4.097   3.060   2.752  0.00  0.00    -0.486 OA
ATOM     30  C   UNL     1      -2.886   2.757   2.215  0.00  0.00    +0.126 A 
ATOM     31  C   UNL     1      -2.582   1.481   1.774  0.00  0.00    +0.015 A 
ATOM     32  C   UNL     1      -1.330   1.214   1.247  0.00  0.00    +0.012 A 
ATOM     33  C   UNL     1      -0.388   2.220   1.145  0.00  0.00    -0.050 A 
ATOM     34  C   UNL     1      -0.692   3.498   1.576  0.00  0.00    +0.007 A 
ATOM     35  C   UNL     1      -1.936   3.768   2.110  0.00  0.00    +0.046 A 
ATOM     36  C   UNL     1       0.971   1.923   0.565  0.00  0.00    +0.044 C 
ATOM     37  C   UNL     1      -6.357   2.516   3.422  0.00  0.00    +0.055 C 
ATOM     38  C   UNL     1      -5.602   2.218   1.055  0.00  0.00    +0.055 C 
ENDBRANCH  24  26
ENDBRANCH  21  22
ENDBRANCH   1  21
TORSDOF 8
