REMARK  Name = ZINC09284697
REMARK  6 active torsions:
REMARK  status: ('A' for Active; 'I' for Inactive)
REMARK    1  A    between atoms: C_4  and  C_7
REMARK    2  A    between atoms: C_9  and  C_12
REMARK    3  A    between atoms: C_12  and  S_13
REMARK    4  A    between atoms: S_13  and  C_14
REMARK    5  A    between atoms: C_17  and  C_20
REMARK    6  A    between atoms: N_18  and  N_19
REMARK                            x       y       z     vdW  Elec       q    Type
REMARK                         _______ _______ _______ _____ _____    ______ ____
ROOT
ATOM      1  C   UNL     1      -2.096   1.651  -1.100  0.00  0.00    +0.209 A 
ATOM      2  N   UNL     1      -2.372   2.195  -2.264  0.00  0.00    -0.121 NA
ATOM      3  N   UNL     1      -1.295   2.336  -2.951  0.00  0.00    -0.127 NA
ATOM      4  C   UNL     1      -0.265   1.896  -2.267  0.00  0.00    +0.183 A 
ATOM      5  N   UNL     1      -0.747   1.438  -1.062  0.00  0.00    -0.224 N 
ENDROOT
BRANCH   4   6
ATOM      6  C   UNL     1       1.145   1.890  -2.708  0.00  0.00    +0.040 A 
ATOM      7  C   UNL     1       1.923   0.742  -2.554  0.00  0.00    +0.033 A 
ATOM      8  C   UNL     1       3.240   0.743  -2.967  0.00  0.00    +0.042 A 
ATOM      9  C   UNL     1       3.790   1.881  -3.534  0.00  0.00    +0.021 A 
ATOM     10  C   UNL     1       3.025   3.022  -3.691  0.00  0.00    +0.022 A 
ATOM     11  C   UNL     1       1.704   3.032  -3.286  0.00  0.00    +0.052 A 
ATOM     12 CL   UNL     1       0.743   4.463  -3.489  0.00  0.00    -0.083 Cl
ATOM     13 CL   UNL     1       4.210  -0.685  -2.777  0.00  0.00    -0.084 Cl
ENDBRANCH   4   6
BRANCH   5  14
ATOM     14  N   UNL     1      -0.026   0.891  -0.039  0.00  0.00    -0.295 N 
ATOM     15  H   UNL     1       0.112  -0.098  -0.182  0.00  0.00    +0.163 HD
ATOM     16  H   UNL     1       0.856   1.367   0.077  0.00  0.00    +0.163 HD
ENDBRANCH   5  14
BRANCH   1  17
ATOM     17  S   UNL     1      -3.251   1.266   0.174  0.00  0.00    -0.078 S 
BRANCH  17  18
ATOM     18  C   UNL     1      -4.782   1.828  -0.610  0.00  0.00    +0.133 C 
BRANCH  18  21
ATOM     19  C   UNL     1      -7.312   2.339   2.011  0.00  0.00    +0.109 A 
ATOM     20  N   UNL     1      -6.297   2.521   1.179  0.00  0.00    -0.243 NA
ATOM     21  C   UNL     1      -5.941   1.591   0.324  0.00  0.00    +0.059 A 
ATOM     22  C   UNL     1      -6.623   0.416   0.278  0.00  0.00    +0.071 A 
ATOM     23  S   UNL     1      -7.838   0.690   1.562  0.00  0.00    -0.075 S 
BRANCH  19  27
ATOM     24  C   UNL     1      -8.891   4.964   4.954  0.00  0.00    +0.000 A 
ATOM     25  C   UNL     1      -9.458   3.716   4.769  0.00  0.00    +0.001 A 
ATOM     26  C   UNL     1      -8.950   2.858   3.815  0.00  0.00    +0.010 A 
ATOM     27  C   UNL     1      -7.862   3.253   3.035  0.00  0.00    +0.007 A 
ATOM     28  C   UNL     1      -7.291   4.511   3.231  0.00  0.00    +0.010 A 
ATOM     29  C   UNL     1      -7.812   5.361   4.184  0.00  0.00    +0.001 A 
ENDBRANCH  19  27
ENDBRANCH  18  21
ENDBRANCH  17  18
ENDBRANCH   1  17
TORSDOF 6
