REMARK  Name = ZINC14247097
REMARK  11 active torsions:
REMARK  status: ('A' for Active; 'I' for Inactive)
REMARK    1  A    between atoms: C_1  and  C_2
REMARK    2  A    between atoms: C_3  and  C_32
REMARK    3  A    between atoms: C_7  and  N_18
REMARK    4  A    between atoms: C_9  and  C_11
REMARK    5  A    between atoms: C_11  and  N_63
REMARK    6  A    between atoms: C_14  and  C_17
REMARK    7  A    between atoms: N_18  and  C_19
REMARK    8  A    between atoms: C_19  and  C_21
REMARK    9  A    between atoms: C_19  and  C_22
REMARK   10  A    between atoms: C_26  and  S_28
REMARK   11  A    between atoms: S_28  and  N_31
REMARK                            x       y       z     vdW  Elec       q    Type
REMARK                         _______ _______ _______ _____ _____    ______ ____
ROOT
ATOM      1  C   UNL     1       4.903   1.649   0.015  0.00  0.00    +0.045 C 
ATOM      2  C   UNL     1       3.506   2.213   0.026  0.00  0.00    -0.028 A 
ATOM      3  C   UNL     1       3.298   3.507   0.313  0.00  0.00    -0.008 A 
ATOM      4  S   UNL     1       1.527   3.680   0.200  0.00  0.00    -0.074 S 
ATOM      5  C   UNL     1       1.113   2.010  -0.230  0.00  0.00    +0.114 A 
ATOM      6  C   UNL     1       2.368   1.362  -0.274  0.00  0.00    +0.051 A 
ATOM      7  C   UNL     1       2.328  -0.021  -0.603  0.00  0.00    +0.131 A 
ATOM      8  N   UNL     1       1.159  -0.594  -0.840  0.00  0.00    -0.219 NA
ATOM      9  C   UNL     1       0.022   0.076  -0.781  0.00  0.00    +0.116 A 
ATOM     10  N   UNL     1      -0.005   1.360  -0.480  0.00  0.00    -0.227 NA
ATOM     11  C   UNL     1       4.319   4.562   0.652  0.00  0.00    +0.052 C 
ENDROOT
BRANCH   7  12
ATOM     12  N   UNL     1       3.496  -0.757  -0.676  0.00  0.00    -0.322 N 
ATOM     13  H   UNL     1       4.355  -0.315  -0.586  0.00  0.00    +0.148 HD
BRANCH  12  14
ATOM     14  C   UNL     1       3.437  -2.205  -0.889  0.00  0.00    +0.099 C 
ATOM     15  C   UNL     1       3.334  -2.496  -2.388  0.00  0.00    +0.033 C 
BRANCH  14  16
ATOM     16  C   UNL     1       4.686  -2.846  -0.338  0.00  0.00    -0.026 A 
ATOM     17  C   UNL     1       5.911  -2.229  -0.508  0.00  0.00    +0.005 A 
ATOM     18  C   UNL     1       7.056  -2.816  -0.003  0.00  0.00    +0.002 A 
ATOM     19  C   UNL     1       6.975  -4.019   0.673  0.00  0.00    +0.028 A 
ATOM     20  C   UNL     1       5.750  -4.636   0.843  0.00  0.00    +0.105 A 
ATOM     21  C   UNL     1       4.604  -4.046   0.341  0.00  0.00    +0.034 A 
BRANCH  20  22
ATOM     22  S   UNL     1       5.647  -6.169   1.705  0.00  0.00    +0.056 S 
ATOM     23  O   UNL     1       4.460  -6.809   1.254  0.00  0.00    -0.153 OA
ATOM     24  O   UNL     1       6.926  -6.779   1.603  0.00  0.00    -0.153 OA
BRANCH  22  25
ATOM     25  N   UNL     1       5.416  -5.817   3.306  0.00  0.00    -0.204 NA
ATOM     26  H   UNL     1       4.919  -6.429   3.871  0.00  0.00    +0.144 HD
ATOM     27  H   UNL     1       5.777  -4.997   3.679  0.00  0.00    +0.144 HD
ENDBRANCH  22  25
ENDBRANCH  20  22
ENDBRANCH  14  16
ENDBRANCH  12  14
ENDBRANCH   7  12
BRANCH   9  28
ATOM     28  C   UNL     1      -1.272  -0.643  -1.063  0.00  0.00    -0.001 C 
BRANCH  28  35
ATOM     29  C   UNL     1      -0.387  -0.861  -3.305  0.00  0.00    -0.078 C 
ATOM     30  C   UNL     1      -0.700  -0.624  -4.785  0.00  0.00    -0.016 C 
ATOM     31  C   UNL     1      -1.867  -1.522  -5.205  0.00  0.00    -0.018 C 
ATOM     32  C   UNL     1      -3.077  -1.222  -4.317  0.00  0.00    -0.016 C 
ATOM     33  C   UNL     1      -2.696  -1.442  -2.851  0.00  0.00    -0.078 C 
ATOM     34  C   UNL     1      -2.224  -1.246  -6.667  0.00  0.00    +0.007 C 
ATOM     35  N   UNL     1      -1.584  -0.531  -2.503  0.00  0.00    +0.384 N 
ATOM     36  H   UNL     1      -1.867   0.434  -2.709  0.00  0.00    -0.081 HD
ENDBRANCH  28  35
ENDBRANCH   9  28
TORSDOF 7
