REMARK  Name = ZINC05377279
REMARK  7 active torsions:
REMARK  status: ('A' for Active; 'I' for Inactive)
REMARK    1  A    between atoms: C_1  and  C_2
REMARK    2  A    between atoms: C_2  and  C_3
REMARK    3  A    between atoms: C_2  and  C_10
REMARK    4  A    between atoms: C_2  and  N_19
REMARK    5  A    between atoms: C_8  and  O_9
REMARK    6  A    between atoms: C_10  and  C_12
REMARK    7  A    between atoms: C_10  and  O_18
REMARK                            x       y       z     vdW  Elec       q    Type
REMARK                         _______ _______ _______ _____ _____    ______ ____
ROOT
ATOM      1  C   UNL     1       2.402  -0.197   1.011  0.00  0.00    +0.045 C 
ATOM      2  C   UNL     1       2.975   0.131  -0.369  0.00  0.00    +0.121 C 
ENDROOT
BRANCH   2   3
ATOM      3  N   UNL     1       3.014   1.584  -0.549  0.00  0.00    -0.231 N 
ATOM      4  C   UNL     1       1.936   2.434  -0.615  0.00  0.00    +0.090 A 
ATOM      5  C   UNL     1       0.559   2.256  -0.544  0.00  0.00    +0.029 A 
ATOM      6  C   UNL     1      -0.273   3.334  -0.653  0.00  0.00    +0.002 A 
ATOM      7  C   UNL     1       0.245   4.612  -0.823  0.00  0.00    +0.002 A 
ATOM      8  C   UNL     1       1.593   4.814  -0.895  0.00  0.00    +0.032 A 
ATOM      9  C   UNL     1       2.467   3.724  -0.792  0.00  0.00    +0.113 A 
ATOM     10  N   UNL     1       3.810   3.612  -0.826  0.00  0.00    -0.129 NA
ATOM     11  N   UNL     1       4.160   2.382  -0.687  0.00  0.00    -0.064 NA
ENDBRANCH   2   3
BRANCH   2  12
ATOM     12  C   UNL     1       2.103  -0.483  -1.434  0.00  0.00    +0.024 A 
ATOM     13  C   UNL     1       2.339  -0.204  -2.767  0.00  0.00    +0.010 A 
ATOM     14  C   UNL     1       1.540  -0.767  -3.744  0.00  0.00    +0.001 A 
ATOM     15  C   UNL     1       0.503  -1.612  -3.391  0.00  0.00    +0.004 A 
ATOM     16  C   UNL     1       0.264  -1.895  -2.060  0.00  0.00    +0.046 A 
ATOM     17  C   UNL     1       1.068  -1.335  -1.078  0.00  0.00    +0.122 A 
BRANCH  17  18
ATOM     18  O   UNL     1       0.838  -1.616   0.232  0.00  0.00    -0.506 OA
ATOM     19  H   UNL     1       0.146  -1.074   0.635  0.00  0.00    +0.292 HD
ENDBRANCH  17  18
ENDBRANCH   2  12
BRANCH   2  20
ATOM     20  C   UNL     1       4.392  -0.435  -0.481  0.00  0.00    +0.176 C 
BRANCH  20  21
ATOM     21  C   UNL     1       4.343  -1.937  -0.368  0.00  0.00    -0.017 A 
ATOM     22  C   UNL     1       4.127  -2.708  -1.495  0.00  0.00    +0.006 A 
ATOM     23  C   UNL     1       4.087  -4.086  -1.392  0.00  0.00    +0.000 A 
ATOM     24  C   UNL     1       4.253  -4.693  -0.161  0.00  0.00    +0.000 A 
ATOM     25  C   UNL     1       4.464  -3.921   0.967  0.00  0.00    +0.000 A 
ATOM     26  C   UNL     1       4.509  -2.544   0.863  0.00  0.00    +0.006 A 
ENDBRANCH  20  21
BRANCH  20  27
ATOM     27  O   UNL     1       4.953  -0.070  -1.743  0.00  0.00    -0.384 OA
ATOM     28  H   UNL     1       4.463  -0.412  -2.505  0.00  0.00    +0.210 HD
ENDBRANCH  20  27
ENDBRANCH   2  20
TORSDOF 6
