REMARK  Name = ZINC15672594
REMARK  9 active torsions:
REMARK  status: ('A' for Active; 'I' for Inactive)
REMARK    1  A    between atoms: C_1  and  C_2
REMARK    2  A    between atoms: C_4  and  C_33
REMARK    3  A    between atoms: C_6  and  C_8
REMARK    4  A    between atoms: C_16  and  C_18
REMARK    5  A    between atoms: C_18  and  N_19
REMARK    6  A    between atoms: N_19  and  S_20
REMARK    7  A    between atoms: S_20  and  C_23
REMARK    8  A    between atoms: C_26  and  N_29
REMARK    9  A    between atoms: C_30  and  C_32
REMARK                            x       y       z     vdW  Elec       q    Type
REMARK                         _______ _______ _______ _____ _____    ______ ____
ROOT
ATOM      1  C   UNL     1      -3.039   3.332   0.125  0.00  0.00    +0.024 C 
ATOM      2  C   UNL     1      -2.944   1.804   0.178  0.00  0.00    -0.068 C 
ATOM      3  C   UNL     1      -2.869   1.837   2.598  0.00  0.00    -0.078 C 
ATOM      4  C   UNL     1      -2.962   3.365   2.615  0.00  0.00    -0.015 C 
ATOM      5  C   UNL     1      -2.309   3.916   1.341  0.00  0.00    -0.007 C 
ATOM      6  C   UNL     1      -0.847   3.454   1.302  0.00  0.00    -0.010 C 
ATOM      7  C   UNL     1      -0.812   1.923   1.322  0.00  0.00    -0.053 C 
ATOM      8  N   UNL     1      -2.185   1.375   1.371  0.00  0.00    +0.383 N 
ATOM      9  H   UNL     1      -2.134   0.350   1.384  0.00  0.00    -0.081 HD
ENDROOT
BRANCH   1  15
ATOM     10  C   UNL     1      -0.396   6.733  -2.189  0.00  0.00    +0.088 C 
ATOM     11  C   UNL     1      -1.151   5.430  -2.241  0.00  0.00    +0.127 A 
ATOM     12  N   UNL     1      -1.222   4.777  -3.382  0.00  0.00    -0.229 NA
ATOM     13  C   UNL     1      -1.881   3.620  -3.463  0.00  0.00    +0.110 A 
ATOM     14  C   UNL     1      -2.498   3.112  -2.313  0.00  0.00    +0.055 A 
ATOM     15  C   UNL     1      -2.394   3.835  -1.141  0.00  0.00    +0.047 A 
ATOM     16  N   UNL     1      -1.725   4.979  -1.143  0.00  0.00    -0.237 NA
BRANCH  13  17
ATOM     17  C   UNL     1      -1.961   2.890  -4.743  0.00  0.00    +0.153 A 
ATOM     18  C   UNL     1      -1.327   3.231  -5.898  0.00  0.00    +0.051 A 
ATOM     19  C   UNL     1      -1.682   2.264  -6.856  0.00  0.00    +0.042 A 
ATOM     20  C   UNL     1      -2.507   1.388  -6.247  0.00  0.00    +0.196 A 
ATOM     21  O   UNL     1      -2.669   1.766  -4.970  0.00  0.00    -0.461 OA
ENDBRANCH  13  17
ENDBRANCH   1  15
BRANCH   7  22
ATOM     22  C   UNL     1      -0.119   1.412   0.057  0.00  0.00    +0.090 C 
BRANCH  22  23
ATOM     23  N   UNL     1      -0.167  -0.052   0.031  0.00  0.00    -0.191 NA
ATOM     24  H   UNL     1      -0.345  -0.546   0.847  0.00  0.00    +0.148 HD
BRANCH  23  25
ATOM     25  S   UNL     1       0.083  -0.864  -1.390  0.00  0.00    +0.058 S 
ATOM     26  O   UNL     1      -0.021  -2.249  -1.091  0.00  0.00    -0.153 OA
ATOM     27  O   UNL     1      -0.733  -0.232  -2.367  0.00  0.00    -0.153 OA
BRANCH  25  28
ATOM     28  C   UNL     1       1.754  -0.576  -1.868  0.00  0.00    +0.105 A 
ATOM     29  C   UNL     1       2.053   0.440  -2.757  0.00  0.00    +0.030 A 
ATOM     30  C   UNL     1       3.362   0.671  -3.130  0.00  0.00    +0.025 A 
ATOM     31  C   UNL     1       4.379  -0.125  -2.618  0.00  0.00    +0.033 A 
ATOM     32  C   UNL     1       4.075  -1.148  -1.730  0.00  0.00    +0.025 A 
ATOM     33  C   UNL     1       2.764  -1.371  -1.357  0.00  0.00    +0.030 A 
BRANCH  31  34
ATOM     34  N   UNL     1       5.707   0.104  -2.997  0.00  0.00    -0.286 N 
ATOM     35  C   UNL     1       6.559  -0.932  -3.123  0.00  0.00    +0.214 C 
ATOM     36  O   UNL     1       6.157  -2.069  -2.993  0.00  0.00    -0.276 OA
ATOM     37  C   UNL     1       8.014  -0.678  -3.426  0.00  0.00    +0.109 C 
ATOM     38  H   UNL     1       6.013   1.008  -3.169  0.00  0.00    +0.155 HD
ENDBRANCH  31  34
ENDBRANCH  25  28
ENDBRANCH  23  25
ENDBRANCH  22  23
ENDBRANCH   7  22
TORSDOF 7
