REMARK  Name = ZINC63389382
REMARK  7 active torsions:
REMARK  status: ('A' for Active; 'I' for Inactive)
REMARK    1  A    between atoms: C_1  and  C_2
REMARK    2  A    between atoms: C_11  and  C_13
REMARK    3  A    between atoms: C_13  and  O_15
REMARK    4  A    between atoms: O_15  and  C_16
REMARK    5  A    between atoms: N_17  and  C_18
REMARK    6  A    between atoms: C_18  and  C_19
REMARK    7  A    between atoms: C_19  and  C_20
REMARK                            x       y       z     vdW  Elec       q    Type
REMARK                         _______ _______ _______ _____ _____    ______ ____
ROOT
ATOM      1  C   UNL     1       0.408   1.815  -0.142  0.00  0.00    +0.014 C 
ATOM      2  C   UNL     1       0.405   0.293   0.021  0.00  0.00    +0.046 C 
ATOM      3  C   UNL     1       0.777  -0.342  -1.293  0.00  0.00    +0.029 A 
ATOM      4  C   UNL     1       0.388   0.059  -2.581  0.00  0.00    +0.126 A 
ATOM      5  N   UNL     1       0.799  -0.630  -3.638  0.00  0.00    -0.221 NA
ATOM      6  C   UNL     1       1.571  -1.691  -3.514  0.00  0.00    +0.224 A 
ATOM      7  N   UNL     1       1.970  -2.105  -2.326  0.00  0.00    -0.229 NA
ATOM      8  C   UNL     1       1.605  -1.461  -1.230  0.00  0.00    +0.106 A 
ATOM      9  S   UNL     1       1.983  -1.712   0.490  0.00  0.00    -0.090 S 
ATOM     10  C   UNL     1       1.394  -0.096   1.143  0.00  0.00    +0.168 C 
ATOM     11  N   UNL     1      -0.425   1.170  -2.749  0.00  0.00    -0.329 N 
ATOM     12  H   UNL     1      -0.796   1.621  -1.974  0.00  0.00    +0.147 HD
ENDROOT
BRANCH  10  13
ATOM     13  C   UNL     1       0.689  -0.264   2.464  0.00  0.00    +0.321 C 
ATOM     14  O   UNL     1      -0.431  -0.718   2.497  0.00  0.00    -0.250 OA
BRANCH  13  15
ATOM     15  O   UNL     1       1.303   0.090   3.603  0.00  0.00    -0.467 OA
ATOM     16  C   UNL     1       0.575  -0.096   4.819  0.00  0.00    +0.280 C 
ENDBRANCH  13  15
ENDBRANCH  10  13
BRANCH  11  17
ATOM     17  C   UNL     1      -0.722   1.664  -4.096  0.00  0.00    +0.107 C 
BRANCH  17  18
ATOM     18  C   UNL     1      -1.632   2.890  -4.000  0.00  0.00    +0.065 C 
BRANCH  18  19
ATOM     19  C   UNL     1      -1.942   3.406  -5.406  0.00  0.00    +0.175 C 
ATOM     20  N   UNL     1      -0.707   3.849  -6.065  0.00  0.00    -0.363 N 
ATOM     21  C   UNL     1      -0.841   5.115  -6.336  0.00  0.00    +0.060 A 
ATOM     22  C   UNL     1       0.041   6.098  -6.980  0.00  0.00    +0.027 A 
ATOM     23  C   UNL     1      -0.378   7.371  -7.129  0.00  0.00    +0.002 A 
ATOM     24  C   UNL     1      -1.639   7.810  -6.689  0.00  0.00    +0.002 A 
ATOM     25  C   UNL     1      -2.524   6.992  -6.086  0.00  0.00    +0.027 A 
ATOM     26  C   UNL     1      -2.177   5.580  -5.871  0.00  0.00    +0.060 A 
ATOM     27  N   UNL     1      -2.816   4.584  -5.330  0.00  0.00    -0.363 N 
ATOM     28  H   UNL     1       0.067   3.299  -6.261  0.00  0.00    +0.162 HD
ATOM     29  H   UNL     1      -3.707   4.614  -4.947  0.00  0.00    +0.162 HD
ENDBRANCH  18  19
ENDBRANCH  17  18
ENDBRANCH  11  17
TORSDOF 5
