REMARK  Name = ZINC39908872
REMARK  8 active torsions:
REMARK  status: ('A' for Active; 'I' for Inactive)
REMARK    1  A    between atoms: C_1  and  C_2
REMARK    2  A    between atoms: C_2  and  O_3
REMARK    3  A    between atoms: O_3  and  C_4
REMARK    4  A    between atoms: C_7  and  C_13
REMARK    5  A    between atoms: C_9  and  O_10
REMARK    6  A    between atoms: O_10  and  C_11
REMARK    7  A    between atoms: C_11  and  C_12
REMARK    8  A    between atoms: N_28  and  C_29
REMARK                            x       y       z     vdW  Elec       q    Type
REMARK                         _______ _______ _______ _____ _____    ______ ____
ROOT
ATOM      1  C   UNL     1       1.142  -6.064   1.761  0.00  0.00    +0.144 C 
ATOM      2  C   UNL     1      -0.139  -6.630   2.278  0.00  0.00    +0.072 A 
ATOM      3  C   UNL     1      -0.866  -6.392   3.529  0.00  0.00    +0.199 A 
ATOM      4  O   UNL     1      -0.577  -5.502   4.309  0.00  0.00    -0.287 OA
ATOM      5  C   UNL     1      -1.988  -7.337   3.754  0.00  0.00    +0.066 A 
ATOM      6  C   UNL     1      -2.648  -7.370   4.983  0.00  0.00    +0.035 A 
ATOM      7  C   UNL     1      -3.684  -8.258   5.176  0.00  0.00    +0.042 A 
ATOM      8  C   UNL     1      -4.066  -9.114   4.151  0.00  0.00    +0.023 A 
ATOM      9  C   UNL     1      -3.424  -9.089   2.934  0.00  0.00    +0.048 A 
ATOM     10  C   UNL     1      -2.374  -8.198   2.713  0.00  0.00    +0.140 A 
ATOM     11  O   UNL     1      -1.766  -8.187   1.505  0.00  0.00    -0.450 OA
ATOM     12  C   UNL     1      -0.614  -7.507   1.344  0.00  0.00    +0.199 A 
ATOM     13  C   UNL     1       0.333  -7.538   0.216  0.00  0.00    +0.283 C 
ATOM     14  O   UNL     1       0.206  -8.221  -0.781  0.00  0.00    -0.267 OA
ATOM     15  N   UNL     1       1.364  -6.697   0.451  0.00  0.00    -0.287 N 
ATOM     16  C   UNL     1       2.501  -6.457  -0.441  0.00  0.00    +0.133 C 
ATOM     17 CL   UNL     1      -4.511  -8.306   6.701  0.00  0.00    -0.084 Cl
ENDROOT
BRANCH   1  21
ATOM     18  C   UNL     1       0.802  -1.825   1.306  0.00  0.00    +0.162 A 
ATOM     19  C   UNL     1       0.261  -2.673   0.353  0.00  0.00    +0.050 A 
ATOM     20  C   UNL     1       0.372  -4.043   0.502  0.00  0.00    +0.009 A 
ATOM     21  C   UNL     1       1.024  -4.570   1.602  0.00  0.00    -0.019 A 
ATOM     22  C   UNL     1       1.566  -3.730   2.557  0.00  0.00    +0.055 A 
ATOM     23  C   UNL     1       1.462  -2.356   2.410  0.00  0.00    +0.162 A 
BRANCH  18  24
ATOM     24  O   UNL     1       0.693  -0.477   1.160  0.00  0.00    -0.489 OA
BRANCH  24  26
ATOM     25  C   UNL     1      -0.019   1.526   0.010  0.00  0.00    +0.048 C 
ATOM     26  C   UNL     1       0.002  -0.004   0.002  0.00  0.00    +0.226 C 
ENDBRANCH  24  26
ENDBRANCH  18  24
BRANCH  23  27
ATOM     27  O   UNL     1       2.000  -1.528   3.345  0.00  0.00    -0.489 OA
BRANCH  27  28
ATOM     28  C   UNL     1       2.664  -2.143   4.451  0.00  0.00    +0.226 C 
ATOM     29  C   UNL     1       3.200  -1.060   5.390  0.00  0.00    +0.048 C 
ENDBRANCH  27  28
ENDBRANCH  23  27
ENDBRANCH   1  21
TORSDOF 5
