REMARK  Name = ZINC20748384
REMARK  6 active torsions:
REMARK  status: ('A' for Active; 'I' for Inactive)
REMARK    1  A    between atoms: C_1  and  C_2
REMARK    2  A    between atoms: C_2  and  O_3
REMARK    3  A    between atoms: O_3  and  C_4
REMARK    4  A    between atoms: C_9  and  C_10
REMARK    5  A    between atoms: C_21  and  O_26
REMARK    6  A    between atoms: O_26  and  C_27
REMARK                            x       y       z     vdW  Elec       q    Type
REMARK                         _______ _______ _______ _____ _____    ______ ____
ROOT
ATOM      1  C   UNL     1       1.344   6.180   1.244  0.00  0.00    +0.108 C 
ATOM      2  C   UNL     1       2.489   5.232   1.552  0.00  0.00    +0.029 C 
ATOM      3  C   UNL     1       3.913   5.761   1.337  0.00  0.00    +0.033 C 
ATOM      4  C   UNL     1       4.671   4.476   0.999  0.00  0.00    -0.030 C 
ATOM      5  C   UNL     1       3.838   3.580   0.483  0.00  0.00    -0.023 C 
ATOM      6  C   UNL     1       2.484   4.184   0.399  0.00  0.00    +0.049 C 
ATOM      7  C   UNL     1       1.256   3.370   0.531  0.00  0.00    -0.016 A 
ATOM      8  C   UNL     1       1.219   2.030   0.211  0.00  0.00    +0.052 A 
ATOM      9  C   UNL     1       0.034   1.318   0.319  0.00  0.00    +0.129 A 
ATOM     10  C   UNL     1      -1.121   1.958   0.746  0.00  0.00    +0.048 A 
ATOM     11  C   UNL     1      -1.086   3.296   1.080  0.00  0.00    +0.027 A 
ATOM     12  C   UNL     1       0.099   4.016   0.980  0.00  0.00    +0.032 A 
ATOM     13  N   UNL     1       0.113   5.368   1.353  0.00  0.00    -0.336 N 
ATOM     14  H   UNL     1      -0.814   5.823   1.733  0.00  0.00    +0.147 HD
ENDROOT
BRANCH   1  20
ATOM     15  C   UNL     1       2.049   8.460   2.013  0.00  0.00    +0.125 A 
ATOM     16  C   UNL     1       2.021   9.495   2.936  0.00  0.00    +0.046 A 
ATOM     17  C   UNL     1       1.264   9.373   4.085  0.00  0.00    +0.004 A 
ATOM     18  C   UNL     1       0.534   8.221   4.315  0.00  0.00    +0.001 A 
ATOM     19  C   UNL     1       0.556   7.191   3.393  0.00  0.00    +0.009 A 
ATOM     20  C   UNL     1       1.316   7.306   2.245  0.00  0.00    +0.015 A 
BRANCH  15  21
ATOM     21  O   UNL     1       2.793   8.578   0.881  0.00  0.00    -0.492 OA
BRANCH  21  23
ATOM     22  C   UNL     1       4.294   9.743  -0.612  0.00  0.00    +0.048 C 
ATOM     23  C   UNL     1       3.522   9.794   0.708  0.00  0.00    +0.225 C 
ENDBRANCH  21  23
ENDBRANCH  15  21
ENDBRANCH   1  20
BRANCH   9  24
ATOM     24  O   UNL     1       0.002  -0.004   0.002  0.00  0.00    -0.456 OA
BRANCH  24  25
ATOM     25  C   UNL     1      -1.183  -0.659   0.114  0.00  0.00    +0.128 A 
ATOM     26  C   UNL     1      -1.526  -1.276   1.309  0.00  0.00    +0.046 A 
ATOM     27  C   UNL     1      -2.734  -1.937   1.422  0.00  0.00    +0.004 A 
ATOM     28  C   UNL     1      -3.596  -1.992   0.343  0.00  0.00    +0.000 A 
ATOM     29  C   UNL     1      -3.255  -1.383  -0.850  0.00  0.00    +0.004 A 
ATOM     30  C   UNL     1      -2.051  -0.716  -0.967  0.00  0.00    +0.046 A 
ENDBRANCH  24  25
ENDBRANCH   9  24
TORSDOF 5
