REMARK  Name = ZINC36800488
REMARK  10 active torsions:
REMARK  status: ('A' for Active; 'I' for Inactive)
REMARK    1  A    between atoms: C_1  and  C_2
REMARK    2  A    between atoms: C_2  and  C_4
REMARK    3  A    between atoms: C_2  and  N_10
REMARK    4  A    between atoms: C_11  and  C_13
REMARK    5  A    between atoms: C_18  and  N_19
REMARK    6  A    between atoms: C_20  and  C_22
REMARK    7  A    between atoms: C_22  and  S_23
REMARK    8  A    between atoms: S_23  and  C_24
REMARK    9  A    between atoms: N_34  and  C_35
REMARK   10  A    between atoms: C_35  and  C_36
REMARK                            x       y       z     vdW  Elec       q    Type
REMARK                         _______ _______ _______ _____ _____    ______ ____
ROOT
ATOM      1  N   UNL     1      -1.396  -1.056  -4.683  0.00  0.00    -0.284 N 
ATOM      2  C   UNL     1      -2.148  -1.359  -5.760  0.00  0.00    +0.228 C 
ATOM      3  O   UNL     1      -1.647  -1.922  -6.709  0.00  0.00    -0.275 OA
ATOM      4  H   UNL     1      -1.809  -0.660  -3.899  0.00  0.00    +0.155 HD
ENDROOT
BRANCH   1  10
ATOM      5  C   UNL     1       0.871  -0.364  -4.182  0.00  0.00    +0.058 A 
ATOM      6  C   UNL     1       2.241  -0.635  -4.195  0.00  0.00    +0.015 A 
ATOM      7  C   UNL     1       2.702  -1.825  -4.715  0.00  0.00    +0.001 A 
ATOM      8  C   UNL     1       1.812  -2.756  -5.226  0.00  0.00    +0.002 A 
ATOM      9  C   UNL     1       0.456  -2.503  -5.220  0.00  0.00    +0.024 A 
ATOM     10  C   UNL     1      -0.027  -1.311  -4.695  0.00  0.00    +0.046 A 
BRANCH   5  12
ATOM     11  N   UNL     1       1.224   1.762  -3.027  0.00  0.00    -0.305 N 
ATOM     12  C   UNL     1       0.371   0.908  -3.626  0.00  0.00    +0.246 C 
ATOM     13  O   UNL     1      -0.810   1.185  -3.709  0.00  0.00    -0.270 OA
ATOM     14  H   UNL     1       2.166   1.541  -2.961  0.00  0.00    +0.150 HD
BRANCH  11  16
ATOM     15  C   UNL     1       0.678   4.081  -3.581  0.00  0.00    +0.033 C 
ATOM     16  C   UNL     1       0.728   3.026  -2.475  0.00  0.00    +0.100 C 
BRANCH  16  17
ATOM     17  C   UNL     1       1.650   3.491  -1.377  0.00  0.00    -0.027 A 
ATOM     18  C   UNL     1       3.018   3.361  -1.523  0.00  0.00    +0.005 A 
ATOM     19  C   UNL     1       3.864   3.788  -0.516  0.00  0.00    +0.000 A 
ATOM     20  C   UNL     1       3.341   4.345   0.636  0.00  0.00    +0.000 A 
ATOM     21  C   UNL     1       1.973   4.477   0.781  0.00  0.00    +0.000 A 
ATOM     22  C   UNL     1       1.127   4.054  -0.228  0.00  0.00    +0.005 A 
ENDBRANCH  16  17
ENDBRANCH  11  16
ENDBRANCH   5  12
ENDBRANCH   1  10
BRANCH   2  23
ATOM     23  C   UNL     1      -3.611  -0.997  -5.783  0.00  0.00    +0.173 C 
BRANCH  23  24
ATOM     24  S   UNL     1      -4.341  -1.533  -7.355  0.00  0.00    -0.078 S 
BRANCH  24  25
ATOM     25  C   UNL     1      -6.029  -1.046  -7.229  0.00  0.00    +0.173 A 
ATOM     26  N   UNL     1      -6.424  -0.438  -6.138  0.00  0.00    -0.223 NA
ATOM     27  C   UNL     1      -7.701  -0.038  -5.974  0.00  0.00    +0.079 A 
ATOM     28  C   UNL     1      -8.122   0.611  -4.810  0.00  0.00    +0.028 A 
ATOM     29  C   UNL     1      -9.426   1.000  -4.687  0.00  0.00    +0.002 A 
ATOM     30  C   UNL     1     -10.343   0.760  -5.702  0.00  0.00    +0.001 A 
ATOM     31  C   UNL     1      -9.961   0.128  -6.853  0.00  0.00    +0.015 A 
ATOM     32  C   UNL     1      -8.636  -0.279  -7.006  0.00  0.00    +0.065 A 
ATOM     33  C   UNL     1      -8.170  -0.962  -8.220  0.00  0.00    +0.263 A 
ATOM     34  O   UNL     1      -8.927  -1.198  -9.143  0.00  0.00    -0.267 OA
ATOM     35  N   UNL     1      -6.864  -1.314  -8.277  0.00  0.00    -0.283 N 
BRANCH  35  36
ATOM     36  C   UNL     1      -6.344  -1.992  -9.466  0.00  0.00    +0.154 C 
BRANCH  36  37
ATOM     37  C   UNL     1      -6.485  -3.483  -9.297  0.00  0.00    -0.013 C 
ATOM     38  C   UNL     1      -7.123  -4.187 -10.199  0.00  0.00    +0.005 C 
ENDBRANCH  36  37
ENDBRANCH  35  36
ENDBRANCH  24  25
ENDBRANCH  23  24
ENDBRANCH   2  23
TORSDOF 9
