REMARK  Name = ZINC15967693
REMARK  4 active torsions:
REMARK  status: ('A' for Active; 'I' for Inactive)
REMARK    1  A    between atoms: C_1  and  C_2
REMARK    2  A    between atoms: C_13  and  C_16
REMARK    3  A    between atoms: C_16  and  C_17
REMARK    4  A    between atoms: N_29  and  C_32
REMARK                            x       y       z     vdW  Elec       q    Type
REMARK                         _______ _______ _______ _____ _____    ______ ____
ROOT
ATOM      1  C   UNL     1      -0.171   1.522  -0.002  0.00  0.00    +0.044 C 
ATOM      2  C   UNL     1      -0.339   0.025  -0.044  0.00  0.00    -0.050 A 
ATOM      3  C   UNL     1      -0.624  -0.606  -1.242  0.00  0.00    +0.005 A 
ATOM      4  C   UNL     1      -0.779  -1.976  -1.286  0.00  0.00    +0.024 A 
ATOM      5  C   UNL     1      -0.650  -2.735  -0.126  0.00  0.00    +0.039 A 
ATOM      6  C   UNL     1      -0.363  -2.088   1.073  0.00  0.00    +0.004 A 
ATOM      7  C   UNL     1      -0.203  -0.721   1.113  0.00  0.00    +0.011 A 
ATOM      8  C   UNL     1      -0.290  -3.169   2.115  0.00  0.00    +0.136 C 
ATOM      9  C   UNL     1      -1.317  -2.945   3.232  0.00  0.00    +0.123 C 
ATOM     10  C   UNL     1      -0.507  -2.280   4.379  0.00  0.00    +0.108 C 
ATOM     11  C   UNL     1       0.926  -2.140   3.825  0.00  0.00    +0.072 C 
ATOM     12  N   UNL     1       1.027  -3.198   2.776  0.00  0.00    -0.295 NA
ATOM     13  C   UNL     1      -0.535  -3.320   5.475  0.00  0.00    +0.232 C 
ATOM     14  O   UNL     1      -0.006  -3.210   6.560  0.00  0.00    -0.274 OA
ATOM     15  N   UNL     1      -1.236  -4.383   5.062  0.00  0.00    -0.210 N 
ATOM     16  C   UNL     1      -1.736  -4.278   3.809  0.00  0.00    +0.233 C 
ATOM     17  O   UNL     1      -2.408  -5.110   3.236  0.00  0.00    -0.274 OA
ATOM     18  C   UNL     1      -0.560  -4.448   1.371  0.00  0.00    +0.243 C 
ATOM     19  O   UNL     1      -0.594  -5.566   1.841  0.00  0.00    -0.273 OA
ATOM     20  N   UNL     1      -0.759  -4.111   0.082  0.00  0.00    -0.283 N 
ATOM     21  H   UNL     1       1.209  -4.105   3.180  0.00  0.00    +0.124 HD
ATOM     22  H   UNL     1      -0.956  -4.751  -0.621  0.00  0.00    +0.155 HD
ENDROOT
BRANCH  15  23
ATOM     23  C   UNL     1      -1.442  -5.514   5.864  0.00  0.00    +0.044 A 
ATOM     24  C   UNL     1      -0.858  -6.726   5.521  0.00  0.00    +0.024 A 
ATOM     25  C   UNL     1      -1.063  -7.838   6.313  0.00  0.00    +0.002 A 
ATOM     26  C   UNL     1      -1.849  -7.746   7.447  0.00  0.00    +0.000 A 
ATOM     27  C   UNL     1      -2.432  -6.541   7.791  0.00  0.00    +0.002 A 
ATOM     28  C   UNL     1      -2.226  -5.423   7.006  0.00  0.00    +0.024 A 
ENDBRANCH  15  23
BRANCH  11  29
ATOM     29  C   UNL     1       1.952  -2.403   4.928  0.00  0.00    +0.056 C 
BRANCH  29  30
ATOM     30  C   UNL     1       3.338  -2.142   4.398  0.00  0.00    -0.021 A 
ATOM     31  C   UNL     1       4.180  -3.051   3.883  0.00  0.00    +0.087 A 
ATOM     32  N   UNL     1       5.348  -2.446   3.506  0.00  0.00    -0.360 N 
ATOM     33  H   UNL     1       6.107  -2.898   3.108  0.00  0.00    +0.165 HD
ATOM     34  C   UNL     1       5.284  -1.097   3.776  0.00  0.00    +0.047 A 
ATOM     35  C   UNL     1       4.020  -0.846   4.341  0.00  0.00    +0.003 A 
ATOM     36  C   UNL     1       3.669   0.452   4.715  0.00  0.00    +0.010 A 
ATOM     37  C   UNL     1       4.554   1.475   4.526  0.00  0.00    +0.001 A 
ATOM     38  C   UNL     1       5.801   1.234   3.965  0.00  0.00    +0.002 A 
ATOM     39  C   UNL     1       6.172  -0.041   3.598  0.00  0.00    +0.026 A 
ENDBRANCH  29  30
ENDBRANCH  11  29
TORSDOF 3
