REMARK  Name = ZINC43746889
REMARK  10 active torsions:
REMARK  status: ('A' for Active; 'I' for Inactive)
REMARK    1  A    between atoms: C_1  and  C_2
REMARK    2  A    between atoms: C_6  and  O_31
REMARK    3  A    between atoms: C_12  and  C_13
REMARK    4  A    between atoms: C_13  and  C_14
REMARK    5  A    between atoms: C_14  and  C_15
REMARK    6  A    between atoms: N_17  and  C_18
REMARK    7  A    between atoms: C_18  and  C_19
REMARK    8  A    between atoms: O_31  and  C_32
REMARK    9  A    between atoms: C_32  and  C_33
REMARK   10  A    between atoms: C_33  and  C_35
REMARK                            x       y       z     vdW  Elec       q    Type
REMARK                         _______ _______ _______ _____ _____    ______ ____
ROOT
ATOM      1  C   UNL     1       0.025   0.016   2.486  0.00  0.00    +0.052 C 
ENDROOT
BRANCH   1  13
ATOM      2  C   UNL     1      -0.018   1.503   0.010  0.00  0.00    +0.045 C 
ATOM      3  C   UNL     1       0.002  -0.004   0.002  0.00  0.00    -0.030 A 
ATOM      4  C   UNL     1       0.006  -0.749  -1.259  0.00  0.00    +0.021 A 
ATOM      5  C   UNL     1      -0.008  -0.083  -2.490  0.00  0.00    +0.015 A 
ATOM      6  C   UNL     1      -0.003  -0.802  -3.650  0.00  0.00    +0.046 A 
ATOM      7  C   UNL     1       0.016  -2.195  -3.617  0.00  0.00    +0.124 A 
ATOM      8  C   UNL     1       0.031  -2.870  -2.407  0.00  0.00    +0.092 A 
ATOM      9  C   UNL     1       0.026  -2.156  -1.219  0.00  0.00    +0.143 A 
ATOM     10  O   UNL     1       0.041  -2.795  -0.029  0.00  0.00    -0.422 OA
ATOM     11  C   UNL     1       0.037  -2.118   1.129  0.00  0.00    +0.341 A 
ATOM     12  O   UNL     1       0.051  -2.736   2.178  0.00  0.00    -0.245 OA
ATOM     13  C   UNL     1       0.023  -0.708   1.164  0.00  0.00    +0.041 A 
BRANCH   7  14
ATOM     14  O   UNL     1       0.020  -2.896  -4.779  0.00  0.00    -0.488 OA
BRANCH  14  15
ATOM     15  C   UNL     1       0.004  -2.140  -5.992  0.00  0.00    +0.259 C 
BRANCH  15  16
ATOM     16  C   UNL     1       0.012  -3.081  -7.170  0.00  0.00    -0.043 C 
ATOM     17  C   UNL     1       0.030  -4.376  -6.974  0.00  0.00    +0.011 C 
ATOM     18  C   UNL     1      -0.003  -2.531  -8.573  0.00  0.00    +0.042 C 
ENDBRANCH  15  16
ENDBRANCH  14  15
ENDBRANCH   7  14
ENDBRANCH   1  13
BRANCH   1  19
ATOM     19  C   UNL     1      -1.409   0.131   3.007  0.00  0.00    +0.100 C 
BRANCH  19  20
ATOM     20  C   UNL     1      -1.406   0.854   4.329  0.00  0.00    +0.213 C 
ATOM     21  O   UNL     1      -0.360   1.240   4.807  0.00  0.00    -0.276 OA
ATOM     22  N   UNL     1      -2.566   1.073   4.980  0.00  0.00    -0.315 N 
ATOM     23  H   UNL     1      -3.402   0.764   4.597  0.00  0.00    +0.149 HD
BRANCH  22  24
ATOM     24  C   UNL     1      -2.563   1.776   6.265  0.00  0.00    +0.106 C 
BRANCH  24  25
ATOM     25  C   UNL     1      -3.997   1.891   6.786  0.00  0.00    -0.008 C 
ATOM     26  C   UNL     1      -4.813   2.774   5.840  0.00  0.00    +0.002 C 
ATOM     27  C   UNL     1      -6.227   2.929   6.410  0.00  0.00    -0.018 C 
ATOM     28  C   UNL     1      -6.130   3.533   7.811  0.00  0.00    -0.078 C 
ATOM     29  N   UNL     1      -5.351   2.648   8.691  0.00  0.00    +0.382 N 
ATOM     30  C   UNL     1      -3.982   2.512   8.187  0.00  0.00    -0.064 C 
ATOM     31  C   UNL     1      -3.174   1.591   9.107  0.00  0.00    -0.015 C 
ATOM     32  C   UNL     1      -3.151   2.166  10.525  0.00  0.00    -0.003 C 
ATOM     33  C   UNL     1      -4.596   2.332  11.009  0.00  0.00    -0.019 C 
ATOM     34  C   UNL     1      -5.340   3.241  10.037  0.00  0.00    -0.078 C 
ATOM     35  H   UNL     1      -5.789   1.740   8.728  0.00  0.00    -0.081 HD
ENDBRANCH  24  25
ENDBRANCH  22  24
ENDBRANCH  19  20
ENDBRANCH   1  19
TORSDOF 8
