REMARK  Name = ZINC08192188
REMARK  7 active torsions:
REMARK  status: ('A' for Active; 'I' for Inactive)
REMARK    1  A    between atoms: C_1  and  C_2
REMARK    2  A    between atoms: C_2  and  C_4
REMARK    3  A    between atoms: C_2  and  N_53
REMARK    4  A    between atoms: C_7  and  S_16
REMARK    5  A    between atoms: N_8  and  C_9
REMARK    6  A    between atoms: S_16  and  C_17
REMARK    7  A    between atoms: C_17  and  C_18
REMARK                            x       y       z     vdW  Elec       q    Type
REMARK                         _______ _______ _______ _____ _____    ______ ____
ROOT
ATOM      1  C   UNL     1       1.375   1.721   0.190  0.00  0.00    +0.125 A 
ATOM      2  N   UNL     1       0.221   1.119   0.252  0.00  0.00    -0.135 NA
ATOM      3  N   UNL     1       0.389  -0.144   0.416  0.00  0.00    -0.122 NA
ATOM      4  C   UNL     1       1.671  -0.422   0.469  0.00  0.00    +0.196 A 
ATOM      5  N   UNL     1       2.342   0.761   0.327  0.00  0.00    -0.275 N 
ENDROOT
BRANCH   5   6
ATOM      6  C   UNL     1       3.733   0.952   0.321  0.00  0.00    +0.050 A 
ATOM      7  C   UNL     1       4.338   1.688   1.330  0.00  0.00    +0.029 A 
ATOM      8  C   UNL     1       5.707   1.870   1.325  0.00  0.00    +0.040 A 
ATOM      9  C   UNL     1       6.475   1.327   0.308  0.00  0.00    +0.124 A 
ATOM     10  C   UNL     1       5.872   0.597  -0.702  0.00  0.00    +0.040 A 
ATOM     11  C   UNL     1       4.504   0.409  -0.698  0.00  0.00    +0.029 A 
ATOM     12  F   UNL     1       7.813   1.511   0.303  0.00  0.00    -0.205 F 
ENDBRANCH   5   6
BRANCH   1  14
ATOM     13  C   UNL     1       1.296   3.583  -1.445  0.00  0.00    -0.005 C 
ATOM     14  C   UNL     1       1.603   3.199   0.004  0.00  0.00    -0.002 C 
BRANCH  14  20
ATOM     15  C   UNL     1       0.935   5.395   0.774  0.00  0.00    -0.078 C 
ATOM     16  C   UNL     1      -0.098   6.146   1.617  0.00  0.00    -0.019 C 
ATOM     17  C   UNL     1       0.043   5.723   3.083  0.00  0.00    -0.004 C 
ATOM     18  C   UNL     1      -0.138   4.206   3.187  0.00  0.00    -0.019 C 
ATOM     19  C   UNL     1       0.895   3.511   2.298  0.00  0.00    -0.078 C 
ATOM     20  N   UNL     1       0.691   3.942   0.898  0.00  0.00    +0.386 N 
ATOM     21  H   UNL     1      -0.278   3.742   0.627  0.00  0.00    -0.081 HD
ENDBRANCH  14  20
ENDBRANCH   1  14
BRANCH   4  22
ATOM     22  S   UNL     1       2.390  -2.016   0.683  0.00  0.00    -0.081 S 
BRANCH  22  23
ATOM     23  C   UNL     1       0.892  -3.025   0.792  0.00  0.00    +0.112 C 
BRANCH  23  24
ATOM     24  C   UNL     1       1.272  -4.471   0.982  0.00  0.00    -0.037 A 
ATOM     25  C   UNL     1       1.457  -5.287  -0.118  0.00  0.00    +0.004 A 
ATOM     26  C   UNL     1       1.811  -6.612   0.057  0.00  0.00    +0.000 A 
ATOM     27  C   UNL     1       1.970  -7.123   1.331  0.00  0.00    +0.000 A 
ATOM     28  C   UNL     1       1.779  -6.308   2.431  0.00  0.00    +0.000 A 
ATOM     29  C   UNL     1       1.431  -4.982   2.257  0.00  0.00    +0.004 A 
ENDBRANCH  23  24
ENDBRANCH  22  23
ENDBRANCH   4  22
TORSDOF 6
