REMARK  Name = ZINC35345653
REMARK  11 active torsions:
REMARK  status: ('A' for Active; 'I' for Inactive)
REMARK    1  A    between atoms: C_1  and  C_2
REMARK    2  A    between atoms: C_2  and  C_3
REMARK    3  A    between atoms: C_3  and  C_5
REMARK    4  A    between atoms: C_3  and  N_17
REMARK    5  A    between atoms: N_7  and  C_8
REMARK    6  A    between atoms: C_13  and  O_14
REMARK    7  A    between atoms: O_14  and  C_15
REMARK    8  A    between atoms: C_15  and  C_16
REMARK    9  A    between atoms: C_20  and  C_23
REMARK   10  A    between atoms: C_27  and  C_34
REMARK   11  A    between atoms: C_30  and  C_33
REMARK                            x       y       z     vdW  Elec       q    Type
REMARK                         _______ _______ _______ _____ _____    ______ ____
ROOT
ATOM      1  N   UNL     1      -2.304  -0.040  -1.053  0.00  0.00    +0.387 N 
ATOM      2  C   UNL     1      -2.245   1.426  -1.019  0.00  0.00    -0.077 C 
ATOM      3  C   UNL     1      -2.980   1.998  -2.233  0.00  0.00    -0.006 C 
ATOM      4  C   UNL     1      -4.442   1.543  -2.199  0.00  0.00    +0.072 C 
ATOM      5  C   UNL     1      -4.489   0.013  -2.160  0.00  0.00    -0.006 C 
ATOM      6  C   UNL     1      -3.699  -0.485  -0.948  0.00  0.00    -0.077 C 
ATOM      7  H   UNL     1      -1.911  -0.370  -1.922  0.00  0.00    -0.081 HD
ENDROOT
BRANCH   4   8
ATOM      8  C   UNL     1      -5.153   2.038  -3.433  0.00  0.00    +0.219 C 
ATOM      9  O   UNL     1      -4.545   2.156  -4.476  0.00  0.00    -0.275 OA
ATOM     10  N   UNL     1      -6.463   2.348  -3.377  0.00  0.00    -0.301 N 
ATOM     11  C   UNL     1      -7.185   2.320  -2.097  0.00  0.00    +0.111 C 
ATOM     12  C   UNL     1      -7.876   3.671  -1.891  0.00  0.00    +0.004 C 
ATOM     13  C   UNL     1      -8.757   3.980  -3.103  0.00  0.00    +0.009 C 
ATOM     14  C   UNL     1      -7.887   4.069  -4.359  0.00  0.00    +0.004 C 
ATOM     15  C   UNL     1      -7.195   2.728  -4.593  0.00  0.00    +0.111 C 
ATOM     16  C   UNL     1      -8.764   4.411  -5.565  0.00  0.00    +0.009 C 
ATOM     17  C   UNL     1      -6.819   4.766  -1.735  0.00  0.00    +0.009 C 
ENDBRANCH   4   8
BRANCH   1  18
ATOM     18  C   UNL     1      -1.531  -0.586   0.071  0.00  0.00    +0.019 C 
BRANCH  18  19
ATOM     19  C   UNL     1      -2.095  -0.065   1.368  0.00  0.00    +0.204 C 
ATOM     20  O   UNL     1      -3.116   0.591   1.365  0.00  0.00    -0.277 OA
ATOM     21  N   UNL     1      -1.465  -0.327   2.530  0.00  0.00    -0.284 N 
ATOM     22  H   UNL     1      -0.610  -0.784   2.526  0.00  0.00    +0.155 HD
BRANCH  21  23
ATOM     23  C   UNL     1      -2.046   0.062   3.745  0.00  0.00    +0.076 A 
ATOM     24  C   UNL     1      -2.920   1.139   3.785  0.00  0.00    +0.027 A 
ATOM     25  C   UNL     1      -3.491   1.520   4.984  0.00  0.00    +0.002 A 
ATOM     26  C   UNL     1      -3.194   0.832   6.146  0.00  0.00    +0.004 A 
ATOM     27  C   UNL     1      -2.323  -0.242   6.114  0.00  0.00    +0.047 A 
ATOM     28  C   UNL     1      -1.750  -0.634   4.915  0.00  0.00    +0.142 A 
BRANCH  28  29
ATOM     29  O   UNL     1      -0.898  -1.693   4.880  0.00  0.00    -0.490 OA
BRANCH  29  30
ATOM     30  C   UNL     1      -0.642  -2.360   6.118  0.00  0.00    +0.226 C 
ATOM     31  C   UNL     1       0.332  -3.516   5.883  0.00  0.00    +0.048 C 
ENDBRANCH  29  30
ENDBRANCH  28  29
ENDBRANCH  21  23
ENDBRANCH  18  19
BRANCH  18  33
ATOM     32  C   UNL     1      -0.995  -2.645  -1.238  0.00  0.00    +0.002 C 
ATOM     33  C   UNL     1      -1.617  -2.113   0.055  0.00  0.00    -0.010 C 
ENDBRANCH  18  33
ENDBRANCH   1  18
TORSDOF 7
