REMARK  Name = ZINC35999675
REMARK  9 active torsions:
REMARK  status: ('A' for Active; 'I' for Inactive)
REMARK    1  A    between atoms: C_1  and  C_2
REMARK    2  A    between atoms: C_3  and  C_8
REMARK    3  A    between atoms: C_8  and  C_9
REMARK    4  A    between atoms: C_8  and  C_17
REMARK    5  A    between atoms: C_10  and  C_16
REMARK    6  A    between atoms: C_26  and  O_27
REMARK    7  A    between atoms: O_27  and  C_28
REMARK    8  A    between atoms: C_28  and  C_29
REMARK    9  A    between atoms: C_28  and  C_30
REMARK                            x       y       z     vdW  Elec       q    Type
REMARK                         _______ _______ _______ _____ _____    ______ ____
ROOT
ATOM      1  C   UNL     1       0.053  -0.335   2.489  0.00  0.00    +0.097 C 
ENDROOT
BRANCH   1   2
ATOM      2  C   UNL     1       1.004  -1.099   3.374  0.00  0.00    +0.014 A 
ATOM      3  C   UNL     1       1.741  -0.428   4.365  0.00  0.00    -0.010 A 
ATOM      4  C   UNL     1       1.612   0.958   4.555  0.00  0.00    +0.009 A 
ATOM      5  C   UNL     1       2.340   1.575   5.525  0.00  0.00    +0.001 A 
ATOM      6  C   UNL     1       3.215   0.853   6.334  0.00  0.00    +0.001 A 
ATOM      7  C   UNL     1       3.366  -0.491   6.179  0.00  0.00    +0.008 A 
ATOM      8  C   UNL     1       2.630  -1.163   5.188  0.00  0.00    -0.017 A 
ATOM      9  C   UNL     1       2.760  -2.550   5.000  0.00  0.00    +0.012 A 
ATOM     10  C   UNL     1       2.033  -3.170   4.032  0.00  0.00    +0.046 A 
ATOM     11  C   UNL     1       1.151  -2.449   3.222  0.00  0.00    +0.126 A 
BRANCH  11  12
ATOM     12  O   UNL     1       0.434  -3.097   2.267  0.00  0.00    -0.489 OA
BRANCH  12  13
ATOM     13  C   UNL     1       0.731  -4.480   2.060  0.00  0.00    +0.167 C 
ATOM     14  C   UNL     1      -0.138  -5.332   2.987  0.00  0.00    +0.051 C 
ATOM     15  C   UNL     1       0.440  -4.851   0.605  0.00  0.00    +0.051 C 
ENDBRANCH  12  13
ENDBRANCH  11  12
ENDBRANCH   1   2
BRANCH   1  18
ATOM     16  C   UNL     1       2.085   0.382   0.240  0.00  0.00    +0.065 C 
ATOM     17  C   UNL     1       0.958  -0.612   0.127  0.00  0.00    +0.039 A 
ATOM     18  C   UNL     1       0.079  -0.922   1.101  0.00  0.00    +0.051 A 
ATOM     19  C   UNL     1      -0.816  -1.893   0.593  0.00  0.00    +0.269 A 
ATOM     20  N   UNL     1      -0.458  -2.151  -0.681  0.00  0.00    -0.266 N 
ATOM     21  N   UNL     1       0.650  -1.347  -0.983  0.00  0.00    -0.301 N 
ATOM     22  O   UNL     1      -1.742  -2.404   1.198  0.00  0.00    -0.266 OA
ATOM     23  H   UNL     1       1.118  -1.319  -1.832  0.00  0.00    +0.186 HD
ATOM     24  H   UNL     1      -0.891  -2.777  -1.282  0.00  0.00    +0.190 HD
ENDBRANCH   1  18
BRANCH   1  25
ATOM     25  C   UNL     1      -1.342  -0.432   3.050  0.00  0.00    +0.053 A 
ATOM     26  C   UNL     1      -2.263   0.616   3.152  0.00  0.00    +0.068 A 
ATOM     27  N   UNL     1      -3.360   0.147   3.687  0.00  0.00    -0.176 NA
ATOM     28  N   UNL     1      -3.177  -1.218   3.945  0.00  0.00    -0.243 N 
ATOM     29  H   UNL     1      -3.830  -1.817   4.340  0.00  0.00    +0.192 HD
ATOM     30  C   UNL     1      -1.932  -1.554   3.542  0.00  0.00    +0.271 A 
ATOM     31  O   UNL     1      -1.371  -2.788   3.616  0.00  0.00    -0.266 OA
ATOM     32  C   UNL     1      -2.030   2.041   2.720  0.00  0.00    +0.068 C 
ENDBRANCH   1  25
TORSDOF 5
