REMARK  Name = ZINC45342851
REMARK  11 active torsions:
REMARK  status: ('A' for Active; 'I' for Inactive)
REMARK    1  A    between atoms: C_1  and  C_2
REMARK    2  A    between atoms: N_11  and  C_15
REMARK    3  A    between atoms: C_15  and  C_16
REMARK    4  A    between atoms: N_18  and  C_19
REMARK    5  A    between atoms: N_18  and  C_29
REMARK    6  A    between atoms: C_19  and  C_20
REMARK    7  A    between atoms: C_23  and  C_26
REMARK    8  A    between atoms: C_26  and  C_27
REMARK    9  A    between atoms: C_26  and  C_28
REMARK   10  A    between atoms: C_32  and  O_35
REMARK   11  A    between atoms: O_35  and  C_36
REMARK                            x       y       z     vdW  Elec       q    Type
REMARK                         _______ _______ _______ _____ _____    ______ ____
ROOT
ATOM      1  C   UNL     1       1.038   0.521   5.561  0.00  0.00    +0.238 C 
ATOM      2  O   UNL     1       1.320  -0.645   5.379  0.00  0.00    -0.273 OA
ATOM      3  N   UNL     1       1.279   1.094   6.757  0.00  0.00    -0.266 N 
ENDROOT
BRANCH   3   4
ATOM      4  C   UNL     1       0.855   2.406   7.003  0.00  0.00    +0.037 A 
ATOM      5  C   UNL     1      -0.144   2.650   7.937  0.00  0.00    +0.027 A 
ATOM      6  C   UNL     1      -0.561   3.943   8.179  0.00  0.00    +0.047 A 
ATOM      7  C   UNL     1       0.017   5.000   7.490  0.00  0.00    +0.120 A 
ATOM      8  C   UNL     1       1.014   4.757   6.558  0.00  0.00    +0.047 A 
ATOM      9  C   UNL     1       1.437   3.465   6.318  0.00  0.00    +0.027 A 
BRANCH   7  10
ATOM     10  O   UNL     1      -0.395   6.273   7.730  0.00  0.00    -0.495 OA
ATOM     11  C   UNL     1       0.244   7.312   6.984  0.00  0.00    +0.277 C 
ENDBRANCH   7  10
ENDBRANCH   3   4
BRANCH   1  12
ATOM     12  C   UNL     1       0.419   1.329   4.450  0.00  0.00    +0.214 C 
BRANCH  12  22
ATOM     13  C   UNL     1      -1.761   0.996   0.603  0.00  0.00    +0.010 C 
ATOM     14  C   UNL     1      -1.866  -0.518   0.798  0.00  0.00    +0.018 C 
ATOM     15  C   UNL     1      -3.271  -0.872   1.293  0.00  0.00    +0.006 C 
ATOM     16  C   UNL     1      -3.369  -2.384   1.507  0.00  0.00    +0.000 C 
ATOM     17  C   UNL     1      -2.344  -2.819   2.556  0.00  0.00    +0.003 C 
ATOM     18  C   UNL     1      -0.935  -2.473   2.066  0.00  0.00    +0.035 C 
ATOM     19  C   UNL     1      -0.833  -0.971   1.823  0.00  0.00    +0.115 C 
ATOM     20  C   UNL     1      -1.009  -0.214   3.119  0.00  0.00    +0.247 C 
ATOM     21  O   UNL     1      -1.983  -0.210   3.841  0.00  0.00    -0.273 OA
ATOM     22  N   UNL     1       0.147   0.456   3.305  0.00  0.00    -0.215 N 
ATOM     23  C   UNL     1       1.016   0.226   2.312  0.00  0.00    +0.310 C 
ATOM     24  O   UNL     1       2.125   0.718   2.257  0.00  0.00    -0.252 OA
ATOM     25  N   UNL     1       0.521  -0.613   1.382  0.00  0.00    -0.285 N 
ATOM     26  H   UNL     1       0.971  -0.921   0.579  0.00  0.00    +0.151 HD
ENDBRANCH  12  22
ENDBRANCH   1  12
BRANCH   3  27
ATOM     27  C   UNL     1       1.985   0.345   7.799  0.00  0.00    +0.148 C 
BRANCH  27  28
ATOM     28  C   UNL     1       3.468   0.580   7.671  0.00  0.00    -0.030 A 
ATOM     29  C   UNL     1       4.233  -0.250   6.872  0.00  0.00    +0.005 A 
ATOM     30  C   UNL     1       5.593  -0.034   6.754  0.00  0.00    +0.004 A 
ATOM     31  C   UNL     1       6.189   1.012   7.434  0.00  0.00    -0.045 A 
ATOM     32  C   UNL     1       5.423   1.843   8.232  0.00  0.00    +0.004 A 
ATOM     33  C   UNL     1       4.062   1.629   8.346  0.00  0.00    +0.005 A 
BRANCH  31  34
ATOM     34  C   UNL     1       7.672   1.247   7.306  0.00  0.00    +0.013 C 
ATOM     35  C   UNL     1       7.919   2.643   6.730  0.00  0.00    +0.012 C 
ATOM     36  C   UNL     1       8.326   1.141   8.685  0.00  0.00    +0.012 C 
ENDBRANCH  31  34
ENDBRANCH  27  28
ENDBRANCH   3  27
TORSDOF 7
