REMARK  Name = ZINC13063678
REMARK  14 active torsions:
REMARK  status: ('A' for Active; 'I' for Inactive)
REMARK    1  A    between atoms: C_1  and  C_2
REMARK    2  A    between atoms: C_2  and  C_3
REMARK    3  A    between atoms: C_10  and  C_15
REMARK    4  A    between atoms: C_15  and  N_74
REMARK    5  A    between atoms: C_16  and  C_17
REMARK    6  A    between atoms: C_16  and  N_74
REMARK    7  A    between atoms: C_22  and  O_23
REMARK    8  A    between atoms: O_23  and  C_24
REMARK    9  A    between atoms: C_25  and  C_27
REMARK   10  A    between atoms: C_25  and  C_29
REMARK   11  A    between atoms: C_25  and  N_74
REMARK   12  A    between atoms: C_27  and  C_28
REMARK   13  A    between atoms: N_33  and  C_34
REMARK   14  A    between atoms: C_34  and  C_35
REMARK                            x       y       z     vdW  Elec       q    Type
REMARK                         _______ _______ _______ _____ _____    ______ ____
ROOT
ATOM      1  N   UNL     1      -0.657   3.207   0.819  0.00  0.00    +0.392 N 
ATOM      2  H   UNL     1      -0.035   3.933   0.443  0.00  0.00    -0.080 HD
ENDROOT
BRANCH   1   3
ATOM      3  C   UNL     1      -2.003   3.377   0.233  0.00  0.00    -0.036 C 
BRANCH   3  11
ATOM      4  C   UNL     1      -3.016   9.414  -0.667  0.00  0.00    -0.047 A 
ATOM      5  C   UNL     1      -3.677   9.642   0.532  0.00  0.00    +0.005 A 
ATOM      6  C   UNL     1      -3.880   8.615   1.429  0.00  0.00    +0.026 A 
ATOM      7  C   UNL     1      -3.419   7.337   1.131  0.00  0.00    +0.049 A 
ATOM      8  C   UNL     1      -2.749   7.110  -0.086  0.00  0.00    -0.001 A 
ATOM      9  C   UNL     1      -2.554   8.167  -0.981  0.00  0.00    +0.013 A 
ATOM     10  C   UNL     1      -2.268   5.761  -0.390  0.00  0.00    +0.017 A 
ATOM     11  C   UNL     1      -2.485   4.776   0.515  0.00  0.00    +0.001 A 
ATOM     12  C   UNL     1      -3.167   5.055   1.719  0.00  0.00    +0.251 A 
ATOM     13  O   UNL     1      -3.357   4.154   2.517  0.00  0.00    -0.268 OA
ATOM     14  N   UNL     1      -3.608   6.292   2.010  0.00  0.00    -0.322 N 
ATOM     15  H   UNL     1      -4.069   6.450   2.849  0.00  0.00    +0.169 HD
BRANCH   4  17
ATOM     16  C   UNL     1      -1.476  11.244  -1.322  0.00  0.00    +0.009 C 
ATOM     17  C   UNL     1      -2.805  10.553  -1.631  0.00  0.00    +0.032 C 
ENDBRANCH   4  17
ENDBRANCH   3  11
ENDBRANCH   1   3
BRANCH   1  18
ATOM     18  C   UNL     1      -0.725   3.348   2.289  0.00  0.00    -0.038 C 
BRANCH  18  19
ATOM     19  C   UNL     1       0.656   3.656   2.808  0.00  0.00    -0.022 A 
ATOM     20  C   UNL     1       1.350   2.706   3.534  0.00  0.00    +0.005 A 
ATOM     21  C   UNL     1       2.617   2.988   4.010  0.00  0.00    +0.000 A 
ATOM     22  C   UNL     1       3.193   4.220   3.762  0.00  0.00    +0.004 A 
ATOM     23  C   UNL     1       2.503   5.173   3.037  0.00  0.00    +0.046 A 
ATOM     24  C   UNL     1       1.234   4.891   2.554  0.00  0.00    +0.121 A 
BRANCH  24  25
ATOM     25  O   UNL     1       0.556   5.825   1.836  0.00  0.00    -0.495 OA
ATOM     26  C   UNL     1       1.252   7.032   1.522  0.00  0.00    +0.277 C 
ENDBRANCH  24  25
ENDBRANCH  18  19
ENDBRANCH   1  18
BRANCH   1  27
ATOM     27  C   UNL     1      -0.115   1.879   0.463  0.00  0.00    +0.003 C 
BRANCH  27  28
ATOM     28  C   UNL     1       1.360   1.859   0.774  0.00  0.00    +0.138 A 
ATOM     29  N   UNL     1       2.231   2.799   0.499  0.00  0.00    -0.115 NA
ATOM     30  N   UNL     1       3.383   2.410   0.924  0.00  0.00    -0.023 NA
ATOM     31  N   UNL     1       3.272   1.244   1.457  0.00  0.00    -0.044 NA
ATOM     32  N   UNL     1       2.039   0.869   1.384  0.00  0.00    -0.228 N 
BRANCH  32  33
ATOM     33  C   UNL     1       1.483  -0.395   1.873  0.00  0.00    +0.178 C 
BRANCH  33  34
ATOM     34  C   UNL     1       1.550  -1.445   0.762  0.00  0.00    +0.140 C 
ATOM     35  C   UNL     1       0.863  -2.746   1.229  0.00  0.00    +0.035 C 
ATOM     36  C   UNL     1       1.794  -3.841   0.640  0.00  0.00    +0.031 C 
ATOM     37  C   UNL     1       3.174  -3.144   0.751  0.00  0.00    +0.160 C 
ATOM     38  O   UNL     1       2.918  -1.758   0.471  0.00  0.00    -0.375 OA
ENDBRANCH  33  34
ENDBRANCH  32  33
ENDBRANCH  27  28
BRANCH  27  39
ATOM     39  C   UNL     1      -0.324   1.636  -1.033  0.00  0.00    -0.011 C 
ATOM     40  C   UNL     1       0.456   2.681  -1.833  0.00  0.00    +0.002 C 
ENDBRANCH  27  39
ENDBRANCH   1  27
TORSDOF 11
