REMARK  Name = ZINC36580206
REMARK  12 active torsions:
REMARK  status: ('A' for Active; 'I' for Inactive)
REMARK    1  A    between atoms: C_1  and  C_2
REMARK    2  A    between atoms: C_5  and  S_8
REMARK    3  A    between atoms: S_8  and  C_11
REMARK    4  A    between atoms: C_11  and  N_12
REMARK    5  A    between atoms: C_13  and  C_15
REMARK    6  A    between atoms: C_15  and  C_17
REMARK    7  A    between atoms: C_15  and  N_23
REMARK    8  A    between atoms: N_23  and  C_32
REMARK    9  A    between atoms: C_24  and  C_26
REMARK   10  A    between atoms: C_32  and  C_33
REMARK   11  A    between atoms: C_32  and  C_34
REMARK   12  A    between atoms: C_32  and  C_35
REMARK                            x       y       z     vdW  Elec       q    Type
REMARK                         _______ _______ _______ _____ _____    ______ ____
ROOT
ATOM      1  C   UNL     1       4.044  -4.515   4.603  0.00  0.00    +0.165 C 
ENDROOT
BRANCH   1   2
ATOM      2  C   UNL     1       5.501  -4.214   4.245  0.00  0.00    +0.019 C 
ATOM      3  C   UNL     1       6.408  -4.630   5.405  0.00  0.00    +0.006 C 
ATOM      4  C   UNL     1       7.864  -4.329   5.047  0.00  0.00    +0.000 C 
ATOM      5  C   UNL     1       8.026  -2.830   4.787  0.00  0.00    +0.000 C 
ATOM      6  C   UNL     1       7.120  -2.414   3.627  0.00  0.00    +0.000 C 
ATOM      7  C   UNL     1       5.663  -2.715   3.985  0.00  0.00    +0.006 C 
ENDBRANCH   1   2
BRANCH   1   9
ATOM      8  N   UNL     1       2.283  -3.333   3.331  0.00  0.00    -0.295 N 
ATOM      9  C   UNL     1       3.180  -4.337   3.382  0.00  0.00    +0.235 C 
ATOM     10  O   UNL     1       3.292  -5.098   2.444  0.00  0.00    -0.274 OA
ATOM     11  H   UNL     1       2.141  -2.769   4.108  0.00  0.00    +0.150 HD
BRANCH   8  12
ATOM     12  C   UNL     1       1.520  -3.093   2.103  0.00  0.00    +0.278 C 
BRANCH  12  13
ATOM     13  S   UNL     1      -0.081  -3.939   2.210  0.00  0.00    +0.013 S 
ATOM     14  O   UNL     1       0.101  -5.274   2.660  0.00  0.00    -0.168 OA
ATOM     15  O   UNL     1      -0.858  -3.663   1.053  0.00  0.00    -0.168 OA
BRANCH  13  20
ATOM     16  C   UNL     1      -2.998  -1.181   6.714  0.00  0.00    +0.044 C 
ATOM     17  C   UNL     1      -2.269  -1.869   5.589  0.00  0.00    -0.050 A 
ATOM     18  C   UNL     1      -2.399  -1.404   4.294  0.00  0.00    +0.005 A 
ATOM     19  C   UNL     1      -1.730  -2.035   3.262  0.00  0.00    +0.027 A 
ATOM     20  C   UNL     1      -0.932  -3.133   3.526  0.00  0.00    +0.090 A 
ATOM     21  C   UNL     1      -0.801  -3.598   4.821  0.00  0.00    +0.027 A 
ATOM     22  C   UNL     1      -1.466  -2.963   5.853  0.00  0.00    +0.005 A 
ENDBRANCH  13  20
ENDBRANCH  12  13
ENDBRANCH   8  12
ENDBRANCH   1   9
BRANCH   1  23
ATOM     23  N   UNL     1       3.934  -5.894   5.083  0.00  0.00    -0.284 N 
ATOM     24  C   UNL     1       3.507  -6.140   6.338  0.00  0.00    +0.220 C 
ATOM     25  O   UNL     1       3.114  -5.228   7.034  0.00  0.00    -0.275 OA
BRANCH  24  26
ATOM     26  C   UNL     1       3.517  -7.548   6.875  0.00  0.00    +0.075 C 
ATOM     27  C   UNL     1       2.547  -8.410   6.065  0.00  0.00    +0.013 C 
ATOM     28  C   UNL     1       2.557  -9.839   6.611  0.00  0.00    +0.001 C 
ATOM     29  C   UNL     1       2.125  -9.827   8.079  0.00  0.00    +0.000 C 
ATOM     30  C   UNL     1       3.095  -8.965   8.889  0.00  0.00    +0.001 C 
ATOM     31  C   UNL     1       3.085  -7.536   8.343  0.00  0.00    +0.013 C 
ENDBRANCH  24  26
BRANCH  23  32
ATOM     32  C   UNL     1       4.289  -7.008   4.199  0.00  0.00    +0.030 C 
ATOM     33  C   UNL     1       5.306  -6.530   3.160  0.00  0.00    +0.031 C 
ATOM     34  C   UNL     1       4.899  -8.141   5.026  0.00  0.00    +0.031 C 
ATOM     35  C   UNL     1       3.033  -7.515   3.488  0.00  0.00    +0.031 C 
ENDBRANCH  23  32
ENDBRANCH   1  23
TORSDOF 8
