REMARK  Name = ZINC13732667
REMARK  7 active torsions:
REMARK  status: ('A' for Active; 'I' for Inactive)
REMARK    1  A    between atoms: C_8  and  C_11
REMARK    2  A    between atoms: C_11  and  C_12
REMARK    3  A    between atoms: C_12  and  N_13
REMARK    4  A    between atoms: C_14  and  C_16
REMARK    5  A    between atoms: C_16  and  C_17
REMARK    6  A    between atoms: N_22  and  S_23
REMARK    7  A    between atoms: S_23  and  C_26
REMARK                            x       y       z     vdW  Elec       q    Type
REMARK                         _______ _______ _______ _____ _____    ______ ____
ROOT
ATOM      1  C   UNL     1      -1.321   2.069   0.020  0.00  0.00    +0.151 C 
ENDROOT
BRANCH   1   2
ATOM      2  C   UNL     1      -0.016   1.316   0.009  0.00  0.00    +0.059 A 
ATOM      3  C   UNL     1       1.166   1.978   0.002  0.00  0.00    +0.072 A 
ATOM      4  S   UNL     1       2.314   0.609  -0.017  0.00  0.00    -0.059 S 
ATOM      5  C   UNL     1       1.140  -0.671  -0.012  0.00  0.00    +0.178 A 
ATOM      6  N   UNL     1       0.002  -0.004   0.002  0.00  0.00    -0.228 NA
ATOM      7  N   UNL     1       1.346  -2.042  -0.022  0.00  0.00    -0.194 N 
ATOM      8  H   UNL     1       0.588  -2.646  -0.018  0.00  0.00    +0.176 HD
BRANCH   7   9
ATOM      9  S   UNL     1       2.888  -2.647  -0.040  0.00  0.00    +0.074 S 
ATOM     10  O   UNL     1       2.768  -4.063  -0.019  0.00  0.00    -0.150 OA
ATOM     11  O   UNL     1       3.583  -1.956  -1.068  0.00  0.00    -0.150 OA
BRANCH   9  12
ATOM     12  C   UNL     1       3.647  -2.184   1.481  0.00  0.00    +0.109 A 
ATOM     13  C   UNL     1       4.342  -0.992   1.571  0.00  0.00    +0.030 A 
ATOM     14  C   UNL     1       4.933  -0.625   2.766  0.00  0.00    +0.022 A 
ATOM     15  C   UNL     1       4.839  -1.456   3.868  0.00  0.00    +0.041 A 
ATOM     16  C   UNL     1       4.149  -2.652   3.775  0.00  0.00    +0.022 A 
ATOM     17  C   UNL     1       3.553  -3.015   2.582  0.00  0.00    +0.030 A 
ATOM     18 CL   UNL     1       5.587  -1.000   5.366  0.00  0.00    -0.084 Cl
ENDBRANCH   9  12
ENDBRANCH   7   9
ENDBRANCH   1   2
BRANCH   1  20
ATOM     19  N   UNL     1      -3.389   2.161  -1.335  0.00  0.00    -0.315 N 
ATOM     20  C   UNL     1      -2.169   1.620  -1.142  0.00  0.00    +0.219 C 
ATOM     21  O   UNL     1      -1.755   0.772  -1.904  0.00  0.00    -0.275 OA
ATOM     22  H   UNL     1      -3.720   2.839  -0.726  0.00  0.00    +0.149 HD
BRANCH  19  23
ATOM     23  C   UNL     1      -4.213   1.724  -2.465  0.00  0.00    +0.110 C 
BRANCH  23  24
ATOM     24  C   UNL     1      -5.538   2.489  -2.454  0.00  0.00    +0.072 C 
BRANCH  24  32
ATOM     25  C   UNL     1      -8.681   1.055  -7.465  0.00  0.00    +0.001 A 
ATOM     26  C   UNL     1      -9.306   0.160  -6.607  0.00  0.00    +0.002 A 
ATOM     27  C   UNL     1      -8.939   0.085  -5.281  0.00  0.00    +0.026 A 
ATOM     28  C   UNL     1      -7.932   0.912  -4.795  0.00  0.00    +0.047 A 
ATOM     29  C   UNL     1      -7.302   1.817  -5.668  0.00  0.00    -0.000 A 
ATOM     30  C   UNL     1      -7.690   1.877  -7.008  0.00  0.00    +0.010 A 
ATOM     31  C   UNL     1      -6.310   2.533  -4.862  0.00  0.00    +0.031 A 
ATOM     32  C   UNL     1      -6.387   2.040  -3.616  0.00  0.00    +0.018 A 
ATOM     33  N   UNL     1      -7.353   1.073  -3.556  0.00  0.00    -0.358 N 
ATOM     34  H   UNL     1      -7.593   0.574  -2.760  0.00  0.00    +0.166 HD
ENDBRANCH  24  32
ENDBRANCH  23  24
ENDBRANCH  19  23
ENDBRANCH   1  20
TORSDOF 7
