REMARK  Name = ZINC26847032
REMARK  3 active torsions:
REMARK  status: ('A' for Active; 'I' for Inactive)
REMARK    1  A    between atoms: C_1  and  C_2
REMARK    2  A    between atoms: N_8  and  S_9
REMARK    3  A    between atoms: S_9  and  C_12
REMARK                            x       y       z     vdW  Elec       q    Type
REMARK                         _______ _______ _______ _____ _____    ______ ____
ROOT
ATOM      1  S   UNL     1       0.487   1.887  -2.393  0.00  0.00    +0.061 S 
ATOM      2  O   UNL     1      -0.311   2.679  -3.262  0.00  0.00    -0.153 OA
ATOM      3  O   UNL     1       1.644   2.397  -1.745  0.00  0.00    -0.153 OA
ENDROOT
BRANCH   1   4
ATOM      4  C   UNL     1       1.008   0.486  -3.326  0.00  0.00    +0.111 A 
ATOM      5  C   UNL     1       2.156  -0.195  -2.966  0.00  0.00    +0.067 A 
ATOM      6  C   UNL     1       2.564  -1.299  -3.695  0.00  0.00    +0.128 A 
ATOM      7  C   UNL     1       1.828  -1.714  -4.791  0.00  0.00    +0.076 A 
ATOM      8  C   UNL     1       0.682  -1.028  -5.154  0.00  0.00    +0.128 A 
ATOM      9  C   UNL     1       0.273   0.073  -4.420  0.00  0.00    +0.067 A 
ATOM     10  F   UNL     1      -0.037  -1.432  -6.224  0.00  0.00    -0.205 F 
ATOM     11  F   UNL     1       3.683  -1.968  -3.340  0.00  0.00    -0.205 F 
ENDBRANCH   1   4
BRANCH   1  18
ATOM     12  C   UNL     1       1.527   1.059   0.127  0.00  0.00    +0.028 C 
ATOM     13  C   UNL     1       0.023   0.790   0.056  0.00  0.00    +0.102 C 
ATOM     14  C   UNL     1      -0.682   1.483   1.228  0.00  0.00    +0.180 C 
ATOM     15  O   UNL     1      -2.098   1.383   1.050  0.00  0.00    -0.377 OA
ATOM     16  C   UNL     1      -2.589   2.037  -0.122  0.00  0.00    +0.177 C 
ATOM     17  C   UNL     1      -1.981   1.372  -1.363  0.00  0.00    +0.138 C 
ATOM     18  N   UNL     1      -0.519   1.334  -1.200  0.00  0.00    -0.169 NA
ENDBRANCH   1  18
TORSDOF 2
