REMARK  Name = ZINC11614431
REMARK  11 active torsions:
REMARK  status: ('A' for Active; 'I' for Inactive)
REMARK    1  A    between atoms: C_1  and  C_2
REMARK    2  A    between atoms: C_2  and  C_3
REMARK    3  A    between atoms: C_3  and  O_4
REMARK    4  A    between atoms: O_4  and  C_5
REMARK    5  A    between atoms: C_8  and  C_11
REMARK    6  A    between atoms: N_26  and  C_27
REMARK    7  A    between atoms: C_27  and  C_28
REMARK    8  A    between atoms: C_28  and  C_29
REMARK    9  A    between atoms: C_29  and  N_59
REMARK   10  A    between atoms: C_30  and  N_59
REMARK   11  A    between atoms: C_31  and  N_59
REMARK                            x       y       z     vdW  Elec       q    Type
REMARK                         _______ _______ _______ _____ _____    ______ ____
ROOT
ATOM      1  C   UNL     1      -2.292   2.643  -7.364  0.00  0.00    +0.144 C 
ATOM      2  C   UNL     1      -3.497   1.794  -7.675  0.00  0.00    +0.072 A 
ATOM      3  C   UNL     1      -3.674   0.352  -7.865  0.00  0.00    +0.199 A 
ATOM      4  O   UNL     1      -2.739  -0.424  -7.779  0.00  0.00    -0.287 OA
ATOM      5  C   UNL     1      -5.043  -0.114  -8.164  0.00  0.00    +0.065 A 
ATOM      6  C   UNL     1      -5.324  -1.464  -8.363  0.00  0.00    +0.030 A 
ATOM      7  C   UNL     1      -6.616  -1.855  -8.640  0.00  0.00    +0.019 A 
ATOM      8  C   UNL     1      -7.630  -0.909  -8.720  0.00  0.00    +0.019 A 
ATOM      9  C   UNL     1      -7.364   0.428  -8.525  0.00  0.00    +0.048 A 
ATOM     10  C   UNL     1      -6.066   0.846  -8.244  0.00  0.00    +0.140 A 
ATOM     11  O   UNL     1      -5.795   2.150  -8.052  0.00  0.00    -0.450 OA
ATOM     12  C   UNL     1      -4.564   2.624  -7.777  0.00  0.00    +0.199 A 
ATOM     13  C   UNL     1      -4.099   4.014  -7.541  0.00  0.00    +0.283 C 
ATOM     14  O   UNL     1      -4.811   4.998  -7.563  0.00  0.00    -0.267 OA
ATOM     15  N   UNL     1      -2.775   4.028  -7.301  0.00  0.00    -0.284 N 
ATOM     16 BR   UNL     1      -7.010  -3.685  -8.912  0.00  0.00    -0.050 Br
ENDROOT
BRANCH   1  20
ATOM     17  C   UNL     1      -0.617   1.496  -3.603  0.00  0.00    +0.121 A 
ATOM     18  C   UNL     1      -1.763   2.277  -3.644  0.00  0.00    +0.046 A 
ATOM     19  C   UNL     1      -2.300   2.650  -4.861  0.00  0.00    +0.009 A 
ATOM     20  C   UNL     1      -1.701   2.239  -6.037  0.00  0.00    -0.022 A 
ATOM     21  C   UNL     1      -0.562   1.456  -5.999  0.00  0.00    +0.009 A 
ATOM     22  C   UNL     1      -0.018   1.084  -4.785  0.00  0.00    +0.046 A 
BRANCH  17  23
ATOM     23  O   UNL     1      -0.084   1.132  -2.407  0.00  0.00    -0.492 OA
BRANCH  23  24
ATOM     24  C   UNL     1      -0.753   1.593  -1.232  0.00  0.00    +0.229 C 
BRANCH  24  26
ATOM     25  C   UNL     1      -0.729   1.579   1.267  0.00  0.00    +0.007 C 
ATOM     26  C   UNL     1      -0.013   1.086   0.008  0.00  0.00    +0.038 C 
ENDBRANCH  24  26
ENDBRANCH  23  24
ENDBRANCH  17  23
ENDBRANCH   1  20
BRANCH  15  27
ATOM     27  C   UNL     1      -1.960   5.213  -7.024  0.00  0.00    +0.107 C 
BRANCH  27  28
ATOM     28  C   UNL     1      -1.420   5.779  -8.340  0.00  0.00    +0.000 C 
BRANCH  28  29
ATOM     29  C   UNL     1      -0.569   7.017  -8.051  0.00  0.00    -0.078 C 
BRANCH  29  32
ATOM     30  C   UNL     1      -1.142   8.074 -10.153  0.00  0.00    -0.097 C 
ATOM     31  C   UNL     1       0.957   8.600  -9.066  0.00  0.00    -0.097 C 
ATOM     32  N   UNL     1      -0.038   7.539  -9.328  0.00  0.00    +0.376 N 
ATOM     33  H   UNL     1       0.417   6.773  -9.838  0.00  0.00    -0.083 HD
ENDBRANCH  29  32
ENDBRANCH  28  29
ENDBRANCH  27  28
ENDBRANCH  15  27
TORSDOF 8
