REMARK  Name = ZINC61359838
REMARK  6 active torsions:
REMARK  status: ('A' for Active; 'I' for Inactive)
REMARK    1  A    between atoms: C_1  and  C_2
REMARK    2  A    between atoms: C_2  and  C_4
REMARK    3  A    between atoms: C_2  and  N_12
REMARK    4  A    between atoms: C_7  and  O_11
REMARK    5  A    between atoms: C_9  and  O_10
REMARK    6  A    between atoms: N_12  and  C_13
REMARK                            x       y       z     vdW  Elec       q    Type
REMARK                         _______ _______ _______ _____ _____    ______ ____
ROOT
ATOM      1  C   UNL     1      -0.165   1.444  -0.015  0.00  0.00    -0.009 C 
ATOM      2  C   UNL     1       0.024  -0.074  -0.041  0.00  0.00    -0.040 C 
ENDROOT
BRANCH   2   3
ATOM      3  C   UNL     1      -1.323  -0.749  -0.001  0.00  0.00    -0.020 A 
ATOM      4  C   UNL     1      -1.854  -1.161   1.206  0.00  0.00    +0.009 A 
ATOM      5  C   UNL     1      -3.088  -1.780   1.246  0.00  0.00    +0.046 A 
ATOM      6  C   UNL     1      -3.799  -1.989   0.072  0.00  0.00    +0.120 A 
ATOM      7  C   UNL     1      -3.269  -1.576  -1.140  0.00  0.00    +0.091 A 
ATOM      8  C   UNL     1      -2.032  -0.951  -1.177  0.00  0.00    +0.122 A 
BRANCH   8   9
ATOM      9  O   UNL     1      -1.512  -0.540  -2.363  0.00  0.00    -0.506 OA
ATOM     10  H   UNL     1      -0.971  -1.206  -2.808  0.00  0.00    +0.292 HD
ENDBRANCH   8   9
BRANCH   6  11
ATOM     11  O   UNL     1      -5.013  -2.598   0.112  0.00  0.00    -0.507 OA
ATOM     12  H   UNL     1      -5.756  -1.988   0.220  0.00  0.00    +0.292 HD
ENDBRANCH   6  11
ENDBRANCH   2   3
BRANCH   2  13
ATOM     13  N   UNL     1       0.814  -0.489   1.126  0.00  0.00    +0.388 N 
ATOM     14  H   UNL     1       0.396  -0.116   1.965  0.00  0.00    -0.084 HD
ATOM     15  H   UNL     1       0.833  -1.496   1.179  0.00  0.00    -0.084 HD
BRANCH  13  16
ATOM     16  C   UNL     1       2.186   0.020   0.995  0.00  0.00    -0.039 C 
ATOM     17  C   UNL     1       2.743  -0.356  -0.378  0.00  0.00    -0.011 C 
ATOM     18  C   UNL     1       4.098   0.322  -0.598  0.00  0.00    +0.004 C 
ATOM     19  C   UNL     1       3.870   1.830  -0.780  0.00  0.00    +0.042 C 
ATOM     20  C   UNL     1       2.954   2.301   0.302  0.00  0.00    -0.009 A 
ATOM     21  C   UNL     1       2.182   1.540   1.128  0.00  0.00    -0.051 A 
ATOM     22  C   UNL     1       1.411   2.222   2.069  0.00  0.00    +0.010 A 
ATOM     23  C   UNL     1       1.455   3.573   2.130  0.00  0.00    +0.045 A 
ATOM     24  S   UNL     1       2.615   3.962   0.821  0.00  0.00    -0.101 S 
ENDBRANCH  13  16
ENDBRANCH   2  13
TORSDOF 5
