REMARK  Name = ZINC06929980
REMARK  7 active torsions:
REMARK  status: ('A' for Active; 'I' for Inactive)
REMARK    1  A    between atoms: C_1  and  C_2
REMARK    2  A    between atoms: C_2  and  C_4
REMARK    3  A    between atoms: C_2  and  N_50
REMARK    4  A    between atoms: C_6  and  C_9
REMARK    5  A    between atoms: N_11  and  C_12
REMARK    6  A    between atoms: C_12  and  C_14
REMARK    7  A    between atoms: C_12  and  C_15
REMARK                            x       y       z     vdW  Elec       q    Type
REMARK                         _______ _______ _______ _____ _____    ______ ____
ROOT
ATOM      1  C   UNL     1      -1.741   0.865   1.711  0.00  0.00    +0.263 C 
ATOM      2  O   UNL     1      -2.113  -0.154   1.160  0.00  0.00    -0.269 OA
ATOM      3  N   UNL     1      -0.698   1.558   1.213  0.00  0.00    -0.307 N 
ATOM      4  H   UNL     1      -0.402   2.370   1.653  0.00  0.00    +0.149 HD
ENDROOT
BRANCH   1   7
ATOM      5  C   UNL     1      -2.674   2.852   4.621  0.00  0.00    +0.064 A 
ATOM      6  N   UNL     1      -2.040   2.450   3.550  0.00  0.00    -0.241 NA
ATOM      7  C   UNL     1      -2.430   1.339   2.923  0.00  0.00    +0.133 A 
ATOM      8  C   UNL     1      -3.494   0.653   3.451  0.00  0.00    +0.079 A 
ATOM      9  S   UNL     1      -3.894   1.637   4.823  0.00  0.00    -0.081 S 
BRANCH   5  11
ATOM     10  C   UNL     1      -1.724   3.638   6.773  0.00  0.00    -0.007 C 
ATOM     11  C   UNL     1      -2.406   4.067   5.472  0.00  0.00    -0.021 C 
BRANCH  11  14
ATOM     12  H   UNL     1      -4.297   4.121   6.285  0.00  0.00    -0.089 HD
ATOM     13  H   UNL     1      -3.518   5.590   6.298  0.00  0.00    -0.089 HD
ATOM     14  N   UNL     1      -3.684   4.742   5.759  0.00  0.00    +0.384 N 
ATOM     15  H   UNL     1      -4.140   4.991   4.873  0.00  0.00    -0.089 HD
ENDBRANCH  11  14
ENDBRANCH   5  11
ENDBRANCH   1   7
BRANCH   3  16
ATOM     16  C   UNL     1      -0.013   1.086   0.008  0.00  0.00    +0.076 C 
ATOM     17  C   UNL     1      -0.753   1.593  -1.232  0.00  0.00    +0.028 C 
BRANCH  16  18
ATOM     18  C   UNL     1       1.423   1.615  -0.003  0.00  0.00    -0.010 C 
ATOM     19  C   UNL     1       2.163   1.109   1.237  0.00  0.00    +0.012 C 
ATOM     20  C   UNL     1       3.598   1.638   1.226  0.00  0.00    -0.010 C 
ATOM     21  C   UNL     1       4.314   1.145  -0.033  0.00  0.00    +0.007 C 
ATOM     22  C   UNL     1       3.574   1.652  -1.272  0.00  0.00    -0.010 C 
ATOM     23  C   UNL     1       2.139   1.122  -1.262  0.00  0.00    +0.012 C 
ATOM     24  C   UNL     1       3.554   3.181  -1.264  0.00  0.00    +0.007 C 
ATOM     25  C   UNL     1       2.837   3.675  -0.005  0.00  0.00    -0.010 C 
ATOM     26  C   UNL     1       3.577   3.168   1.234  0.00  0.00    +0.007 C 
ATOM     27  C   UNL     1       1.402   3.145   0.006  0.00  0.00    +0.012 C 
ENDBRANCH  16  18
ENDBRANCH   3  16
TORSDOF 5
