REMARK  Name = ZINC21628672
REMARK  7 active torsions:
REMARK  status: ('A' for Active; 'I' for Inactive)
REMARK    1  A    between atoms: C_1  and  C_2
REMARK    2  A    between atoms: C_2  and  C_3
REMARK    3  A    between atoms: C_9  and  C_13
REMARK    4  A    between atoms: C_13  and  S_14
REMARK    5  A    between atoms: S_14  and  C_15
REMARK    6  A    between atoms: C_17  and  C_27
REMARK    7  A    between atoms: C_19  and  C_21
REMARK                            x       y       z     vdW  Elec       q    Type
REMARK                         _______ _______ _______ _____ _____    ______ ____
ROOT
ATOM      1  S   UNL     1      -1.566   2.159   0.021  0.00  0.00    -0.080 S 
ENDROOT
BRANCH   1   2
ATOM      2  C   UNL     1      -0.016   1.322   0.009  0.00  0.00    +0.189 A 
ATOM      3  N   UNL     1       0.002  -0.004   0.002  0.00  0.00    -0.227 NA
ATOM      4  C   UNL     1       1.146  -0.669  -0.013  0.00  0.00    +0.043 A 
ATOM      5  C   UNL     1       2.338   0.033  -0.020  0.00  0.00    +0.051 A 
ATOM      6  C   UNL     1       2.288   1.430  -0.012  0.00  0.00    +0.076 A 
ATOM      7  N   UNL     1       1.101   2.033   0.003  0.00  0.00    -0.222 NA
ATOM      8  C   UNL     1       1.150  -2.176  -0.020  0.00  0.00    +0.066 C 
BRANCH   6   9
ATOM      9  C   UNL     1       3.538   2.228  -0.020  0.00  0.00    +0.000 A 
ATOM     10  C   UNL     1       4.776   1.588  -0.030  0.00  0.00    +0.010 A 
ATOM     11  C   UNL     1       5.936   2.336  -0.042  0.00  0.00    +0.001 A 
ATOM     12  C   UNL     1       5.871   3.718  -0.034  0.00  0.00    +0.000 A 
ATOM     13  C   UNL     1       4.645   4.358  -0.019  0.00  0.00    +0.001 A 
ATOM     14  C   UNL     1       3.479   3.620  -0.012  0.00  0.00    +0.010 A 
ENDBRANCH   6   9
ENDBRANCH   1   2
BRANCH   1  15
ATOM     15  C   UNL     1      -2.690   0.741   0.019  0.00  0.00    +0.133 C 
BRANCH  15  22
ATOM     16  C   UNL     1      -8.394   3.076   1.427  0.00  0.00    +0.102 A 
ATOM     17  N   UNL     1      -8.009   2.623   0.272  0.00  0.00    -0.159 NA
ATOM     18  N   UNL     1      -6.724   2.130   0.072  0.00  0.00    -0.171 N 
ATOM     19  C   UNL     1      -6.202   1.629  -1.087  0.00  0.00    +0.275 A 
ATOM     20  O   UNL     1      -6.888   1.581  -2.096  0.00  0.00    -0.266 OA
ATOM     21  C   UNL     1      -4.883   1.177  -1.117  0.00  0.00    +0.096 A 
ATOM     22  C   UNL     1      -4.116   1.229   0.028  0.00  0.00    +0.060 A 
ATOM     23  N   UNL     1      -4.655   1.723   1.140  0.00  0.00    -0.225 NA
ATOM     24  C   UNL     1      -5.892   2.149   1.158  0.00  0.00    +0.199 A 
ATOM     25  S   UNL     1      -6.928   2.854   2.422  0.00  0.00    -0.033 S 
BRANCH  16  27
ATOM     26  C   UNL     1     -10.672   3.625   0.618  0.00  0.00    +0.011 C 
ATOM     27  C   UNL     1      -9.732   3.642   1.825  0.00  0.00    +0.061 C 
ENDBRANCH  16  27
ENDBRANCH  15  22
ENDBRANCH   1  15
TORSDOF 5
