REMARK  Name = ZINC39324983
REMARK  9 active torsions:
REMARK  status: ('A' for Active; 'I' for Inactive)
REMARK    1  A    between atoms: C_1  and  O_2
REMARK    2  A    between atoms: O_2  and  C_3
REMARK    3  A    between atoms: C_3  and  C_5
REMARK    4  A    between atoms: C_10  and  S_11
REMARK    5  A    between atoms: S_11  and  N_14
REMARK    6  A    between atoms: N_14  and  C_15
REMARK    7  A    between atoms: N_14  and  C_22
REMARK    8  A    between atoms: C_15  and  C_16
REMARK    9  A    between atoms: C_22  and  C_23
REMARK                            x       y       z     vdW  Elec       q    Type
REMARK                         _______ _______ _______ _____ _____    ______ ____
ROOT
ATOM      1  N   UNL     1       3.044  -0.559   2.836  0.00  0.00    -0.173 NA
ENDROOT
BRANCH   1   2
ATOM      2  S   UNL     1       2.059  -1.883   2.978  0.00  0.00    +0.062 S 
ATOM      3  O   UNL     1       0.817  -1.412   3.482  0.00  0.00    -0.153 OA
ATOM      4  O   UNL     1       2.819  -2.885   3.640  0.00  0.00    -0.153 OA
BRANCH   2  10
ATOM      5  C   UNL     1       1.181  -3.741   1.163  0.00  0.00    +0.085 A 
ATOM      6  C   UNL     1       0.932  -4.204  -0.131  0.00  0.00    +0.017 A 
ATOM      7  C   UNL     1       1.254  -3.414  -1.215  0.00  0.00    +0.001 A 
ATOM      8  C   UNL     1       1.822  -2.167  -1.023  0.00  0.00    +0.002 A 
ATOM      9  C   UNL     1       2.071  -1.703   0.256  0.00  0.00    +0.029 A 
ATOM     10  C   UNL     1       1.748  -2.479   1.350  0.00  0.00    +0.119 A 
BRANCH   5  11
ATOM     11  C   UNL     1       0.839  -4.581   2.329  0.00  0.00    +0.341 C 
ATOM     12  O   UNL     1       0.941  -4.130   3.453  0.00  0.00    -0.245 OA
BRANCH  11  14
ATOM     13  C   UNL     1       0.101  -6.600   3.320  0.00  0.00    +0.280 C 
ATOM     14  O   UNL     1       0.413  -5.846   2.147  0.00  0.00    -0.464 OA
ENDBRANCH  11  14
ENDBRANCH   5  11
ENDBRANCH   2  10
ENDBRANCH   1   2
BRANCH   1  15
ATOM     15  C   UNL     1       2.461   0.767   2.619  0.00  0.00    +0.141 C 
BRANCH  15  16
ATOM     16  C   UNL     1       1.815   1.258   3.917  0.00  0.00    +0.134 C 
ATOM     17  C   UNL     1       1.112   2.611   3.672  0.00  0.00    +0.035 C 
ATOM     18  C   UNL     1       1.435   3.390   4.976  0.00  0.00    +0.031 C 
ATOM     19  C   UNL     1       2.852   2.852   5.297  0.00  0.00    +0.160 C 
ATOM     20  O   UNL     1       2.823   1.467   4.913  0.00  0.00    -0.375 OA
ENDBRANCH  15  16
ENDBRANCH   1  15
BRANCH   1  21
ATOM     21  C   UNL     1       4.498  -0.715   2.925  0.00  0.00    +0.126 C 
BRANCH  21  22
ATOM     22  C   UNL     1       5.077  -0.910   1.523  0.00  0.00    +0.114 C 
ATOM     23  C   UNL     1       6.485  -1.451   1.673  0.00  0.00    -0.003 C 
ATOM     24  C   UNL     1       7.495  -0.730   1.115  0.00  0.00    -0.003 A 
ATOM     25  C   UNL     1       8.883  -1.182   1.216  0.00  0.00    +0.059 A 
ATOM     26  C   UNL     1       9.870  -0.439   0.648  0.00  0.00    +0.163 A 
ATOM     27  C   UNL     1       9.578   0.757  -0.039  0.00  0.00    +0.164 A 
ATOM     28  C   UNL     1       8.286   1.228  -0.159  0.00  0.00    +0.073 A 
ATOM     29  C   UNL     1       7.210   0.526   0.397  0.00  0.00    +0.044 A 
ATOM     30  N   UNL     1       5.968   0.999   0.268  0.00  0.00    -0.284 N 
ATOM     31  C   UNL     1       4.908   0.388   0.766  0.00  0.00    +0.225 C 
ATOM     32  O   UNL     1       3.800   0.868   0.617  0.00  0.00    -0.275 OA
ATOM     33  O   UNL     1      10.579   1.481  -0.609  0.00  0.00    -0.485 OA
ATOM     34  C   UNL     1      11.910   1.208  -0.162  0.00  0.00    +0.270 C 
ATOM     35  C   UNL     1      12.111  -0.313  -0.144  0.00  0.00    +0.270 C 
ATOM     36  O   UNL     1      11.156  -0.879   0.759  0.00  0.00    -0.485 OA
ATOM     37  H   UNL     1       5.838   1.831  -0.214  0.00  0.00    +0.155 HD
ENDBRANCH  21  22
ENDBRANCH   1  21
TORSDOF 8
