REMARK  Name = ZINC04964346
REMARK  7 active torsions:
REMARK  status: ('A' for Active; 'I' for Inactive)
REMARK    1  A    between atoms: C_1  and  C_2
REMARK    2  A    between atoms: C_4  and  C_30
REMARK    3  A    between atoms: C_7  and  C_28
REMARK    4  A    between atoms: N_15  and  C_18
REMARK    5  A    between atoms: C_18  and  N_20
REMARK    6  A    between atoms: N_20  and  C_21
REMARK    7  A    between atoms: C_21  and  C_22
REMARK                            x       y       z     vdW  Elec       q    Type
REMARK                         _______ _______ _______ _____ _____    ______ ____
ROOT
ATOM      1  C   UNL     1       2.589   9.177  -3.298  0.00  0.00    +0.044 C 
ATOM      2  C   UNL     1       3.168   7.909  -2.725  0.00  0.00    -0.048 A 
ATOM      3  C   UNL     1       4.498   7.888  -2.312  0.00  0.00    +0.007 A 
ATOM      4  C   UNL     1       5.050   6.758  -1.791  0.00  0.00    -0.041 A 
ATOM      5  C   UNL     1       4.269   5.597  -1.666  0.00  0.00    +0.003 A 
ATOM      6  C   UNL     1       4.807   4.412  -1.132  0.00  0.00    +0.032 A 
ATOM      7  C   UNL     1       3.980   3.302  -1.038  0.00  0.00    +0.090 A 
ATOM      8  C   UNL     1       2.638   3.397  -1.477  0.00  0.00    +0.117 A 
ATOM      9  C   UNL     1       2.915   5.615  -2.086  0.00  0.00    +0.048 A 
ATOM     10  C   UNL     1       2.382   6.802  -2.619  0.00  0.00    +0.029 A 
ATOM     11  N   UNL     1       1.814   2.290  -1.383  0.00  0.00    -0.314 N 
ATOM     12  C   UNL     1       1.399   2.061  -0.000  0.00  0.00    +0.108 C 
ATOM     13  C   UNL     1      -0.019   1.534   0.011  0.00  0.00    +0.038 C 
ATOM     14  C   UNL     1       0.002  -0.004   0.002  0.00  0.00    +0.108 C 
ATOM     15  N   UNL     1       1.054  -0.521  -0.896  0.00  0.00    -0.311 N 
ATOM     16  C   UNL     1       1.320   0.057  -2.197  0.00  0.00    +0.125 C 
ATOM     17  C   UNL     1       2.374   1.183  -2.062  0.00  0.00    +0.125 C 
ATOM     18  C   UNL     1       6.491   6.752  -1.350  0.00  0.00    +0.044 C 
ATOM     19  N   UNL     1       2.084   4.517  -2.002  0.00  0.00    -0.342 N 
ATOM     20  H   UNL     1       1.108   4.547  -2.318  0.00  0.00    +0.167 HD
ENDROOT
BRANCH  15  21
ATOM     21  C   UNL     1       1.795  -1.571  -0.489  0.00  0.00    +0.133 C 
ATOM     22  S   UNL     1       1.508  -2.279   1.043  0.00  0.00    -0.019 S 
BRANCH  21  23
ATOM     23  N   UNL     1       2.761  -2.063  -1.288  0.00  0.00    -0.324 N 
ATOM     24  H   UNL     1       2.924  -1.662  -2.156  0.00  0.00    +0.148 HD
BRANCH  23  25
ATOM     25  C   UNL     1       3.567  -3.204  -0.846  0.00  0.00    +0.134 C 
BRANCH  25  26
ATOM     26  C   UNL     1       4.584  -3.562  -1.931  0.00  0.00    +0.135 C 
ATOM     27  C   UNL     1       5.437  -4.762  -1.476  0.00  0.00    +0.035 C 
ATOM     28  C   UNL     1       5.198  -5.833  -2.567  0.00  0.00    +0.031 C 
ATOM     29  C   UNL     1       4.704  -4.977  -3.761  0.00  0.00    +0.160 C 
ATOM     30  O   UNL     1       3.900  -3.956  -3.132  0.00  0.00    -0.375 OA
ENDBRANCH  25  26
ENDBRANCH  23  25
ENDBRANCH  21  23
ENDBRANCH  15  21
BRANCH   7  31
ATOM     31  C   UNL     1       4.479   2.072  -0.501  0.00  0.00    +0.103 C 
ATOM     32  N   UNL     1       4.876   1.096  -0.076  0.00  0.00    -0.191 NA
ENDBRANCH   7  31
TORSDOF 5
