REMARK  Name = ZINC20911875
REMARK  13 active torsions:
REMARK  status: ('A' for Active; 'I' for Inactive)
REMARK    1  A    between atoms: C_1  and  C_2
REMARK    2  A    between atoms: C_3  and  C_11
REMARK    3  A    between atoms: C_4  and  C_10
REMARK    4  A    between atoms: N_5  and  C_7
REMARK    5  A    between atoms: C_7  and  C_8
REMARK    6  A    between atoms: C_7  and  C_9
REMARK    7  A    between atoms: N_12  and  N_13
REMARK    8  A    between atoms: C_17  and  S_20
REMARK    9  A    between atoms: N_18  and  N_19
REMARK   10  A    between atoms: S_20  and  C_21
REMARK   11  A    between atoms: C_21  and  C_22
REMARK   12  A    between atoms: C_22  and  C_23
REMARK   13  A    between atoms: N_25  and  C_26
REMARK                            x       y       z     vdW  Elec       q    Type
REMARK                         _______ _______ _______ _____ _____    ______ ____
ROOT
ATOM      1  N   UNL     1       1.428   5.006  -0.049  0.00  0.00    -0.204 N 
ATOM      2  C   UNL     1       0.629   3.872  -0.037  0.00  0.00    +0.254 A 
ATOM      3  N   UNL     1      -0.682   3.854  -0.015  0.00  0.00    -0.109 NA
ATOM      4  N   UNL     1      -1.096   2.515  -0.017  0.00  0.00    -0.119 NA
ATOM      5  C   UNL     1      -0.025   1.759  -0.031  0.00  0.00    +0.210 A 
ATOM      6  N   UNL     1       1.069   2.578  -0.047  0.00  0.00    -0.211 N 
ATOM      7  H   UNL     1       2.523   4.906  -0.067  0.00  0.00    +0.177 HD
ENDROOT
BRANCH   6   8
ATOM      8  N   UNL     1       2.374   2.174  -0.070  0.00  0.00    -0.294 N 
ATOM      9  H   UNL     1       2.618   1.101  -0.076  0.00  0.00    +0.163 HD
ATOM     10  H   UNL     1       3.181   2.921  -0.082  0.00  0.00    +0.163 HD
ENDBRANCH   6   8
BRANCH   1  12
ATOM     11  C   UNL     1       1.588   7.338  -0.046  0.00  0.00    +0.141 C 
ATOM     12  N   UNL     1       0.841   6.277  -0.036  0.00  0.00    -0.187 NA
BRANCH  11  15
ATOM     13  C   UNL     1      -1.524   7.942   0.008  0.00  0.00    +0.068 C 
ATOM     14  C   UNL     1      -0.413   8.960  -0.009  0.00  0.00    +0.069 A 
ATOM     15  C   UNL     1       0.969   8.678  -0.033  0.00  0.00    +0.038 A 
ATOM     16  C   UNL     1       1.634   9.885  -0.036  0.00  0.00    +0.045 A 
ATOM     17  N   UNL     1       0.701  10.859  -0.025  0.00  0.00    -0.265 N 
ATOM     18  N   UNL     1      -0.563  10.258  -0.004  0.00  0.00    -0.175 NA
ATOM     19  C   UNL     1       3.128  10.081  -0.054  0.00  0.00    +0.066 C 
BRANCH  17  20
ATOM     20  C   UNL     1       0.966  12.300  -0.026  0.00  0.00    +0.101 C 
ATOM     21  C   UNL     1       0.326  12.934  -1.263  0.00  0.00    +0.032 C 
ATOM     22  C   UNL     1       0.370  12.929   1.235  0.00  0.00    +0.032 C 
ENDBRANCH  17  20
ENDBRANCH  11  15
ENDBRANCH   1  12
BRANCH   5  23
ATOM     23  S   UNL     1       0.000  -0.003  -0.036  0.00  0.00    -0.084 S 
BRANCH  23  24
ATOM     24  C   UNL     1      -1.753  -0.466  -0.007  0.00  0.00    +0.086 C 
BRANCH  24  25
ATOM     25  C   UNL     1      -1.878  -1.991  -0.009  0.00  0.00    +0.107 C 
BRANCH  25  26
ATOM     26  C   UNL     1      -3.335  -2.376   0.015  0.00  0.00    +0.218 C 
ATOM     27  O   UNL     1      -4.189  -1.515   0.031  0.00  0.00    -0.275 OA
ATOM     28  N   UNL     1      -3.688  -3.677   0.018  0.00  0.00    -0.284 N 
ATOM     29  H   UNL     1      -2.917  -4.456  -0.072  0.00  0.00    +0.155 HD
BRANCH  28  30
ATOM     30  C   UNL     1      -5.036  -4.035   0.134  0.00  0.00    +0.053 A 
ATOM     31  C   UNL     1      -6.019  -3.243  -0.443  0.00  0.00    +0.044 A 
ATOM     32  C   UNL     1      -7.349  -3.603  -0.331  0.00  0.00    +0.043 A 
ATOM     33  C   UNL     1      -7.702  -4.746   0.366  0.00  0.00    +0.021 A 
ATOM     34  C   UNL     1      -6.725  -5.534   0.946  0.00  0.00    +0.023 A 
ATOM     35  C   UNL     1      -5.393  -5.182   0.833  0.00  0.00    +0.062 A 
ATOM     36 CL   UNL     1      -4.168  -6.172   1.562  0.00  0.00    -0.082 Cl
ATOM     37 CL   UNL     1      -8.579  -2.618  -1.059  0.00  0.00    -0.083 Cl
ENDBRANCH  28  30
ENDBRANCH  25  26
ENDBRANCH  24  25
ENDBRANCH  23  24
ENDBRANCH   5  23
TORSDOF 9
