REMARK  Name = ZINC36497540
REMARK  7 active torsions:
REMARK  status: ('A' for Active; 'I' for Inactive)
REMARK    1  A    between atoms: C_3  and  C_6
REMARK    2  A    between atoms: C_6  and  N_7
REMARK    3  A    between atoms: N_7  and  C_8
REMARK    4  A    between atoms: C_8  and  C_10
REMARK    5  A    between atoms: C_8  and  C_19
REMARK    6  A    between atoms: N_21  and  C_22
REMARK    7  A    between atoms: C_28  and  C_30
REMARK                            x       y       z     vdW  Elec       q    Type
REMARK                         _______ _______ _______ _____ _____    ______ ____
ROOT
ATOM      1  C   UNL     1       3.325   0.107   3.081  0.00  0.00    +0.193 C 
ENDROOT
BRANCH   1   2
ATOM      2  C   UNL     1       3.920  -1.227   2.710  0.00  0.00    -0.014 A 
ATOM      3  C   UNL     1       4.092  -1.560   1.379  0.00  0.00    +0.010 A 
ATOM      4  C   UNL     1       4.638  -2.781   1.034  0.00  0.00    +0.050 A 
ATOM      5  C   UNL     1       5.015  -3.676   2.022  0.00  0.00    +0.166 A 
ATOM      6  C   UNL     1       4.843  -3.341   3.363  0.00  0.00    +0.167 A 
ATOM      7  C   UNL     1       4.300  -2.113   3.701  0.00  0.00    +0.055 A 
ATOM      8  O   UNL     1       5.287  -4.378   4.132  0.00  0.00    -0.453 OA
ATOM      9  C   UNL     1       5.353  -5.512   3.248  0.00  0.00    +0.466 C 
ATOM     10  O   UNL     1       5.567  -4.923   1.951  0.00  0.00    -0.453 OA
ENDBRANCH   1   2
BRANCH   1  11
ATOM     11  C   UNL     1       2.256  -0.093   4.125  0.00  0.00    +0.238 C 
ATOM     12  O   UNL     1       1.092  -0.172   3.793  0.00  0.00    -0.273 OA
ATOM     13  N   UNL     1       2.594  -0.185   5.426  0.00  0.00    -0.311 N 
ATOM     14  H   UNL     1       3.524  -0.122   5.692  0.00  0.00    +0.149 HD
BRANCH  13  15
ATOM     15  C   UNL     1       1.554  -0.379   6.441  0.00  0.00    +0.073 C 
ATOM     16  C   UNL     1       0.970   0.978   6.839  0.00  0.00    +0.022 C 
ATOM     17  C   UNL     1      -0.115   0.774   7.898  0.00  0.00    +0.002 C 
ATOM     18  C   UNL     1       0.494   0.100   9.129  0.00  0.00    +0.000 C 
ATOM     19  C   UNL     1       1.079  -1.256   8.731  0.00  0.00    +0.002 C 
ATOM     20  C   UNL     1       2.164  -1.053   7.672  0.00  0.00    +0.022 C 
ENDBRANCH  13  15
ENDBRANCH   1  11
BRANCH   1  21
ATOM     21  N   UNL     1       2.736   0.727   1.892  0.00  0.00    -0.275 N 
ATOM     22  C   UNL     1       3.189   1.920   1.459  0.00  0.00    +0.248 C 
ATOM     23  O   UNL     1       2.768   2.390   0.420  0.00  0.00    -0.270 OA
BRANCH  22  24
ATOM     24  C   UNL     1       4.198   2.657   2.248  0.00  0.00    +0.037 A 
ATOM     25  C   UNL     1       5.381   2.026   2.638  0.00  0.00    +0.014 A 
ATOM     26  C   UNL     1       6.319   2.719   3.374  0.00  0.00    +0.021 A 
ATOM     27  C   UNL     1       6.090   4.038   3.725  0.00  0.00    +0.041 A 
ATOM     28  C   UNL     1       4.919   4.670   3.341  0.00  0.00    +0.021 A 
ATOM     29  C   UNL     1       3.975   3.989   2.601  0.00  0.00    +0.014 A 
ATOM     30 CL   UNL     1       7.275   4.904   4.652  0.00  0.00    -0.084 Cl
ENDBRANCH  22  24
BRANCH  21  31
ATOM     31  C   UNL     1       1.654   0.049   1.172  0.00  0.00    +0.183 C 
BRANCH  31  34
ATOM     32  C   UNL     1      -1.107   2.401   0.516  0.00  0.00    +0.041 A 
ATOM     33  C   UNL     1       0.094   1.761   0.130  0.00  0.00    +0.046 A 
ATOM     34  C   UNL     1       0.439   0.940   1.138  0.00  0.00    +0.122 A 
ATOM     35  O   UNL     1      -0.483   1.048   2.108  0.00  0.00    -0.466 OA
ATOM     36  C   UNL     1      -1.423   1.932   1.736  0.00  0.00    +0.195 A 
ENDBRANCH  31  34
ENDBRANCH  21  31
ENDBRANCH   1  21
TORSDOF 7
