REMARK  Name = ZINC14648574
REMARK  14 active torsions:
REMARK  status: ('A' for Active; 'I' for Inactive)
REMARK    1  A    between atoms: C_1  and  C_2
REMARK    2  A    between atoms: C_2  and  C_3
REMARK    3  A    between atoms: C_3  and  C_4
REMARK    4  A    between atoms: C_4  and  C_5
REMARK    5  A    between atoms: C_5  and  C_6
REMARK    6  A    between atoms: C_6  and  O_7
REMARK    7  A    between atoms: O_7  and  C_8
REMARK    8  A    between atoms: C_13  and  C_14
REMARK    9  A    between atoms: N_16  and  C_17
REMARK   10  A    between atoms: C_17  and  N_19
REMARK   11  A    between atoms: C_25  and  C_27
REMARK   12  A    between atoms: C_27  and  C_28
REMARK   13  A    between atoms: C_28  and  O_30
REMARK   14  A    between atoms: O_30  and  C_31
REMARK                            x       y       z     vdW  Elec       q    Type
REMARK                         _______ _______ _______ _____ _____    ______ ____
ROOT
ATOM      1  C   UNL     1      -1.665  -3.066   2.499  0.00  0.00    +0.253 C 
ATOM      2  O   UNL     1      -1.151  -3.530   1.499  0.00  0.00    -0.270 OA
ATOM      3  N   UNL     1      -2.059  -1.778   2.518  0.00  0.00    -0.264 N 
ATOM      4  H   UNL     1      -2.469  -1.408   3.316  0.00  0.00    +0.157 HD
ENDROOT
BRANCH   1  10
ATOM      5  C   UNL     1      -1.453  -5.256   3.672  0.00  0.00    +0.133 A 
ATOM      6  C   UNL     1      -1.634  -6.043   4.800  0.00  0.00    +0.047 A 
ATOM      7  C   UNL     1      -2.218  -5.509   5.931  0.00  0.00    +0.019 A 
ATOM      8  C   UNL     1      -2.623  -4.183   5.951  0.00  0.00    +0.019 A 
ATOM      9  C   UNL     1      -2.446  -3.385   4.841  0.00  0.00    +0.032 A 
ATOM     10  C   UNL     1      -1.857  -3.914   3.690  0.00  0.00    +0.080 A 
ATOM     11 BR   UNL     1      -3.421  -3.466   7.509  0.00  0.00    -0.050 Br
BRANCH   5  12
ATOM     12  O   UNL     1      -0.885  -5.782   2.558  0.00  0.00    -0.491 OA
BRANCH  12  13
ATOM     13  C   UNL     1      -0.499  -7.157   2.614  0.00  0.00    +0.229 C 
BRANCH  13  14
ATOM     14  C   UNL     1       0.119  -7.568   1.276  0.00  0.00    +0.041 C 
BRANCH  14  15
ATOM     15  C   UNL     1       0.532  -9.040   1.336  0.00  0.00    +0.003 C 
BRANCH  15  16
ATOM     16  C   UNL     1       1.149  -9.451  -0.002  0.00  0.00    -0.000 C 
BRANCH  16  18
ATOM     17  C   UNL     1       2.180 -11.334  -1.280  0.00  0.00    +0.004 C 
ATOM     18  C   UNL     1       1.562 -10.923   0.058  0.00  0.00    -0.003 C 
ENDBRANCH  16  18
ENDBRANCH  15  16
ENDBRANCH  14  15
ENDBRANCH  13  14
ENDBRANCH  12  13
ENDBRANCH   5  12
ENDBRANCH   1  10
BRANCH   3  19
ATOM     19  C   UNL     1      -1.884  -1.003   1.429  0.00  0.00    +0.140 C 
ATOM     20  S   UNL     1      -1.041  -1.614   0.070  0.00  0.00    -0.018 S 
BRANCH  19  21
ATOM     21  N   UNL     1      -2.372   0.253   1.410  0.00  0.00    -0.299 N 
ATOM     22  C   UNL     1      -2.239   1.109   0.219  0.00  0.00    +0.126 C 
ATOM     23  C   UNL     1      -1.413   2.338   0.605  0.00  0.00    +0.123 C 
ATOM     24  N   UNL     1      -1.888   2.907   1.858  0.00  0.00    -0.312 N 
ATOM     25  C   UNL     1      -2.589   2.240   2.775  0.00  0.00    +0.234 C 
ATOM     26  O   UNL     1      -2.861   2.800   3.816  0.00  0.00    -0.274 OA
ATOM     27  C   UNL     1      -3.060   0.825   2.578  0.00  0.00    +0.171 C 
ATOM     28  H   UNL     1      -1.679   3.837   2.039  0.00  0.00    +0.149 HD
BRANCH  27  29
ATOM     29  C   UNL     1      -4.571   0.815   2.339  0.00  0.00    +0.152 C 
BRANCH  29  30
ATOM     30  C   UNL     1      -5.065  -0.608   2.302  0.00  0.00    +0.309 C 
ATOM     31  O   UNL     1      -4.277  -1.522   2.361  0.00  0.00    -0.251 OA
BRANCH  30  32
ATOM     32  O   UNL     1      -6.380  -0.860   2.210  0.00  0.00    -0.468 OA
ATOM     33  C   UNL     1      -6.784  -2.254   2.186  0.00  0.00    +0.280 C 
ENDBRANCH  30  32
ENDBRANCH  29  30
ENDBRANCH  27  29
ENDBRANCH  19  21
ENDBRANCH   3  19
TORSDOF 12
