REMARK  Name = ZINC11830880
REMARK  6 active torsions:
REMARK  status: ('A' for Active; 'I' for Inactive)
REMARK    1  A    between atoms: C_3  and  C_29
REMARK    2  A    between atoms: C_5  and  S_7
REMARK    3  A    between atoms: S_7  and  N_10
REMARK    4  A    between atoms: C_15  and  C_16
REMARK    5  A    between atoms: C_15  and  N_50
REMARK    6  A    between atoms: N_20  and  C_21
REMARK                            x       y       z     vdW  Elec       q    Type
REMARK                         _______ _______ _______ _____ _____    ______ ____
ROOT
ATOM      1  N   UNL     1       1.119   4.503   5.340  0.00  0.00    -0.180 NA
ATOM      2  C   UNL     1       2.371   4.924   4.692  0.00  0.00    +0.091 C 
ATOM      3  C   UNL     1       2.027   5.951   3.601  0.00  0.00    -0.061 C 
ATOM      4  C   UNL     1      -0.048   6.547   4.704  0.00  0.00    -0.061 C 
ATOM      5  C   UNL     1       0.208   5.545   5.835  0.00  0.00    +0.091 C 
ATOM      6  N   UNL     1       1.253   7.051   4.214  0.00  0.00    +0.386 N 
ATOM      7  H   UNL     1       1.784   7.430   5.007  0.00  0.00    -0.081 HD
ENDROOT
BRANCH   1   8
ATOM      8  S   UNL     1       0.750   2.898   5.512  0.00  0.00    +0.061 S 
ATOM      9  O   UNL     1      -0.149   2.804   6.608  0.00  0.00    -0.153 OA
ATOM     10  O   UNL     1       1.982   2.191   5.474  0.00  0.00    -0.153 OA
BRANCH   8  15
ATOM     11  C   UNL     1      -2.238   2.141   2.934  0.00  0.00    +0.002 A 
ATOM     12  C   UNL     1      -1.567   1.660   1.825  0.00  0.00    +0.012 A 
ATOM     13  C   UNL     1      -0.189   1.550   1.845  0.00  0.00    +0.057 A 
ATOM     14  C   UNL     1       0.519   1.931   2.970  0.00  0.00    +0.041 A 
ATOM     15  C   UNL     1      -0.152   2.414   4.077  0.00  0.00    +0.106 A 
ATOM     16  C   UNL     1      -1.530   2.520   4.059  0.00  0.00    +0.028 A 
BRANCH  13  17
ATOM     17  C   UNL     1       0.542   1.023   0.637  0.00  0.00    +0.417 C 
ATOM     18  F   UNL     1       0.670  -0.367   0.740  0.00  0.00    -0.166 F 
ATOM     19  F   UNL     1       1.813   1.604   0.571  0.00  0.00    -0.166 F 
ATOM     20  F   UNL     1      -0.177   1.341  -0.520  0.00  0.00    -0.166 F 
ENDBRANCH  13  17
ENDBRANCH   8  15
ENDBRANCH   1   8
BRANCH   6  21
ATOM     21  C   UNL     1       1.036   8.127   3.225  0.00  0.00    +0.001 C 
BRANCH  21  22
ATOM     22  C   UNL     1       2.342   8.439   2.540  0.00  0.00    +0.140 A 
ATOM     23  N   UNL     1       2.789   7.895   1.439  0.00  0.00    -0.115 NA
ATOM     24  N   UNL     1       3.934   8.384   1.125  0.00  0.00    -0.023 NA
ATOM     25  N   UNL     1       4.296   9.265   1.994  0.00  0.00    -0.039 NA
ATOM     26  N   UNL     1       3.265   9.337   2.947  0.00  0.00    -0.199 N 
BRANCH  26  27
ATOM     27  C   UNL     1       3.209  10.162   4.081  0.00  0.00    +0.072 A 
ATOM     28  C   UNL     1       2.755   9.653   5.290  0.00  0.00    +0.031 A 
ATOM     29  C   UNL     1       2.700  10.466   6.405  0.00  0.00    +0.043 A 
ATOM     30  C   UNL     1       3.097  11.789   6.319  0.00  0.00    +0.159 A 
ATOM     31  C   UNL     1       3.551  12.301   5.112  0.00  0.00    +0.160 A 
ATOM     32  C   UNL     1       3.613  11.487   3.995  0.00  0.00    +0.069 A 
ATOM     33  F   UNL     1       3.938  13.593   5.030  0.00  0.00    -0.202 F 
ATOM     34  F   UNL     1       3.042  12.583   7.411  0.00  0.00    -0.202 F 
ENDBRANCH  26  27
ENDBRANCH  21  22
ENDBRANCH   6  21
TORSDOF 6
