REMARK  Name = ZINC08618116
REMARK  8 active torsions:
REMARK  status: ('A' for Active; 'I' for Inactive)
REMARK    1  A    between atoms: C_1  and  O_2
REMARK    2  A    between atoms: O_2  and  C_3
REMARK    3  A    between atoms: C_7  and  C_8
REMARK    4  A    between atoms: C_8  and  O_10
REMARK    5  A    between atoms: O_10  and  N_11
REMARK    6  A    between atoms: C_12  and  C_13
REMARK    7  A    between atoms: C_15  and  C_23
REMARK    8  A    between atoms: C_17  and  C_19
REMARK                            x       y       z     vdW  Elec       q    Type
REMARK                         _______ _______ _______ _____ _____    ______ ____
ROOT
ATOM      1  N   UNL     1      -3.253  -0.955   3.942  0.00  0.00    -0.059 NA
ATOM      2  C   UNL     1      -3.821  -1.310   5.057  0.00  0.00    +0.163 C 
ATOM      3  N   UNL     1      -3.078  -1.931   6.045  0.00  0.00    -0.340 N 
ATOM      4  H   UNL     1      -2.134  -2.102   5.907  0.00  0.00    +0.144 HD
ATOM      5  H   UNL     1      -3.502  -2.196   6.876  0.00  0.00    +0.144 HD
ENDROOT
BRANCH   2   6
ATOM      6  C   UNL     1      -5.263  -1.050   5.268  0.00  0.00    +0.019 A 
ATOM      7  C   UNL     1      -6.016  -0.430   4.272  0.00  0.00    +0.023 A 
ATOM      8  C   UNL     1      -7.360  -0.191   4.474  0.00  0.00    +0.056 A 
ATOM      9  C   UNL     1      -7.961  -0.565   5.663  0.00  0.00    +0.024 A 
ATOM     10  C   UNL     1      -7.219  -1.181   6.656  0.00  0.00    +0.056 A 
ATOM     11  C   UNL     1      -5.876  -1.431   6.463  0.00  0.00    +0.023 A 
BRANCH  10  12
ATOM     12  C   UNL     1      -7.881  -1.585   7.948  0.00  0.00    +0.417 C 
ATOM     13  F   UNL     1      -8.374  -2.889   7.832  0.00  0.00    -0.166 F 
ATOM     14  F   UNL     1      -6.946  -1.531   8.987  0.00  0.00    -0.166 F 
ATOM     15  F   UNL     1      -8.937  -0.710   8.225  0.00  0.00    -0.166 F 
ENDBRANCH  10  12
BRANCH   8  16
ATOM     16  C   UNL     1      -8.175   0.480   3.399  0.00  0.00    +0.417 C 
ATOM     17  F   UNL     1      -7.356   0.761   2.300  0.00  0.00    -0.166 F 
ATOM     18  F   UNL     1      -9.213  -0.371   3.001  0.00  0.00    -0.166 F 
ATOM     19  F   UNL     1      -8.714   1.671   3.896  0.00  0.00    -0.166 F 
ENDBRANCH   8  16
ENDBRANCH   2   6
BRANCH   1  20
ATOM     20  O   UNL     1      -1.873  -1.203   3.740  0.00  0.00    -0.309 OA
BRANCH  20  21
ATOM     21  C   UNL     1      -1.410  -0.786   2.544  0.00  0.00    +0.376 C 
ATOM     22  O   UNL     1      -2.164  -0.250   1.752  0.00  0.00    -0.242 OA
BRANCH  21  27
ATOM     23  C   UNL     1       0.625  -0.618   1.040  0.00  0.00    +0.155 A 
ATOM     24  C   UNL     1       1.969  -0.929   1.013  0.00  0.00    +0.067 A 
ATOM     25  C   UNL     1       2.525  -1.542   2.086  0.00  0.00    +0.065 A 
ATOM     26  S   UNL     1       1.254  -1.720   3.169  0.00  0.00    -0.085 S 
ATOM     27  C   UNL     1      -0.048  -0.971   2.208  0.00  0.00    +0.141 A 
ATOM     28 BR   UNL     1       3.021  -0.506  -0.500  0.00  0.00    -0.046 Br
BRANCH  23  30
ATOM     29  C   UNL     1      -0.017   1.425   0.010  0.00  0.00    +0.277 C 
ATOM     30  O   UNL     1       0.002  -0.004   0.002  0.00  0.00    -0.493 OA
ENDBRANCH  23  30
ENDBRANCH  21  27
ENDBRANCH  20  21
ENDBRANCH   1  20
TORSDOF 7
