REMARK  Name = ZINC66597378
REMARK  7 active torsions:
REMARK  status: ('A' for Active; 'I' for Inactive)
REMARK    1  A    between atoms: C_1  and  C_2
REMARK    2  A    between atoms: C_7  and  N_10
REMARK    3  A    between atoms: C_11  and  C_13
REMARK    4  A    between atoms: C_13  and  N_14
REMARK    5  A    between atoms: N_22  and  C_23
REMARK    6  A    between atoms: C_23  and  C_24
REMARK    7  A    between atoms: C_24  and  C_25
REMARK                            x       y       z     vdW  Elec       q    Type
REMARK                         _______ _______ _______ _____ _____    ______ ____
ROOT
ATOM      1  N   UNL     1       3.284  -5.554  -0.983  0.00  0.00    -0.291 NA
ATOM      2  C   UNL     1       2.211  -6.535  -0.776  0.00  0.00    +0.104 C 
ATOM      3  C   UNL     1       2.821  -7.873  -0.347  0.00  0.00    +0.124 C 
ATOM      4  N   UNL     1       3.836  -8.262  -1.339  0.00  0.00    -0.283 N 
ATOM      5  C   UNL     1       4.868  -7.278  -1.701  0.00  0.00    +0.124 C 
ATOM      6  C   UNL     1       4.176  -5.963  -2.076  0.00  0.00    +0.104 C 
ATOM      7  C   UNL     1       3.821  -9.487  -1.900  0.00  0.00    +0.302 C 
ATOM      8  O   UNL     1       3.018 -10.319  -1.523  0.00  0.00    -0.253 OA
ATOM      9  N   UNL     1       4.696  -9.791  -2.879  0.00  0.00    -0.299 N 
ATOM     10  H   UNL     1       5.385  -9.155  -3.128  0.00  0.00    +0.150 HD
ENDROOT
BRANCH   1  11
ATOM     11  C   UNL     1       2.734  -4.214  -1.227  0.00  0.00    +0.180 C 
BRANCH  11  13
ATOM     12  N   UNL     1       1.442  -2.514   0.022  0.00  0.00    -0.311 N 
ATOM     13  C   UNL     1       2.028  -3.727   0.013  0.00  0.00    +0.227 C 
ATOM     14  O   UNL     1       1.988  -4.428   1.002  0.00  0.00    -0.274 OA
ATOM     15  H   UNL     1       1.474  -1.954  -0.769  0.00  0.00    +0.149 HD
BRANCH  12  21
ATOM     16  C   UNL     1      -0.030   1.524   0.002  0.00  0.00    +0.007 C 
ATOM     17  C   UNL     1      -0.007  -0.006  -0.005  0.00  0.00    -0.012 C 
ATOM     18  C   UNL     1      -1.442  -0.537   0.007  0.00  0.00    +0.003 C 
ATOM     19  C   UNL     1      -1.420  -2.067  -0.000  0.00  0.00    +0.002 C 
ATOM     20  C   UNL     1      -0.679  -2.572   1.239  0.00  0.00    +0.022 C 
ATOM     21  C   UNL     1       0.756  -2.041   1.227  0.00  0.00    +0.073 C 
ATOM     22  C   UNL     1       0.734  -0.511   1.234  0.00  0.00    +0.025 C 
ENDBRANCH  12  21
ENDBRANCH  11  13
ENDBRANCH   1  11
BRANCH   9  23
ATOM     23  C   UNL     1       4.609 -11.082  -3.565  0.00  0.00    +0.108 C 
BRANCH  23  24
ATOM     24  C   UNL     1       5.710 -11.173  -4.623  0.00  0.00    +0.050 C 
BRANCH  24  25
ATOM     25  C   UNL     1       5.618 -12.522  -5.340  0.00  0.00    +0.120 C 
ATOM     26  C   UNL     1       6.797 -12.672  -6.325  0.00  0.00    +0.034 C 
ATOM     27  C   UNL     1       6.123 -13.363  -7.543  0.00  0.00    +0.031 C 
ATOM     28  C   UNL     1       4.712 -12.725  -7.499  0.00  0.00    +0.160 C 
ATOM     29  O   UNL     1       4.405 -12.586  -6.101  0.00  0.00    -0.376 OA
ENDBRANCH  24  25
ENDBRANCH  23  24
ENDBRANCH   9  23
TORSDOF 6
