REMARK  Name = ZINC05577372
REMARK  6 active torsions:
REMARK  status: ('A' for Active; 'I' for Inactive)
REMARK    1  A    between atoms: C_1  and  C_2
REMARK    2  A    between atoms: C_3  and  C_26
REMARK    3  A    between atoms: C_6  and  C_7
REMARK    4  A    between atoms: N_9  and  N_10
REMARK    5  A    between atoms: C_11  and  C_13
REMARK    6  A    between atoms: C_21  and  C_23
REMARK                            x       y       z     vdW  Elec       q    Type
REMARK                         _______ _______ _______ _____ _____    ______ ____
ROOT
ATOM      1  N   UNL     1      -2.307   0.728  -3.716  0.00  0.00    -0.234 N 
ATOM      2  C   UNL     1      -2.881   1.010  -2.529  0.00  0.00    +0.236 C 
ATOM      3  O   UNL     1      -4.007   1.458  -2.492  0.00  0.00    -0.274 OA
ATOM      4  H   UNL     1      -1.407   0.369  -3.746  0.00  0.00    +0.173 HD
ENDROOT
BRANCH   2   5
ATOM      5  C   UNL     1      -2.124   0.767  -1.249  0.00  0.00    +0.121 C 
ATOM      6  C   UNL     1      -0.830   1.633  -1.200  0.00  0.00    +0.131 C 
ATOM      7  C   UNL     1      -0.013   1.086   0.008  0.00  0.00    +0.035 C 
ATOM      8  C   UNL     1      -0.802   1.618   1.231  0.00  0.00    +0.035 C 
ATOM      9  C   UNL     1      -1.993   2.379   0.563  0.00  0.00    +0.133 C 
ATOM     10  C   UNL     1      -2.929   1.282  -0.029  0.00  0.00    +0.145 C 
ATOM     11  O   UNL     1      -1.333   2.898  -0.656  0.00  0.00    -0.372 OA
BRANCH  10  12
ATOM     12  C   UNL     1      -3.156   0.175   0.967  0.00  0.00    +0.362 C 
ATOM     13  O   UNL     1      -2.727  -0.933   0.748  0.00  0.00    -0.246 OA
ATOM     14  O   UNL     1      -3.837   0.419   2.098  0.00  0.00    -0.246 OA
ENDBRANCH  10  12
ENDBRANCH   2   5
BRANCH   1  17
ATOM     15  C   UNL     1      -2.437   0.672  -6.092  0.00  0.00    +0.261 C 
ATOM     16  O   UNL     1      -1.308   0.222  -6.130  0.00  0.00    -0.269 OA
ATOM     17  N   UNL     1      -3.011   0.954  -4.906  0.00  0.00    -0.230 N 
ATOM     18  H   UNL     1      -3.912   1.313  -4.876  0.00  0.00    +0.173 HD
BRANCH  15  24
ATOM     19  C   UNL     1      -1.200   0.060  -8.752  0.00  0.00    +0.045 C 
ATOM     20  C   UNL     1      -2.594   0.619  -8.628  0.00  0.00    -0.028 A 
ATOM     21  C   UNL     1      -3.350   0.870  -9.715  0.00  0.00    -0.010 A 
ATOM     22  S   UNL     1      -4.862   1.503  -9.017  0.00  0.00    -0.101 S 
ATOM     23  C   UNL     1      -4.461   1.413  -7.335  0.00  0.00    +0.058 A 
ATOM     24  C   UNL     1      -3.177   0.909  -7.342  0.00  0.00    +0.048 A 
ATOM     25  C   UNL     1      -3.001   0.666 -11.167  0.00  0.00    +0.052 C 
ENDBRANCH  15  24
ENDBRANCH   1  17
TORSDOF 4
