REMARK  Name = ZINC11807963
REMARK  9 active torsions:
REMARK  status: ('A' for Active; 'I' for Inactive)
REMARK    1  A    between atoms: C_1  and  C_2
REMARK    2  A    between atoms: C_3  and  O_31
REMARK    3  A    between atoms: C_12  and  C_13
REMARK    4  A    between atoms: C_13  and  S_14
REMARK    5  A    between atoms: S_14  and  C_15
REMARK    6  A    between atoms: C_18  and  C_21
REMARK    7  A    between atoms: N_19  and  N_20
REMARK    8  A    between atoms: C_24  and  O_27
REMARK    9  A    between atoms: O_27  and  C_28
REMARK                            x       y       z     vdW  Elec       q    Type
REMARK                         _______ _______ _______ _____ _____    ______ ____
ROOT
ATOM      1  C   UNL     1      -2.580  -2.820   1.413  0.00  0.00    +0.209 A 
ATOM      2  N   UNL     1      -2.598  -3.408   0.238  0.00  0.00    -0.121 NA
ATOM      3  N   UNL     1      -2.624  -4.684   0.384  0.00  0.00    -0.127 NA
ATOM      4  C   UNL     1      -2.625  -4.990   1.660  0.00  0.00    +0.182 A 
ATOM      5  N   UNL     1      -2.591  -3.805   2.359  0.00  0.00    -0.224 N 
ENDROOT
BRANCH   4   6
ATOM      6  C   UNL     1      -2.650  -6.351   2.238  0.00  0.00    +0.021 A 
ATOM      7  C   UNL     1      -2.955  -6.532   3.588  0.00  0.00    +0.015 A 
ATOM      8  C   UNL     1      -2.982  -7.803   4.122  0.00  0.00    +0.046 A 
ATOM      9  C   UNL     1      -2.697  -8.901   3.320  0.00  0.00    +0.127 A 
ATOM     10  C   UNL     1      -2.388  -8.724   1.978  0.00  0.00    +0.046 A 
ATOM     11  C   UNL     1      -2.364  -7.457   1.436  0.00  0.00    +0.015 A 
BRANCH   9  12
ATOM     12  O   UNL     1      -2.719 -10.151   3.851  0.00  0.00    -0.434 OA
BRANCH  12  13
ATOM     13  C   UNL     1      -3.044 -10.261   5.238  0.00  0.00    +0.541 C 
ATOM     14  F   UNL     1      -2.107  -9.549   5.995  0.00  0.00    -0.166 F 
ATOM     15  F   UNL     1      -4.321  -9.735   5.461  0.00  0.00    -0.166 F 
ENDBRANCH  12  13
ENDBRANCH   9  12
ENDBRANCH   4   6
BRANCH   5  16
ATOM     16  N   UNL     1      -2.575  -3.648   3.716  0.00  0.00    -0.295 N 
ATOM     17  H   UNL     1      -3.513  -3.588   4.084  0.00  0.00    +0.163 HD
ATOM     18  H   UNL     1      -2.060  -4.393   4.161  0.00  0.00    +0.163 HD
ENDBRANCH   5  16
BRANCH   1  19
ATOM     19  S   UNL     1      -2.542  -1.084   1.713  0.00  0.00    -0.080 S 
BRANCH  19  20
ATOM     20  C   UNL     1      -2.537  -0.471   0.010  0.00  0.00    +0.113 C 
BRANCH  20  32
ATOM     21  C   UNL     1      -0.051   5.371   0.032  0.00  0.00    +0.051 C 
ATOM     22  C   UNL     1      -0.051   3.864   0.023  0.00  0.00    +0.034 A 
ATOM     23  C   UNL     1       1.148   3.170   0.008  0.00  0.00    +0.123 A 
ATOM     24  C   UNL     1       1.159   1.776   0.001  0.00  0.00    +0.046 A 
ATOM     25  C   UNL     1      -0.013   1.076   0.008  0.00  0.00    +0.015 A 
ATOM     26  C   UNL     1      -1.232   1.761   0.018  0.00  0.00    +0.022 A 
ATOM     27  C   UNL     1      -1.250   3.169   0.032  0.00  0.00    +0.146 A 
ATOM     28  O   UNL     1      -2.429   3.826   0.046  0.00  0.00    -0.422 OA
ATOM     29  C   UNL     1      -3.599   3.167   0.035  0.00  0.00    +0.338 A 
ATOM     30  O   UNL     1      -4.638   3.803   0.044  0.00  0.00    -0.245 OA
ATOM     31  C   UNL     1      -3.655   1.758   0.028  0.00  0.00    +0.097 A 
ATOM     32  C   UNL     1      -2.505   1.036   0.019  0.00  0.00    -0.020 A 
BRANCH  23  33
ATOM     33  O   UNL     1       2.321   3.852  -0.000  0.00  0.00    -0.506 OA
ATOM     34  H   UNL     1       2.653   4.054  -0.886  0.00  0.00    +0.292 HD
ENDBRANCH  23  33
ENDBRANCH  20  32
ENDBRANCH  19  20
ENDBRANCH   1  19
TORSDOF 8
