REMARK  Name = ZINC64392096
REMARK  4 active torsions:
REMARK  status: ('A' for Active; 'I' for Inactive)
REMARK    1  A    between atoms: C_3  and  C_8
REMARK    2  A    between atoms: C_10  and  C_14
REMARK    3  A    between atoms: N_24  and  C_27
REMARK    4  A    between atoms: C_27  and  C_28
REMARK                            x       y       z     vdW  Elec       q    Type
REMARK                         _______ _______ _______ _____ _____    ______ ____
ROOT
ATOM      1  C   UNL     1       6.287   3.263  -1.715  0.00  0.00    +0.006 A 
ATOM      2  C   UNL     1       5.422   3.290  -2.798  0.00  0.00    +0.009 A 
ATOM      3  C   UNL     1       5.854   3.749  -4.025  0.00  0.00    +0.016 A 
ATOM      4  C   UNL     1       7.168   4.186  -4.170  0.00  0.00    +0.063 A 
ATOM      5  C   UNL     1       8.044   4.158  -3.070  0.00  0.00    +0.056 A 
ATOM      6  C   UNL     1       7.590   3.699  -1.844  0.00  0.00    +0.034 A 
ATOM      7  N   UNL     1       9.348   4.601  -3.244  0.00  0.00    -0.307 N 
ATOM      8  H   UNL     1       9.963   4.587  -2.495  0.00  0.00    +0.170 HD
ATOM      9  C   UNL     1       9.765   5.048  -4.441  0.00  0.00    +0.330 A 
ATOM     10  O   UNL     1      10.915   5.426  -4.551  0.00  0.00    -0.246 OA
ATOM     11  N   UNL     1       8.968   5.094  -5.519  0.00  0.00    -0.256 N 
ATOM     12  C   UNL     1       7.681   4.687  -5.457  0.00  0.00    +0.265 A 
ATOM     13  O   UNL     1       6.965   4.732  -6.439  0.00  0.00    -0.267 OA
ENDROOT
BRANCH   1  16
ATOM     14  C   UNL     1       3.658   2.164  -0.022  0.00  0.00    +0.134 C 
ATOM     15  N   UNL     1       4.753   1.744  -0.575  0.00  0.00    -0.339 N 
ATOM     16  C   UNL     1       5.797   2.758  -0.382  0.00  0.00    +0.274 C 
ATOM     17  O   UNL     1       5.168   3.819   0.353  0.00  0.00    -0.243 OA
ATOM     18  N   UNL     1       3.827   3.401   0.550  0.00  0.00    -0.247 N 
ATOM     19  H   UNL     1       3.141   3.906   1.014  0.00  0.00    +0.196 HD
ATOM     20  H   UNL     1       4.865   0.899  -1.039  0.00  0.00    +0.164 HD
BRANCH  14  23
ATOM     21  C   UNL     1      -0.017   1.379   0.010  0.00  0.00    +0.002 A 
ATOM     22  C   UNL     1       1.167   2.088   0.002  0.00  0.00    +0.011 A 
ATOM     23  C   UNL     1       2.385   1.408  -0.013  0.00  0.00    +0.018 A 
ATOM     24  C   UNL     1       2.398   0.014  -0.021  0.00  0.00    +0.031 A 
ATOM     25  C   UNL     1       1.208  -0.685  -0.013  0.00  0.00    +0.042 A 
ATOM     26  C   UNL     1       0.002  -0.004   0.002  0.00  0.00    +0.020 A 
ATOM     27 CL   UNL     1       1.222  -2.421  -0.022  0.00  0.00    -0.084 Cl
ENDBRANCH  14  23
ENDBRANCH   1  16
BRANCH  11  28
ATOM     28  C   UNL     1       9.502   5.596  -6.787  0.00  0.00    +0.165 C 
BRANCH  28  29
ATOM     29  C   UNL     1      10.086   4.451  -7.575  0.00  0.00    -0.027 A 
ATOM     30  C   UNL     1      11.414   4.106  -7.410  0.00  0.00    +0.008 A 
ATOM     31  C   UNL     1      11.950   3.056  -8.132  0.00  0.00    +0.038 A 
ATOM     32  C   UNL     1      11.156   2.350  -9.019  0.00  0.00    +0.123 A 
ATOM     33  C   UNL     1       9.826   2.696  -9.182  0.00  0.00    +0.038 A 
ATOM     34  C   UNL     1       9.290   3.743  -8.456  0.00  0.00    +0.008 A 
ATOM     35  F   UNL     1      11.679   1.323  -9.725  0.00  0.00    -0.205 F 
ENDBRANCH  28  29
ENDBRANCH  11  28
TORSDOF 4
