REMARK  Name = ZINC48860507
REMARK  4 active torsions:
REMARK  status: ('A' for Active; 'I' for Inactive)
REMARK    1  A    between atoms: C_7  and  N_14
REMARK    2  A    between atoms: C_8  and  C_11
REMARK    3  A    between atoms: C_18  and  C_20
REMARK    4  A    between atoms: C_20  and  O_21
REMARK                            x       y       z     vdW  Elec       q    Type
REMARK                         _______ _______ _______ _____ _____    ______ ____
ROOT
ATOM      1  C   UNL     1      -0.205   1.437  -0.623  0.00  0.00    +0.001 A 
ATOM      2  C   UNL     1       0.925   2.246  -0.543  0.00  0.00    +0.002 A 
ATOM      3  C   UNL     1       2.167   1.705  -0.405  0.00  0.00    +0.026 A 
ATOM      4  C   UNL     1       2.319   0.311  -0.340  0.00  0.00    +0.048 A 
ATOM      5  C   UNL     1       1.168  -0.509  -0.421  0.00  0.00    +0.020 A 
ATOM      6  C   UNL     1      -0.096   0.080  -0.564  0.00  0.00    +0.012 A 
ATOM      7  C   UNL     1       1.319  -1.915  -0.356  0.00  0.00    +0.051 A 
ATOM      8  C   UNL     1       2.617  -2.426  -0.213  0.00  0.00    +0.050 A 
ATOM      9  C   UNL     1       3.701  -1.538  -0.141  0.00  0.00    +0.096 A 
ATOM     10  N   UNL     1       3.532  -0.242  -0.203  0.00  0.00    -0.360 N 
ATOM     11  H   UNL     1       4.309   0.337  -0.150  0.00  0.00    +0.165 HD
ENDROOT
BRANCH   8  12
ATOM     12  C   UNL     1       2.840  -3.881  -0.139  0.00  0.00    +0.097 C 
ATOM     13  N   UNL     1       3.632  -4.481  -1.030  0.00  0.00    -0.387 N 
ATOM     14  N   UNL     1       2.251  -4.598   0.818  0.00  0.00    -0.344 N 
ATOM     15  H   UNL     1       4.117  -3.951  -1.681  0.00  0.00    +0.157 HD
ATOM     16  H   UNL     1       1.675  -4.163   1.466  0.00  0.00    +0.144 HD
ATOM     17  H   UNL     1       2.398  -5.556   0.867  0.00  0.00    +0.144 HD
ATOM     18  H   UNL     1       3.723  -5.446  -1.026  0.00  0.00    +0.157 HD
ENDBRANCH   8  12
BRANCH   7  19
ATOM     19  N   UNL     1       0.228  -2.753  -0.430  0.00  0.00    -0.324 N 
ATOM     20  C   UNL     1      -0.501  -3.317   0.720  0.00  0.00    +0.105 C 
ATOM     21  C   UNL     1      -1.918  -3.630   0.176  0.00  0.00    +0.021 C 
ATOM     22  C   UNL     1      -1.599  -4.117  -1.262  0.00  0.00    +0.026 C 
ATOM     23  C   UNL     1      -0.406  -3.227  -1.669  0.00  0.00    +0.099 C 
BRANCH  23  24
ATOM     24  C   UNL     1       0.596  -4.046  -2.486  0.00  0.00    +0.178 C 
BRANCH  24  25
ATOM     25  O   UNL     1       0.932  -5.237  -1.772  0.00  0.00    -0.393 OA
ATOM     26  H   UNL     1       1.564  -5.806  -2.231  0.00  0.00    +0.209 HD
ENDBRANCH  24  25
ENDBRANCH  23  24
ENDBRANCH   7  19
TORSDOF 4
