REMARK  Name = ZINC36532564
REMARK  16 active torsions:
REMARK  status: ('A' for Active; 'I' for Inactive)
REMARK    1  A    between atoms: C_1  and  C_2
REMARK    2  A    between atoms: C_2  and  C_41
REMARK    3  A    between atoms: C_8  and  C_40
REMARK    4  A    between atoms: C_10  and  O_39
REMARK    5  A    between atoms: C_12  and  C_28
REMARK    6  A    between atoms: C_14  and  C_27
REMARK    7  A    between atoms: C_18  and  C_26
REMARK    8  A    between atoms: C_22  and  O_25
REMARK    9  A    between atoms: C_28  and  C_29
REMARK   10  A    between atoms: C_28  and  C_30
REMARK   11  A    between atoms: C_28  and  O_38
REMARK   12  A    between atoms: C_30  and  C_32
REMARK   13  A    between atoms: C_33  and  C_34
REMARK   14  A    between atoms: C_34  and  C_35
REMARK   15  A    between atoms: C_34  and  C_36
REMARK   16  A    between atoms: C_34  and  O_37
REMARK                            x       y       z     vdW  Elec       q    Type
REMARK                         _______ _______ _______ _____ _____    ______ ____
ROOT
ATOM      1  C   UNL     1      -0.598   2.674   0.502  0.00  0.00    +0.024 C 
ATOM      2  C   UNL     1      -0.337   1.183   0.729  0.00  0.00    +0.052 C 
ATOM      3  C   UNL     1      -1.611   0.357   0.672  0.00  0.00    -0.052 C 
ATOM      4  C   UNL     1      -2.744   0.855   0.289  0.00  0.00    -0.026 C 
ATOM      5  C   UNL     1      -4.035   0.068   0.271  0.00  0.00    +0.032 C 
ATOM      6  C   UNL     1      -3.909  -1.108   1.242  0.00  0.00    +0.013 C 
ATOM      7  C   UNL     1      -5.191  -1.861   1.421  0.00  0.00    -0.019 C 
ATOM      8  C   UNL     1      -5.938  -2.194   0.123  0.00  0.00    +0.039 C 
ATOM      9  C   UNL     1      -6.991  -3.235   0.573  0.00  0.00    +0.122 C 
ATOM     10  C   UNL     1      -6.369  -3.974   1.769  0.00  0.00    +0.063 C 
ATOM     11  C   UNL     1      -5.091  -3.193   2.176  0.00  0.00    -0.011 C 
ATOM     12  C   UNL     1      -3.913  -4.035   1.677  0.00  0.00    +0.082 C 
ATOM     13  C   UNL     1      -2.651  -3.208   1.641  0.00  0.00    +0.141 C 
ATOM     14  O   UNL     1      -1.651  -3.594   2.200  0.00  0.00    -0.297 OA
ATOM     15  C   UNL     1      -2.684  -1.921   0.857  0.00  0.00    +0.040 C 
ATOM     16  C   UNL     1      -1.445  -1.085   1.095  0.00  0.00    +0.055 C 
ATOM     17  C   UNL     1      -0.954  -1.108   2.508  0.00  0.00    +0.031 C 
ATOM     18  C   UNL     1      -0.167  -0.129   2.961  0.00  0.00    +0.157 C 
ATOM     19  C   UNL     1       0.241   1.000   2.123  0.00  0.00    +0.206 C 
ATOM     20  O   UNL     1       1.056   1.802   2.543  0.00  0.00    -0.288 OA
ATOM     21  C   UNL     1      -2.710  -2.279  -0.635  0.00  0.00    +0.020 C 
ATOM     22  C   UNL     1      -5.024  -2.981   3.694  0.00  0.00    +0.012 C 
ATOM     23  C   UNL     1      -6.112  -0.942   2.258  0.00  0.00    +0.012 C 
ATOM     24  C   UNL     1       0.670   0.686  -0.315  0.00  0.00    +0.024 C 
ENDROOT
BRANCH  18  25
ATOM     25  O   UNL     1       0.263  -0.189   4.250  0.00  0.00    -0.504 OA
ATOM     26  H   UNL     1       0.829   0.551   4.510  0.00  0.00    +0.292 HD
ENDBRANCH  18  25
BRANCH  10  27
ATOM     27  C   UNL     1      -7.358  -4.045   2.933  0.00  0.00    +0.130 C 
ATOM     28  C   UNL     1      -8.534  -4.945   2.549  0.00  0.00    +0.050 C 
BRANCH  27  29
ATOM     29  C   UNL     1      -6.667  -4.611   4.146  0.00  0.00    +0.187 C 
ATOM     30  O   UNL     1      -5.776  -5.424   4.013  0.00  0.00    -0.290 OA
BRANCH  29  31
ATOM     31  C   UNL     1      -7.069  -4.180   5.485  0.00  0.00    +0.048 C 
ATOM     32  C   UNL     1      -6.456  -4.681   6.559  0.00  0.00    +0.010 C 
BRANCH  32  33
ATOM     33  C   UNL     1      -6.871  -4.238   7.938  0.00  0.00    +0.079 C 
ATOM     34  C   UNL     1      -7.353  -5.448   8.741  0.00  0.00    +0.045 C 
ATOM     35  C   UNL     1      -5.676  -3.598   8.649  0.00  0.00    +0.045 C 
BRANCH  33  36
ATOM     36  O   UNL     1      -7.930  -3.284   7.834  0.00  0.00    -0.385 OA
ATOM     37  H   UNL     1      -8.247  -2.954   8.685  0.00  0.00    +0.211 HD
ENDBRANCH  33  36
ENDBRANCH  32  33
ENDBRANCH  29  31
ENDBRANCH  27  29
BRANCH  27  38
ATOM     38  O   UNL     1      -7.840  -2.732   3.228  0.00  0.00    -0.381 OA
ATOM     39  H   UNL     1      -7.142  -2.091   3.421  0.00  0.00    +0.211 HD
ENDBRANCH  27  38
ENDBRANCH  10  27
BRANCH   9  40
ATOM     40  O   UNL     1      -8.211  -2.599   0.945  0.00  0.00    -0.391 OA
ATOM     41  H   UNL     1      -8.633  -2.107   0.228  0.00  0.00    +0.210 HD
ENDBRANCH   9  40
TORSDOF 8
