REMARK  Name = ZINC36309113
REMARK  17 active torsions:
REMARK  status: ('A' for Active; 'I' for Inactive)
REMARK    1  A    between atoms: C_1  and  C_2
REMARK    2  A    between atoms: C_5  and  O_8
REMARK    3  A    between atoms: O_8  and  C_9
REMARK    4  A    between atoms: C_9  and  C_10
REMARK    5  A    between atoms: C_20  and  C_22
REMARK    6  A    between atoms: C_22  and  N_23
REMARK    7  A    between atoms: N_23  and  C_24
REMARK    8  A    between atoms: N_23  and  C_28
REMARK    9  A    between atoms: C_24  and  C_25
REMARK   10  A    between atoms: C_25  and  O_26
REMARK   11  A    between atoms: O_26  and  C_27
REMARK   12  A    between atoms: C_28  and  C_29
REMARK   13  A    between atoms: C_29  and  C_31
REMARK   14  A    between atoms: C_29  and  O_36
REMARK   15  A    between atoms: C_31  and  O_32
REMARK   16  A    between atoms: O_32  and  C_33
REMARK   17  A    between atoms: C_33  and  C_34
REMARK                            x       y       z     vdW  Elec       q    Type
REMARK                         _______ _______ _______ _____ _____    ______ ____
ROOT
ATOM      1  C   UNL     1      -0.836  -5.262   2.797  0.00  0.00    +0.144 C 
ATOM      2  C   UNL     1       0.648  -5.330   2.443  0.00  0.00    -0.014 A 
ATOM      3  C   UNL     1       1.665  -5.063   3.359  0.00  0.00    +0.013 A 
ATOM      4  C   UNL     1       2.959  -5.138   2.974  0.00  0.00    +0.046 A 
ATOM      5  S   UNL     1       2.806  -5.602   1.256  0.00  0.00    -0.101 S 
ATOM      6  C   UNL     1       1.035  -5.664   1.182  0.00  0.00    -0.004 A 
ATOM      7  C   UNL     1       0.166  -6.005   0.015  0.00  0.00    +0.061 C 
ATOM      8  C   UNL     1      -1.267  -5.539   0.316  0.00  0.00    +0.113 C 
ATOM      9  N   UNL     1      -1.588  -5.897   1.706  0.00  0.00    -0.292 N 
ATOM     10  C   UNL     1      -2.557  -6.795   1.976  0.00  0.00    +0.200 C 
ATOM     11  O   UNL     1      -2.812  -7.084   3.126  0.00  0.00    -0.278 OA
ENDROOT
BRANCH   1  12
ATOM     12  C   UNL     1      -1.268  -3.802   2.943  0.00  0.00    +0.256 C 
BRANCH  12  13
ATOM     13  O   UNL     1      -0.920  -3.082   1.758  0.00  0.00    -0.490 OA
BRANCH  13  18
ATOM     14  C   UNL     1      -2.235   2.393   1.617  0.00  0.00    +0.044 C 
ATOM     15  C   UNL     1      -1.883   0.929   1.655  0.00  0.00    -0.050 A 
ATOM     16  C   UNL     1      -1.252   0.342   0.573  0.00  0.00    +0.007 A 
ATOM     17  C   UNL     1      -0.929  -1.001   0.606  0.00  0.00    +0.046 A 
ATOM     18  C   UNL     1      -1.237  -1.760   1.724  0.00  0.00    +0.121 A 
ATOM     19  C   UNL     1      -1.869  -1.169   2.809  0.00  0.00    +0.046 A 
ATOM     20  C   UNL     1      -2.186   0.175   2.773  0.00  0.00    +0.007 A 
ENDBRANCH  13  18
ENDBRANCH  12  13
ENDBRANCH   1  12
BRANCH  10  21
ATOM     21  C   UNL     1      -3.322  -7.439   0.849  0.00  0.00    +0.019 C 
BRANCH  21  22
ATOM     22  N   UNL     1      -4.226  -8.462   1.392  0.00  0.00    +0.389 N 
ATOM     23  H   UNL     1      -4.820  -8.046   2.094  0.00  0.00    -0.081 HD
BRANCH  22  24
ATOM     24  C   UNL     1      -3.436  -9.542   1.998  0.00  0.00    -0.050 C 
BRANCH  24  25
ATOM     25  C   UNL     1      -2.658 -10.279   0.905  0.00  0.00    +0.141 C 
BRANCH  25  26
ATOM     26  O   UNL     1      -1.640  -9.421   0.385  0.00  0.00    -0.385 OA
ATOM     27  C   UNL     1      -0.851 -10.016  -0.647  0.00  0.00    +0.193 C 
ENDBRANCH  25  26
ENDBRANCH  24  25
ENDBRANCH  22  24
BRANCH  22  28
ATOM     28  C   UNL     1      -5.054  -9.008   0.309  0.00  0.00    -0.044 C 
BRANCH  28  29
ATOM     29  C   UNL     1      -6.090  -9.970   0.895  0.00  0.00    +0.124 C 
BRANCH  29  30
ATOM     30  O   UNL     1      -5.428 -11.124   1.415  0.00  0.00    -0.391 OA
ATOM     31  H   UNL     1      -4.922 -11.618   0.755  0.00  0.00    +0.210 HD
ENDBRANCH  29  30
BRANCH  29  32
ATOM     32  C   UNL     1      -7.070 -10.394  -0.201  0.00  0.00    +0.190 C 
BRANCH  32  33
ATOM     33  O   UNL     1      -8.104 -11.197   0.370  0.00  0.00    -0.365 OA
BRANCH  33  34
ATOM     34  C   UNL     1      -9.078 -11.648  -0.574  0.00  0.00    +0.248 C 
BRANCH  34  35
ATOM     35  C   UNL     1     -10.091 -12.463   0.117  0.00  0.00    -0.077 C 
ATOM     36  C   UNL     1     -10.899 -13.112   0.668  0.00  0.00    +0.006 C 
ENDBRANCH  34  35
ENDBRANCH  33  34
ENDBRANCH  32  33
ENDBRANCH  29  32
ENDBRANCH  28  29
ENDBRANCH  22  28
ENDBRANCH  21  22
ENDBRANCH  10  21
TORSDOF 15
