REMARK  Name = ZINC09243777
REMARK  7 active torsions:
REMARK  status: ('A' for Active; 'I' for Inactive)
REMARK    1  A    between atoms: C_1  and  C_2
REMARK    2  A    between atoms: C_5  and  C_8
REMARK    3  A    between atoms: C_11  and  C_26
REMARK    4  A    between atoms: N_18  and  C_19
REMARK    5  A    between atoms: C_19  and  C_20
REMARK    6  A    between atoms: C_29  and  C_33
REMARK    7  A    between atoms: C_31  and  O_32
REMARK                            x       y       z     vdW  Elec       q    Type
REMARK                         _______ _______ _______ _____ _____    ______ ____
ROOT
ATOM      1  C   UNL     1       0.059  -4.275  -0.021  0.00  0.00    +0.142 C 
ATOM      2  C   UNL     1      -1.320  -4.811   0.248  0.00  0.00    +0.035 A 
ATOM      3  C   UNL     1      -2.619  -4.886  -0.142  0.00  0.00    +0.075 A 
ATOM      4  N   UNL     1      -3.260  -5.664   0.779  0.00  0.00    -0.276 N 
ATOM      5  H   UNL     1      -4.203  -5.892   0.755  0.00  0.00    +0.189 HD
ATOM      6  N   UNL     1      -2.430  -6.050   1.681  0.00  0.00    -0.168 NA
ATOM      7  C   UNL     1      -1.226  -5.575   1.434  0.00  0.00    +0.153 A 
ATOM      8  C   UNL     1       0.173  -5.521   1.896  0.00  0.00    +0.268 C 
ATOM      9  O   UNL     1       0.596  -6.074   2.893  0.00  0.00    -0.268 OA
ATOM     10  N   UNL     1       0.916  -4.774   1.060  0.00  0.00    -0.281 N 
ENDROOT
BRANCH   3  11
ATOM     11  C   UNL     1      -3.221  -4.249  -1.334  0.00  0.00    +0.043 A 
ATOM     12  C   UNL     1      -4.185  -3.253  -1.183  0.00  0.00    +0.034 A 
ATOM     13  C   UNL     1      -4.744  -2.661  -2.299  0.00  0.00    +0.045 A 
ATOM     14  C   UNL     1      -4.350  -3.054  -3.567  0.00  0.00    -0.029 A 
ATOM     15  C   UNL     1      -3.396  -4.041  -3.727  0.00  0.00    +0.050 A 
ATOM     16  C   UNL     1      -2.823  -4.640  -2.617  0.00  0.00    +0.126 A 
ATOM     17  C   UNL     1      -4.966  -2.404  -4.779  0.00  0.00    +0.045 C 
ATOM     18 CL   UNL     1      -5.943  -1.420  -2.111  0.00  0.00    -0.083 Cl
BRANCH  16  19
ATOM     19  O   UNL     1      -1.881  -5.606  -2.774  0.00  0.00    -0.506 OA
ATOM     20  H   UNL     1      -2.241  -6.501  -2.829  0.00  0.00    +0.292 HD
ENDBRANCH  16  19
ENDBRANCH   3  11
BRANCH   1  25
ATOM     21  C   UNL     1      -0.018   1.503   0.010  0.00  0.00    +0.044 C 
ATOM     22  C   UNL     1       0.002  -0.004   0.002  0.00  0.00    -0.050 A 
ATOM     23  C   UNL     1       0.006  -0.689  -1.199  0.00  0.00    +0.004 A 
ATOM     24  C   UNL     1       0.025  -2.071  -1.206  0.00  0.00    +0.006 A 
ATOM     25  C   UNL     1       0.040  -2.768  -0.013  0.00  0.00    -0.022 A 
ATOM     26  C   UNL     1       0.037  -2.084   1.188  0.00  0.00    +0.006 A 
ATOM     27  C   UNL     1       0.023  -0.702   1.195  0.00  0.00    +0.004 A 
ENDBRANCH   1  25
BRANCH  10  28
ATOM     28  C   UNL     1       2.349  -4.502   1.206  0.00  0.00    +0.145 C 
BRANCH  28  29
ATOM     29  C   UNL     1       2.542  -3.252   2.025  0.00  0.00    -0.012 A 
ATOM     30  C   UNL     1       2.603  -2.011   1.408  0.00  0.00    +0.008 A 
ATOM     31  C   UNL     1       2.782  -0.889   2.201  0.00  0.00    +0.020 A 
ATOM     32  C   UNL     1       2.893  -1.042   3.571  0.00  0.00    +0.111 A 
ATOM     33  N   UNL     1       2.831  -2.238   4.122  0.00  0.00    -0.263 NA
ATOM     34  C   UNL     1       2.655  -3.327   3.400  0.00  0.00    +0.115 A 
ENDBRANCH  28  29
ENDBRANCH  10  28
TORSDOF 5
