REMARK  Name = ZINC17088564
REMARK  6 active torsions:
REMARK  status: ('A' for Active; 'I' for Inactive)
REMARK    1  A    between atoms: C_1  and  C_2
REMARK    2  A    between atoms: C_2  and  C_3
REMARK    3  A    between atoms: C_2  and  C_4
REMARK    4  A    between atoms: C_7  and  C_10
REMARK    5  A    between atoms: C_15  and  C_23
REMARK    6  A    between atoms: C_24  and  C_25
REMARK                            x       y       z     vdW  Elec       q    Type
REMARK                         _______ _______ _______ _____ _____    ______ ____
ROOT
ATOM      1  C   UNL     1      -5.419  -2.005   0.043  0.00  0.00    +0.032 C 
ATOM      2  C   UNL     1      -6.159  -1.517  -1.204  0.00  0.00    +0.060 C 
ATOM      3  C   UNL     1      -7.562  -2.077  -1.214  0.00  0.00    +0.020 C 
ATOM      4  C   UNL     1      -7.834  -3.277  -0.659  0.00  0.00    +0.040 C 
ATOM      5  C   UNL     1      -9.229  -3.862  -0.652  0.00  0.00    +0.168 C 
ATOM      6  N   UNL     1     -10.082  -3.129  -1.579  0.00  0.00    -0.221 N 
ATOM      7  C   UNL     1      -9.745  -1.929  -2.113  0.00  0.00    +0.218 A 
ATOM      8  N   UNL     1     -10.722  -1.544  -2.888  0.00  0.00    -0.201 NA
ATOM      9  C   UNL     1     -11.690  -2.466  -2.879  0.00  0.00    +0.247 A 
ATOM     10  N   UNL     1     -11.338  -3.453  -2.091  0.00  0.00    -0.156 NA
ATOM     11  N   UNL     1      -8.538  -1.318  -1.815  0.00  0.00    -0.287 N 
ATOM     12  C   UNL     1      -6.819  -4.038  -0.052  0.00  0.00    +0.164 C 
ATOM     13  O   UNL     1      -7.091  -5.125   0.418  0.00  0.00    -0.292 OA
ATOM     14  C   UNL     1      -5.404  -3.537   0.027  0.00  0.00    +0.088 C 
ATOM     15  H   UNL     1      -8.386  -0.383  -2.024  0.00  0.00    +0.155 HD
ENDROOT
BRANCH   1  19
ATOM     16  C   UNL     1      -1.412  -0.526   0.013  0.00  0.00    -0.045 A 
ATOM     17  C   UNL     1      -2.259  -0.204   1.056  0.00  0.00    +0.004 A 
ATOM     18  C   UNL     1      -3.556  -0.683   1.066  0.00  0.00    +0.004 A 
ATOM     19  C   UNL     1      -4.006  -1.482   0.032  0.00  0.00    -0.043 A 
ATOM     20  C   UNL     1      -3.159  -1.803  -1.012  0.00  0.00    +0.004 A 
ATOM     21  C   UNL     1      -1.863  -1.321  -1.024  0.00  0.00    +0.004 A 
BRANCH  16  23
ATOM     22  C   UNL     1      -0.019   1.526   0.010  0.00  0.00    +0.012 C 
ATOM     23  C   UNL     1       0.002  -0.004   0.002  0.00  0.00    +0.013 C 
ATOM     24  C   UNL     1       0.742  -0.511   1.242  0.00  0.00    +0.012 C 
ENDBRANCH  16  23
ENDBRANCH   1  19
BRANCH   5  25
ATOM     25  C   UNL     1      -9.805  -3.766   0.737  0.00  0.00    +0.005 C 
ATOM     26  C   UNL     1     -10.166  -4.867   1.382  0.00  0.00    +0.006 C 
BRANCH  26  27
ATOM     27  C   UNL     1     -10.731  -4.773   2.745  0.00  0.00    -0.025 A 
ATOM     28  C   UNL     1     -10.891  -3.527   3.353  0.00  0.00    +0.008 A 
ATOM     29  C   UNL     1     -11.419  -3.446   4.625  0.00  0.00    +0.001 A 
ATOM     30  C   UNL     1     -11.789  -4.597   5.298  0.00  0.00    +0.000 A 
ATOM     31  C   UNL     1     -11.633  -5.835   4.701  0.00  0.00    +0.001 A 
ATOM     32  C   UNL     1     -11.112  -5.929   3.427  0.00  0.00    +0.008 A 
ENDBRANCH  26  27
ENDBRANCH   5  25
TORSDOF 4
