REMARK  Name = ZINC64491455
REMARK  11 active torsions:
REMARK  status: ('A' for Active; 'I' for Inactive)
REMARK    1  A    between atoms: C_1  and  O_2
REMARK    2  A    between atoms: O_2  and  C_3
REMARK    3  A    between atoms: C_6  and  N_9
REMARK    4  A    between atoms: C_10  and  C_12
REMARK    5  A    between atoms: C_16  and  C_19
REMARK    6  A    between atoms: C_19  and  S_20
REMARK    7  A    between atoms: S_20  and  C_21
REMARK    8  A    between atoms: C_21  and  C_22
REMARK    9  A    between atoms: N_24  and  C_25
REMARK   10  A    between atoms: C_25  and  C_26
REMARK   11  A    between atoms: C_26  and  C_27
REMARK                            x       y       z     vdW  Elec       q    Type
REMARK                         _______ _______ _______ _____ _____    ______ ____
ROOT
ATOM      1  C   UNL     1       5.636  -7.624  -4.691  0.00  0.00    +0.109 C 
ENDROOT
BRANCH   1   5
ATOM      2  C   UNL     1       3.363  -4.458  -5.442  0.00  0.00    +0.272 C 
ATOM      3  N   UNL     1       4.823  -4.282  -5.270  0.00  0.00    -0.167 NA
ATOM      4  N   UNL     1       5.578  -5.230  -5.364  0.00  0.00    -0.176 NA
ATOM      5  C   UNL     1       5.056  -6.585  -5.654  0.00  0.00    +0.197 C 
ATOM      6  S   UNL     1       3.256  -6.300  -5.336  0.00  0.00    -0.094 S 
BRANCH   2   8
ATOM      7  N   UNL     1       2.458  -2.458  -4.302  0.00  0.00    -0.283 N 
ATOM      8  C   UNL     1       2.596  -3.798  -4.325  0.00  0.00    +0.254 C 
ATOM      9  O   UNL     1       2.102  -4.474  -3.447  0.00  0.00    -0.272 OA
ATOM     10  H   UNL     1       2.786  -1.924  -5.042  0.00  0.00    +0.155 HD
BRANCH   7  14
ATOM     11  C   UNL     1       0.623  -0.606  -1.048  0.00  0.00    +0.120 A 
ATOM     12  C   UNL     1       1.376  -1.755  -0.857  0.00  0.00    +0.047 A 
ATOM     13  C   UNL     1       1.984  -2.369  -1.935  0.00  0.00    +0.027 A 
ATOM     14  C   UNL     1       1.841  -1.835  -3.208  0.00  0.00    +0.034 A 
ATOM     15  C   UNL     1       1.087  -0.685  -3.398  0.00  0.00    +0.027 A 
ATOM     16  C   UNL     1       0.475  -0.075  -2.321  0.00  0.00    +0.047 A 
BRANCH  11  18
ATOM     17  C   UNL     1       0.219  -0.601   1.296  0.00  0.00    +0.277 C 
ATOM     18  O   UNL     1       0.025  -0.001   0.013  0.00  0.00    -0.495 OA
ENDBRANCH  11  18
ENDBRANCH   7  14
ENDBRANCH   2   8
ENDBRANCH   1   5
BRANCH   1  19
ATOM     19  S   UNL     1       5.226  -7.162  -2.986  0.00  0.00    -0.148 S 
BRANCH  19  20
ATOM     20  C   UNL     1       5.975  -8.476  -1.984  0.00  0.00    +0.164 C 
BRANCH  20  21
ATOM     21  C   UNL     1       5.705  -8.211  -0.525  0.00  0.00    +0.223 C 
ATOM     22  O   UNL     1       5.069  -7.232  -0.194  0.00  0.00    -0.275 OA
ATOM     23  N   UNL     1       6.170  -9.061   0.412  0.00  0.00    -0.314 N 
ATOM     24  H   UNL     1       6.678  -9.844   0.147  0.00  0.00    +0.149 HD
BRANCH  23  25
ATOM     25  C   UNL     1       5.907  -8.803   1.830  0.00  0.00    +0.108 C 
BRANCH  25  26
ATOM     26  C   UNL     1       6.539  -9.911   2.675  0.00  0.00    +0.052 C 
BRANCH  26  27
ATOM     27  C   UNL     1       6.269  -9.646   4.134  0.00  0.00    -0.040 C 
ATOM     28  C   UNL     1       5.263 -10.155   4.880  0.00  0.00    -0.001 A 
ATOM     29  C   UNL     1       4.160 -11.072   4.569  0.00  0.00    +0.010 A 
ATOM     30  C   UNL     1       3.288 -11.406   5.547  0.00  0.00    +0.001 A 
ATOM     31  C   UNL     1       3.411 -10.900   6.848  0.00  0.00    +0.002 A 
ATOM     32  C   UNL     1       4.398 -10.053   7.211  0.00  0.00    +0.026 A 
ATOM     33  C   UNL     1       5.371  -9.635   6.262  0.00  0.00    +0.043 A 
ATOM     34  N   UNL     1       6.404  -8.835   6.365  0.00  0.00    -0.380 N 
ATOM     35  C   UNL     1       7.073  -8.762   5.061  0.00  0.00    +0.144 C 
ATOM     36  H   UNL     1       6.683  -8.371   7.171  0.00  0.00    +0.160 HD
ENDBRANCH  26  27
ENDBRANCH  25  26
ENDBRANCH  23  25
ENDBRANCH  20  21
ENDBRANCH  19  20
ENDBRANCH   1  19
TORSDOF 10
