REMARK  Name = ZINC67130564
REMARK  7 active torsions:
REMARK  status: ('A' for Active; 'I' for Inactive)
REMARK    1  A    between atoms: C_1  and  C_2
REMARK    2  A    between atoms: C_2  and  N_3
REMARK    3  A    between atoms: N_3  and  C_4
REMARK    4  A    between atoms: C_10  and  C_12
REMARK    5  A    between atoms: C_12  and  C_14
REMARK    6  A    between atoms: C_12  and  N_15
REMARK    7  A    between atoms: C_18  and  C_21
REMARK                            x       y       z     vdW  Elec       q    Type
REMARK                         _______ _______ _______ _____ _____    ______ ____
ROOT
ATOM      1  N   UNL     1      -1.921  -3.117   3.505  0.00  0.00    +0.387 N 
ATOM      2  C   UNL     1      -1.350  -3.177   4.856  0.00  0.00    -0.077 C 
ATOM      3  C   UNL     1      -1.888  -4.409   5.587  0.00  0.00    -0.006 C 
ATOM      4  C   UNL     1      -1.496  -5.669   4.810  0.00  0.00    +0.072 C 
ATOM      5  C   UNL     1      -2.034  -5.562   3.380  0.00  0.00    -0.006 C 
ATOM      6  C   UNL     1      -1.491  -4.287   2.730  0.00  0.00    -0.077 C 
ATOM      7  H   UNL     1      -2.928  -3.109   3.568  0.00  0.00    -0.081 HD
ENDROOT
BRANCH   4   8
ATOM      8  C   UNL     1      -2.089  -6.880   5.482  0.00  0.00    +0.200 A 
ATOM      9  N   UNL     1      -3.360  -7.082   5.662  0.00  0.00    -0.213 NA
ATOM     10  C   UNL     1      -3.529  -8.273   6.298  0.00  0.00    +0.110 A 
ATOM     11  C   UNL     1      -4.647  -8.984   6.736  0.00  0.00    +0.031 A 
ATOM     12  C   UNL     1      -4.481 -10.198   7.365  0.00  0.00    +0.002 A 
ATOM     13  C   UNL     1      -3.210 -10.717   7.566  0.00  0.00    +0.004 A 
ATOM     14  C   UNL     1      -2.096 -10.025   7.138  0.00  0.00    +0.048 A 
ATOM     15  C   UNL     1      -2.245  -8.802   6.502  0.00  0.00    +0.155 A 
ATOM     16  O   UNL     1      -1.380  -7.907   5.976  0.00  0.00    -0.439 OA
ENDBRANCH   4   8
BRANCH   1  17
ATOM     17  C   UNL     1      -1.463  -1.893   2.835  0.00  0.00    +0.017 C 
ATOM     18  C   UNL     1      -2.035  -0.672   3.558  0.00  0.00    -0.004 C 
BRANCH  17  20
ATOM     19  N   UNL     1      -1.178  -1.333   0.443  0.00  0.00    -0.273 N 
ATOM     20  C   UNL     1      -1.936  -1.897   1.404  0.00  0.00    +0.206 C 
ATOM     21  O   UNL     1      -2.998  -2.407   1.117  0.00  0.00    -0.277 OA
BRANCH  19  22
ATOM     22  C   UNL     1      -1.626  -1.320  -0.883  0.00  0.00    +0.036 A 
ATOM     23  C   UNL     1      -2.882  -0.813  -1.188  0.00  0.00    +0.023 A 
ATOM     24  C   UNL     1      -3.321  -0.801  -2.498  0.00  0.00    +0.002 A 
ATOM     25  C   UNL     1      -2.510  -1.293  -3.505  0.00  0.00    +0.000 A 
ATOM     26  C   UNL     1      -1.259  -1.798  -3.204  0.00  0.00    +0.002 A 
ATOM     27  C   UNL     1      -0.812  -1.808  -1.897  0.00  0.00    +0.023 A 
ENDBRANCH  19  22
BRANCH  19  29
ATOM     28  C   UNL     1      -0.056   0.775   0.969  0.00  0.00    +0.025 C 
ATOM     29  C   UNL     1       0.114  -0.734   0.785  0.00  0.00    +0.110 C 
ENDBRANCH  19  29
ENDBRANCH  17  20
ENDBRANCH   1  17
TORSDOF 5
