REMARK  Name = ZINC01352218
REMARK  8 active torsions:
REMARK  status: ('A' for Active; 'I' for Inactive)
REMARK    1  A    between atoms: C_1  and  C_2
REMARK    2  A    between atoms: C_5  and  S_8
REMARK    3  A    between atoms: S_8  and  C_11
REMARK    4  A    between atoms: C_11  and  N_12
REMARK    5  A    between atoms: C_13  and  C_17
REMARK    6  A    between atoms: C_17  and  C_19
REMARK    7  A    between atoms: C_17  and  N_58
REMARK    8  A    between atoms: C_28  and  C_31
REMARK                            x       y       z     vdW  Elec       q    Type
REMARK                         _______ _______ _______ _____ _____    ______ ____
ROOT
ATOM      1  C   UNL     1       3.720   1.410  -0.847  0.00  0.00    +0.033 C 
ENDROOT
BRANCH   1   2
ATOM      2  C   UNL     1       4.673   1.407   0.320  0.00  0.00    -0.053 A 
ATOM      3  C   UNL     1       5.145   0.209   0.824  0.00  0.00    +0.005 A 
ATOM      4  C   UNL     1       6.024   0.205   1.891  0.00  0.00    +0.038 A 
ATOM      5  C   UNL     1       6.422   1.401   2.463  0.00  0.00    +0.123 A 
ATOM      6  C   UNL     1       5.944   2.600   1.962  0.00  0.00    +0.038 A 
ATOM      7  C   UNL     1       5.070   2.602   0.891  0.00  0.00    +0.005 A 
ATOM      8  F   UNL     1       7.275   1.399   3.510  0.00  0.00    -0.205 F 
ENDBRANCH   1   2
BRANCH   1  14
ATOM      9  C   UNL     1       5.590   0.893  -2.295  0.00  0.00    -0.077 C 
ATOM     10  C   UNL     1       6.140  -0.142  -3.279  0.00  0.00    -0.006 C 
ATOM     11  C   UNL     1       5.228  -0.207  -4.507  0.00  0.00    +0.071 C 
ATOM     12  C   UNL     1       3.805  -0.554  -4.059  0.00  0.00    -0.006 C 
ATOM     13  C   UNL     1       3.323   0.493  -3.052  0.00  0.00    -0.077 C 
ATOM     14  N   UNL     1       4.229   0.488  -1.884  0.00  0.00    +0.389 N 
ATOM     15  H   UNL     1       4.267  -0.462  -1.496  0.00  0.00    -0.080 HD
BRANCH  11  16
ATOM     16  C   UNL     1       5.730  -1.266  -5.454  0.00  0.00    +0.213 C 
ATOM     17  O   UNL     1       5.021  -2.207  -5.743  0.00  0.00    -0.276 OA
ATOM     18  N   UNL     1       6.967  -1.169  -5.980  0.00  0.00    -0.329 N 
ATOM     19  H   UNL     1       7.534  -0.416  -5.749  0.00  0.00    +0.145 HD
ATOM     20  H   UNL     1       7.290  -1.851  -6.590  0.00  0.00    +0.145 HD
ENDBRANCH  11  16
ENDBRANCH   1  14
BRANCH   1  22
ATOM     21  N   UNL     1       1.239   1.663  -0.314  0.00  0.00    -0.209 N 
ATOM     22  C   UNL     1       2.366   0.931  -0.391  0.00  0.00    +0.144 A 
ATOM     23  N   UNL     1       2.057  -0.279   0.007  0.00  0.00    -0.115 NA
ATOM     24  N   UNL     1       0.805  -0.289   0.313  0.00  0.00    -0.023 NA
ATOM     25  N   UNL     1       0.308   0.883   0.120  0.00  0.00    -0.042 NA
BRANCH  21  26
ATOM     26  C   UNL     1       1.097   3.080  -0.658  0.00  0.00    +0.318 C 
BRANCH  26  27
ATOM     27  S   UNL     1       1.242   4.085   0.845  0.00  0.00    +0.017 S 
ATOM     28  O   UNL     1       0.073   3.949   1.640  0.00  0.00    -0.168 OA
ATOM     29  O   UNL     1       2.532   3.923   1.419  0.00  0.00    -0.168 OA
BRANCH  27  34
ATOM     30  C   UNL     1       1.129   9.798  -1.094  0.00  0.00    +0.044 C 
ATOM     31  C   UNL     1       1.157   8.371  -0.610  0.00  0.00    -0.050 A 
ATOM     32  C   UNL     1      -0.022   7.729  -0.281  0.00  0.00    +0.005 A 
ATOM     33  C   UNL     1       0.004   6.421   0.163  0.00  0.00    +0.027 A 
ATOM     34  C   UNL     1       1.209   5.753   0.278  0.00  0.00    +0.090 A 
ATOM     35  C   UNL     1       2.389   6.397  -0.046  0.00  0.00    +0.027 A 
ATOM     36  C   UNL     1       2.362   7.705  -0.494  0.00  0.00    +0.005 A 
ENDBRANCH  27  34
ENDBRANCH  26  27
ENDBRANCH  21  26
ENDBRANCH   1  22
TORSDOF 7
