REMARK  Name = ZINC63351334
REMARK  6 active torsions:
REMARK  status: ('A' for Active; 'I' for Inactive)
REMARK    1  A    between atoms: C_1  and  C_2
REMARK    2  A    between atoms: C_8  and  O_13
REMARK    3  A    between atoms: O_13  and  C_14
REMARK    4  A    between atoms: N_21  and  C_24
REMARK    5  A    between atoms: C_24  and  C_25
REMARK    6  A    between atoms: C_25  and  C_26
REMARK                            x       y       z     vdW  Elec       q    Type
REMARK                         _______ _______ _______ _____ _____    ______ ____
ROOT
ATOM      1  C   UNL     1      -0.019   1.526   0.010  0.00  0.00    +0.044 C 
ATOM      2  C   UNL     1       0.002  -0.004   0.002  0.00  0.00    +0.135 C 
ATOM      3  C   UNL     1       0.769  -0.482  -1.236  0.00  0.00    +0.139 C 
ATOM      4  C   UNL     1       2.227  -0.100  -1.015  0.00  0.00    -0.034 C 
ATOM      5  C   UNL     1       2.586   0.632  -2.062  0.00  0.00    +0.003 A 
ATOM      6  C   UNL     1       3.876   1.221  -2.454  0.00  0.00    +0.055 A 
ATOM      7  C   UNL     1       3.893   1.941  -3.609  0.00  0.00    +0.121 A 
ATOM      8  C   UNL     1       2.768   2.144  -4.423  0.00  0.00    +0.047 A 
ATOM      9  C   UNL     1       1.535   1.643  -4.160  0.00  0.00    +0.029 A 
ATOM     10  C   UNL     1       1.391   0.840  -2.938  0.00  0.00    +0.043 A 
ATOM     11  N   UNL     1       0.337   0.214  -2.449  0.00  0.00    -0.375 N 
ATOM     12  C   UNL     1       2.978  -0.475   0.239  0.00  0.00    +0.052 C 
ATOM     13  C   UNL     1       2.102  -0.036   1.426  0.00  0.00    +0.113 C 
ATOM     14  N   UNL     1       0.713  -0.474   1.192  0.00  0.00    -0.284 N 
ATOM     15  C   UNL     1       0.150  -1.290   2.091  0.00  0.00    +0.234 C 
ATOM     16  O   UNL     1       0.830  -1.646   3.030  0.00  0.00    -0.274 OA
ATOM     17  C   UNL     1      -1.253  -1.795   2.023  0.00  0.00    +0.203 C 
ATOM     18  N   UNL     1      -1.961  -1.292   0.858  0.00  0.00    -0.291 N 
ATOM     19  C   UNL     1      -1.403  -0.505  -0.060  0.00  0.00    +0.242 C 
ATOM     20  O   UNL     1      -2.086  -0.160  -1.000  0.00  0.00    -0.273 OA
ATOM     21  H   UNL     1      -0.562   0.213  -2.815  0.00  0.00    +0.160 HD
ENDROOT
BRANCH   7  22
ATOM     22  O   UNL     1       5.070   2.498  -3.998  0.00  0.00    -0.495 OA
ATOM     23  C   UNL     1       5.063   3.249  -5.213  0.00  0.00    +0.277 C 
ENDBRANCH   7  22
BRANCH  18  24
ATOM     24  C   UNL     1      -3.359  -1.688   0.672  0.00  0.00    +0.113 C 
BRANCH  24  25
ATOM     25  C   UNL     1      -4.272  -0.674   1.365  0.00  0.00    +0.057 C 
BRANCH  25  26
ATOM     26  C   UNL     1      -5.711  -1.082   1.174  0.00  0.00    -0.011 A 
ATOM     27  C   UNL     1      -6.448  -0.548   0.134  0.00  0.00    +0.006 A 
ATOM     28  C   UNL     1      -7.768  -0.922  -0.041  0.00  0.00    +0.000 A 
ATOM     29  C   UNL     1      -8.351  -1.829   0.824  0.00  0.00    +0.003 A 
ATOM     30  C   UNL     1      -7.615  -2.364   1.864  0.00  0.00    +0.038 A 
ATOM     31  C   UNL     1      -6.292  -1.995   2.037  0.00  0.00    +0.127 A 
ATOM     32  F   UNL     1      -5.570  -2.521   3.051  0.00  0.00    -0.205 F 
ENDBRANCH  25  26
ENDBRANCH  24  25
ENDBRANCH  18  24
TORSDOF 4
