REMARK  Name = ZINC63138185
REMARK  8 active torsions:
REMARK  status: ('A' for Active; 'I' for Inactive)
REMARK    1  A    between atoms: C_1  and  C_2
REMARK    2  A    between atoms: C_2  and  C_3
REMARK    3  A    between atoms: C_3  and  C_4
REMARK    4  A    between atoms: C_4  and  C_5
REMARK    5  A    between atoms: C_5  and  N_6
REMARK    6  A    between atoms: C_26  and  C_28
REMARK    7  A    between atoms: C_32  and  O_34
REMARK    8  A    between atoms: O_34  and  C_35
REMARK                            x       y       z     vdW  Elec       q    Type
REMARK                         _______ _______ _______ _____ _____    ______ ____
ROOT
ATOM      1  N   UNL     1       1.717  -4.029   2.097  0.00  0.00    -0.291 N 
ATOM      2  C   UNL     1       0.613  -4.623   2.831  0.00  0.00    +0.203 C 
ATOM      3  C   UNL     1       0.704  -6.112   2.880  0.00  0.00    +0.234 C 
ATOM      4  O   UNL     1      -0.169  -6.711   3.472  0.00  0.00    -0.274 OA
ATOM      5  N   UNL     1       1.681  -6.834   2.317  0.00  0.00    -0.279 N 
ATOM      6  C   UNL     1       2.774  -6.228   1.564  0.00  0.00    +0.167 C 
ATOM      7  C   UNL     1       2.686  -4.738   1.521  0.00  0.00    +0.237 C 
ATOM      8  O   UNL     1       3.555  -4.135   0.927  0.00  0.00    -0.274 OA
ATOM      9  C   UNL     1       2.793  -6.783   0.128  0.00  0.00    +0.065 C 
ATOM     10  C   UNL     1       2.640  -8.279   0.243  0.00  0.00    -0.034 C 
ATOM     11  C   UNL     1       3.348  -9.278  -0.268  0.00  0.00    -0.001 A 
ATOM     12  C   UNL     1       4.470  -9.298  -1.221  0.00  0.00    +0.010 A 
ATOM     13  C   UNL     1       4.983 -10.521  -1.517  0.00  0.00    +0.001 A 
ATOM     14  C   UNL     1       4.499 -11.713  -0.967  0.00  0.00    +0.002 A 
ATOM     15  C   UNL     1       3.466 -11.789  -0.091  0.00  0.00    +0.026 A 
ATOM     16  C   UNL     1       2.838 -10.568   0.290  0.00  0.00    +0.043 A 
ATOM     17  N   UNL     1       1.828 -10.353   1.081  0.00  0.00    -0.375 N 
ATOM     18  C   UNL     1       1.535  -8.919   1.076  0.00  0.00    +0.131 C 
ATOM     19  C   UNL     1       1.632  -8.305   2.475  0.00  0.00    +0.134 C 
ATOM     20  H   UNL     1       1.350 -11.028   1.588  0.00  0.00    +0.160 HD
ENDROOT
BRANCH  19  21
ATOM     21  C   UNL     1       2.885  -8.787   3.159  0.00  0.00    -0.021 A 
ATOM     22  C   UNL     1       4.122  -8.537   2.592  0.00  0.00    +0.006 A 
ATOM     23  C   UNL     1       5.273  -8.978   3.217  0.00  0.00    +0.004 A 
ATOM     24  C   UNL     1       5.192  -9.669   4.410  0.00  0.00    +0.045 A 
ATOM     25  C   UNL     1       3.953  -9.921   4.981  0.00  0.00    +0.120 A 
ATOM     26  C   UNL     1       2.799  -9.472   4.355  0.00  0.00    +0.051 A 
BRANCH  25  27
ATOM     27  O   UNL     1       3.870 -10.601   6.155  0.00  0.00    -0.495 OA
ATOM     28  C   UNL     1       5.099 -11.028   6.746  0.00  0.00    +0.277 C 
ENDBRANCH  25  27
ENDBRANCH  19  21
BRANCH   1  29
ATOM     29  C   UNL     1       1.764  -2.569   1.979  0.00  0.00    +0.108 C 
BRANCH  29  30
ATOM     30  C   UNL     1       1.005  -2.134   0.724  0.00  0.00    +0.019 C 
BRANCH  30  31
ATOM     31  C   UNL     1       1.054  -0.610   0.601  0.00  0.00    +0.001 C 
BRANCH  31  33
ATOM     32  C   UNL     1       0.343   1.349  -0.777  0.00  0.00    +0.004 C 
ATOM     33  C   UNL     1       0.294  -0.175  -0.654  0.00  0.00    -0.003 C 
ENDBRANCH  31  33
ENDBRANCH  30  31
ENDBRANCH  29  30
ENDBRANCH   1  29
TORSDOF 6
