REMARK  Name = ZINC08969769
REMARK  6 active torsions:
REMARK  status: ('A' for Active; 'I' for Inactive)
REMARK    1  A    between atoms: C_1  and  C_2
REMARK    2  A    between atoms: C_5  and  C_30
REMARK    3  A    between atoms: C_6  and  N_8
REMARK    4  A    between atoms: C_9  and  C_11
REMARK    5  A    between atoms: C_12  and  C_29
REMARK    6  A    between atoms: C_17  and  C_19
REMARK                            x       y       z     vdW  Elec       q    Type
REMARK                         _______ _______ _______ _____ _____    ______ ____
ROOT
ATOM      1  C   UNL     1      -2.256  -0.876   1.447  0.00  0.00    +0.056 C 
ATOM      2  C   UNL     1      -3.055  -1.845   1.941  0.00  0.00    +0.017 C 
ATOM      3  N   UNL     1      -4.197  -2.217   1.290  0.00  0.00    -0.300 N 
ATOM      4  C   UNL     1      -4.609  -1.668   0.140  0.00  0.00    +0.135 C 
ATOM      5  S   UNL     1      -6.061  -2.229  -0.572  0.00  0.00    -0.019 S 
ATOM      6  N   UNL     1      -3.916  -0.689  -0.475  0.00  0.00    -0.315 N 
ATOM      7  C   UNL     1      -2.668  -0.216   0.147  0.00  0.00    +0.140 C 
ATOM      8  C   UNL     1      -2.683  -2.527   3.232  0.00  0.00    +0.061 C 
ATOM      9  H   UNL     1      -4.835  -3.009   1.709  0.00  0.00    +0.154 HD
ATOM     10  H   UNL     1      -4.263  -0.245  -1.420  0.00  0.00    +0.149 HD
ENDROOT
BRANCH   7  11
ATOM     11  C   UNL     1      -2.808   1.263   0.401  0.00  0.00    -0.015 A 
ATOM     12  C   UNL     1      -4.007   1.782   0.784  0.00  0.00    +0.006 A 
ATOM     13  C   UNL     1      -4.155   3.146   1.023  0.00  0.00    +0.001 A 
ATOM     14  C   UNL     1      -3.104   4.001   0.880  0.00  0.00    +0.008 A 
ATOM     15  C   UNL     1      -1.851   3.502   0.486  0.00  0.00    -0.018 A 
ATOM     16  C   UNL     1      -1.702   2.115   0.237  0.00  0.00    -0.013 A 
ATOM     17  C   UNL     1      -0.447   1.615  -0.151  0.00  0.00    +0.009 A 
ATOM     18  C   UNL     1       0.603   2.470  -0.293  0.00  0.00    +0.001 A 
ATOM     19  C   UNL     1       0.455   3.835  -0.054  0.00  0.00    +0.001 A 
ATOM     20  C   UNL     1      -0.744   4.353   0.329  0.00  0.00    +0.008 A 
ENDBRANCH   7  11
BRANCH   1  22
ATOM     21  N   UNL     1      -1.148   0.260   3.239  0.00  0.00    -0.281 N 
ATOM     22  C   UNL     1      -1.072  -0.489   2.122  0.00  0.00    +0.248 C 
ATOM     23  O   UNL     1       0.014  -0.833   1.691  0.00  0.00    -0.270 OA
ATOM     24  H   UNL     1      -2.129   0.526   3.658  0.00  0.00    +0.155 HD
BRANCH  21  30
ATOM     25  C   UNL     1       3.744   0.062   3.688  0.00  0.00    +0.044 C 
ATOM     26  C   UNL     1       2.407   0.620   4.104  0.00  0.00    -0.049 A 
ATOM     27  C   UNL     1       2.337   1.569   5.108  0.00  0.00    +0.004 A 
ATOM     28  C   UNL     1       1.113   2.084   5.493  0.00  0.00    +0.005 A 
ATOM     29  C   UNL     1      -0.044   1.655   4.872  0.00  0.00    -0.029 A 
ATOM     30  C   UNL     1       0.022   0.699   3.867  0.00  0.00    +0.037 A 
ATOM     31  C   UNL     1       1.254   0.184   3.483  0.00  0.00    +0.027 A 
ATOM     32  C   UNL     1      -1.377   2.221   5.288  0.00  0.00    +0.045 C 
ENDBRANCH  21  30
ENDBRANCH   1  22
TORSDOF 3
