REMARK  Name = ZINC06192211
REMARK  2 active torsions:
REMARK  status: ('A' for Active; 'I' for Inactive)
REMARK    1  A    between atoms: C_4  and  N_7
REMARK    2  A    between atoms: C_8  and  C_9
REMARK                            x       y       z     vdW  Elec       q    Type
REMARK                         _______ _______ _______ _____ _____    ______ ____
ROOT
ATOM      1  C   UNL     1       4.592  -1.646  -3.575  0.00  0.00    +0.121 A 
ATOM      2  C   UNL     1       4.111  -1.310  -4.854  0.00  0.00    +0.266 A 
ATOM      3  N   UNL     1       4.771  -1.765  -5.950  0.00  0.00    -0.274 N 
ATOM      4  C   UNL     1       5.871  -2.527  -5.823  0.00  0.00    +0.329 A 
ATOM      5  N   UNL     1       6.357  -2.867  -4.617  0.00  0.00    -0.274 N 
ATOM      6  C   UNL     1       5.750  -2.441  -3.479  0.00  0.00    +0.266 A 
ATOM      7  O   UNL     1       6.201  -2.749  -2.382  0.00  0.00    -0.267 OA
ATOM      8  O   UNL     1       6.440  -2.919  -6.823  0.00  0.00    -0.247 OA
ATOM      9  O   UNL     1       3.109  -0.616  -4.978  0.00  0.00    -0.267 OA
ATOM     10  H   UNL     1       4.445  -1.537  -6.835  0.00  0.00    +0.173 HD
ATOM     11  H   UNL     1       7.152  -3.418  -4.558  0.00  0.00    +0.173 HD
ENDROOT
BRANCH   1  13
ATOM     12  N   UNL     1       2.839  -0.440  -2.473  0.00  0.00    -0.287 NA
ATOM     13  C   UNL     1       3.906  -1.173  -2.368  0.00  0.00    +0.123 C 
BRANCH  12  17
ATOM     14  C   UNL     1      -0.019   1.526   0.010  0.00  0.00    +0.000 C 
ATOM     15  C   UNL     1       1.417   2.055  -0.000  0.00  0.00    +0.002 C 
ATOM     16  C   UNL     1       2.133   1.562  -1.259  0.00  0.00    +0.027 C 
ATOM     17  C   UNL     1       2.154   0.032  -1.268  0.00  0.00    +0.105 C 
ATOM     18  C   UNL     1       0.718  -0.497  -1.257  0.00  0.00    +0.027 C 
ATOM     19  C   UNL     1       0.002  -0.004   0.002  0.00  0.00    +0.002 C 
ENDBRANCH  12  17
ENDBRANCH   1  13
TORSDOF 2
