REMARK  Name = ZINC12387007
REMARK  6 active torsions:
REMARK  status: ('A' for Active; 'I' for Inactive)
REMARK    1  A    between atoms: C_1  and  C_2
REMARK    2  A    between atoms: C_2  and  C_3
REMARK    3  A    between atoms: C_2  and  N_4
REMARK    4  A    between atoms: C_6  and  C_9
REMARK    5  A    between atoms: C_23  and  C_24
REMARK    6  A    between atoms: C_23  and  N_60
REMARK                            x       y       z     vdW  Elec       q    Type
REMARK                         _______ _______ _______ _____ _____    ______ ____
ROOT
ATOM      1  C   UNL     1      -4.387   4.602  -1.364  0.00  0.00    +0.014 C 
ATOM      2  C   UNL     1      -4.747   4.931  -2.794  0.00  0.00    +0.011 A 
ATOM      3  C   UNL     1      -3.823   5.088  -3.769  0.00  0.00    -0.022 A 
ATOM      4  C   UNL     1      -4.537   5.390  -4.989  0.00  0.00    +0.003 A 
ATOM      5  C   UNL     1      -4.117   5.647  -6.298  0.00  0.00    +0.010 A 
ATOM      6  C   UNL     1      -5.096   5.903  -7.226  0.00  0.00    +0.001 A 
ATOM      7  C   UNL     1      -6.441   5.909  -6.894  0.00  0.00    +0.002 A 
ATOM      8  C   UNL     1      -6.885   5.657  -5.608  0.00  0.00    +0.026 A 
ATOM      9  C   UNL     1      -5.914   5.395  -4.644  0.00  0.00    +0.047 A 
ATOM     10  N   UNL     1      -6.001   5.113  -3.311  0.00  0.00    -0.359 N 
ATOM     11  H   UNL     1      -6.827   5.052  -2.806  0.00  0.00    +0.166 HD
ATOM     12  C   UNL     1      -2.339   4.956  -3.538  0.00  0.00    +0.019 C 
ATOM     13  C   UNL     1      -2.087   5.026  -2.025  0.00  0.00    -0.072 C 
ATOM     14  N   UNL     1      -3.000   4.079  -1.348  0.00  0.00    +0.391 N 
ATOM     15  H   UNL     1      -2.978   3.182  -1.847  0.00  0.00    -0.080 HD
ENDROOT
BRANCH   1  18
ATOM     16  N   UNL     1      -6.951   2.542   0.210  0.00  0.00    -0.269 N 
ATOM     17  C   UNL     1      -6.381   3.742  -0.028  0.00  0.00    +0.111 A 
ATOM     18  C   UNL     1      -5.316   3.539  -0.839  0.00  0.00    -0.018 A 
ATOM     19  C   UNL     1      -5.228   2.167  -1.098  0.00  0.00    +0.136 A 
ATOM     20  N   UNL     1      -6.207   1.569  -0.470  0.00  0.00    -0.179 NA
BRANCH  16  22
ATOM     21  C   UNL     1      -7.715   2.175   2.504  0.00  0.00    +0.032 C 
ATOM     22  C   UNL     1      -8.135   2.300   1.038  0.00  0.00    +0.101 C 
ATOM     23  C   UNL     1      -9.112   3.467   0.884  0.00  0.00    +0.032 C 
ENDBRANCH  16  22
ENDBRANCH   1  18
BRANCH  14  24
ATOM     24  C   UNL     1      -2.559   3.863   0.046  0.00  0.00    -0.041 C 
BRANCH  24  25
ATOM     25  C   UNL     1      -1.241   3.132   0.029  0.00  0.00    -0.060 A 
ATOM     26  C   UNL     1      -1.219   1.750   0.017  0.00  0.00    +0.005 A 
ATOM     27  C   UNL     1      -0.013   1.076   0.008  0.00  0.00    +0.049 A 
ATOM     28  C   UNL     1       1.179   1.785   0.000  0.00  0.00    +0.162 A 
ATOM     29  C   UNL     1       1.157   3.175   0.005  0.00  0.00    +0.162 A 
ATOM     30  C   UNL     1      -0.057   3.845   0.020  0.00  0.00    +0.051 A 
ATOM     31  O   UNL     1       2.315   3.890  -0.010  0.00  0.00    -0.485 OA
ATOM     32  C   UNL     1       3.509   3.189   0.355  0.00  0.00    +0.270 C 
ATOM     33  C   UNL     1       3.524   1.847  -0.390  0.00  0.00    +0.270 C 
ATOM     34  O   UNL     1       2.360   1.107  -0.006  0.00  0.00    -0.485 OA
ENDBRANCH  24  25
ENDBRANCH  14  24
TORSDOF 4
