REMARK  Name = ZINC09424550
REMARK  8 active torsions:
REMARK  status: ('A' for Active; 'I' for Inactive)
REMARK    1  A    between atoms: C_1  and  C_2
REMARK    2  A    between atoms: C_5  and  C_8
REMARK    3  A    between atoms: C_9  and  C_19
REMARK    4  A    between atoms: N_21  and  N_22
REMARK    5  A    between atoms: C_23  and  C_24
REMARK    6  A    between atoms: C_29  and  O_30
REMARK    7  A    between atoms: O_30  and  C_31
REMARK    8  A    between atoms: C_31  and  C_32
REMARK                            x       y       z     vdW  Elec       q    Type
REMARK                         _______ _______ _______ _____ _____    ______ ____
ROOT
ATOM      1  C   UNL     1      -3.771   7.198   0.077  0.00  0.00    +0.286 C 
ATOM      2  O   UNL     1      -2.724   7.818   0.071  0.00  0.00    -0.267 OA
ATOM      3  N   UNL     1      -3.756   5.851   0.070  0.00  0.00    -0.202 N 
ATOM      4  H   UNL     1      -4.591   5.357   0.075  0.00  0.00    +0.178 HD
ENDROOT
BRANCH   1   6
ATOM      5  C   UNL     1      -5.213   9.302   0.108  0.00  0.00    +0.109 A 
ATOM      6  C   UNL     1      -5.054   7.920   0.093  0.00  0.00    +0.177 A 
ATOM      7  N   UNL     1      -6.274   7.359   0.102  0.00  0.00    -0.124 NA
ATOM      8  N   UNL     1      -7.180   8.272   0.117  0.00  0.00    -0.058 NA
ATOM      9  N   UNL     1      -6.560   9.530   0.117  0.00  0.00    -0.187 N 
ATOM     10  C   UNL     1      -7.196  10.775   0.132  0.00  0.00    +0.241 A 
ATOM     11  C   UNL     1      -8.645  10.998   0.148  0.00  0.00    +0.206 A 
ATOM     12  N   UNL     1      -8.862  12.284   0.158  0.00  0.00    -0.032 NA
ATOM     13  O   UNL     1      -7.604  12.936   0.149  0.00  0.00    -0.239 OA
ATOM     14  N   UNL     1      -6.602  11.935   0.138  0.00  0.00    -0.027 NA
ATOM     15  N   UNL     1      -9.621  10.007   0.151  0.00  0.00    -0.337 N 
ATOM     16  H   UNL     1      -9.363   9.072   0.142  0.00  0.00    +0.144 HD
ATOM     17  H   UNL     1     -10.559  10.252   0.162  0.00  0.00    +0.144 HD
BRANCH   5  22
ATOM     18  C   UNL     1      -1.038  13.260   0.115  0.00  0.00    +0.044 C 
ATOM     19  C   UNL     1      -2.131  12.224   0.113  0.00  0.00    -0.050 A 
ATOM     20  C   UNL     1      -2.041  11.126   0.950  0.00  0.00    +0.004 A 
ATOM     21  C   UNL     1      -3.038  10.173   0.954  0.00  0.00    +0.010 A 
ATOM     22  C   UNL     1      -4.141  10.318   0.110  0.00  0.00    +0.003 A 
ATOM     23  C   UNL     1      -4.223  11.426  -0.736  0.00  0.00    +0.010 A 
ATOM     24  C   UNL     1      -3.222  12.374  -0.725  0.00  0.00    +0.004 A 
ENDBRANCH   5  22
ENDBRANCH   1   6
BRANCH   3  25
ATOM     25  N   UNL     1      -2.536   5.164   0.054  0.00  0.00    -0.187 NA
ATOM     26  C   UNL     1      -2.522   3.865   0.047  0.00  0.00    +0.142 C 
BRANCH  26  27
ATOM     27  C   UNL     1      -1.237   3.143   0.031  0.00  0.00    +0.036 A 
ATOM     28  C   UNL     1      -1.218   1.746   0.017  0.00  0.00    +0.013 A 
ATOM     29  C   UNL     1      -0.013   1.076   0.008  0.00  0.00    +0.001 A 
ATOM     30  C   UNL     1       1.179   1.781   0.000  0.00  0.00    +0.004 A 
ATOM     31  C   UNL     1       1.173   3.163   0.008  0.00  0.00    +0.046 A 
ATOM     32  C   UNL     1      -0.029   3.853   0.024  0.00  0.00    +0.130 A 
BRANCH  32  33
ATOM     33  O   UNL     1      -0.036   5.211   0.032  0.00  0.00    -0.487 OA
BRANCH  33  34
ATOM     34  C   UNL     1       1.234   5.866   0.024  0.00  0.00    +0.264 C 
BRANCH  34  35
ATOM     35  C   UNL     1       1.028   7.359   0.035  0.00  0.00    -0.010 A 
ATOM     36  C   UNL     1       0.929   8.051  -1.158  0.00  0.00    +0.010 A 
ATOM     37  C   UNL     1       0.736   9.420  -1.149  0.00  0.00    +0.039 A 
ATOM     38  C   UNL     1       0.653  10.099   0.055  0.00  0.00    +0.123 A 
ATOM     39  C   UNL     1       0.758   9.405   1.248  0.00  0.00    +0.039 A 
ATOM     40  C   UNL     1       0.946   8.036   1.237  0.00  0.00    +0.010 A 
ATOM     41  F   UNL     1       0.469  11.437   0.065  0.00  0.00    -0.205 F 
ENDBRANCH  34  35
ENDBRANCH  33  34
ENDBRANCH  32  33
ENDBRANCH  26  27
ENDBRANCH   3  25
TORSDOF 7
