REMARK  Name = ZINC43959694
REMARK  8 active torsions:
REMARK  status: ('A' for Active; 'I' for Inactive)
REMARK    1  A    between atoms: C_1  and  S_2
REMARK    2  A    between atoms: S_2  and  C_3
REMARK    3  A    between atoms: C_8  and  C_9
REMARK    4  A    between atoms: C_9  and  N_10
REMARK    5  A    between atoms: C_13  and  C_16
REMARK    6  A    between atoms: C_16  and  N_17
REMARK    7  A    between atoms: N_17  and  S_18
REMARK    8  A    between atoms: S_18  and  C_21
REMARK                            x       y       z     vdW  Elec       q    Type
REMARK                         _______ _______ _______ _____ _____    ______ ____
ROOT
ATOM      1  N   UNL     1      -0.916  -3.760   1.299  0.00  0.00    +0.382 N 
ATOM      2  C   UNL     1      -1.869  -4.385   2.225  0.00  0.00    -0.078 C 
ATOM      3  C   UNL     1      -1.298  -4.359   3.644  0.00  0.00    -0.014 C 
ATOM      4  C   UNL     1       0.025  -5.131   3.671  0.00  0.00    +0.001 C 
ATOM      5  C   UNL     1       0.984  -4.516   2.648  0.00  0.00    -0.014 C 
ATOM      6  C   UNL     1       0.329  -4.537   1.266  0.00  0.00    -0.078 C 
ATOM      7  H   UNL     1      -0.717  -2.821   1.608  0.00  0.00    -0.081 HD
ENDROOT
BRANCH   1   8
ATOM      8  C   UNL     1      -1.502  -3.718  -0.048  0.00  0.00    -0.042 C 
BRANCH   8  14
ATOM      9  C   UNL     1      -2.556  -1.441  -0.104  0.00  0.00    +0.009 A 
ATOM     10  C   UNL     1      -3.675  -0.617  -0.104  0.00  0.00    +0.015 A 
ATOM     11  C   UNL     1      -4.938  -1.171  -0.036  0.00  0.00    +0.001 A 
ATOM     12  C   UNL     1      -5.090  -2.545   0.031  0.00  0.00    +0.000 A 
ATOM     13  C   UNL     1      -3.978  -3.367   0.032  0.00  0.00    +0.003 A 
ATOM     14  C   UNL     1      -2.712  -2.820  -0.041  0.00  0.00    -0.051 A 
BRANCH   9  16
ATOM     15  C   UNL     1      -1.245   1.049  -0.253  0.00  0.00    +0.090 C 
ATOM     16  S   UNL     1      -0.942  -0.738  -0.190  0.00  0.00    -0.128 S 
ENDBRANCH   9  16
ENDBRANCH   8  14
ENDBRANCH   1   8
BRANCH   4  17
ATOM     17  C   UNL     1       0.641  -5.042   5.069  0.00  0.00    +0.109 C 
BRANCH  17  18
ATOM     18  N   UNL     1       1.843  -5.878   5.127  0.00  0.00    -0.190 NA
ATOM     19  H   UNL     1       2.003  -6.544   4.441  0.00  0.00    +0.148 HD
BRANCH  18  20
ATOM     20  S   UNL     1       2.927  -5.685   6.364  0.00  0.00    +0.059 S 
ATOM     21  O   UNL     1       3.949  -6.651   6.162  0.00  0.00    -0.153 OA
ATOM     22  O   UNL     1       3.200  -4.293   6.450  0.00  0.00    -0.153 OA
BRANCH  20  23
ATOM     23  C   UNL     1       2.100  -6.129   7.855  0.00  0.00    +0.119 A 
ATOM     24  C   UNL     1       1.886  -5.179   8.836  0.00  0.00    +0.029 A 
ATOM     25  C   UNL     1       1.237  -5.528  10.006  0.00  0.00    +0.002 A 
ATOM     26  C   UNL     1       0.802  -6.827  10.195  0.00  0.00    +0.001 A 
ATOM     27  C   UNL     1       1.016  -7.777   9.215  0.00  0.00    +0.017 A 
ATOM     28  C   UNL     1       1.661  -7.427   8.042  0.00  0.00    +0.044 A 
ATOM     29 BR   UNL     1       1.947  -8.725   6.697  0.00  0.00    -0.048 Br
ENDBRANCH  20  23
ENDBRANCH  18  20
ENDBRANCH  17  18
ENDBRANCH   4  17
TORSDOF 7
