REMARK  Name = ZINC16072375
REMARK  6 active torsions:
REMARK  status: ('A' for Active; 'I' for Inactive)
REMARK    1  A    between atoms: C_1  and  C_2
REMARK    2  A    between atoms: C_2  and  C_4
REMARK    3  A    between atoms: C_2  and  O_18
REMARK    4  A    between atoms: N_6  and  N_7
REMARK    5  A    between atoms: C_8  and  C_10
REMARK    6  A    between atoms: O_18  and  C_19
REMARK                            x       y       z     vdW  Elec       q    Type
REMARK                         _______ _______ _______ _____ _____    ______ ____
ROOT
ATOM      1  C   UNL     1      -1.328   6.202  -0.119  0.00  0.00    +0.270 C 
ATOM      2  O   UNL     1      -2.396   5.662   0.079  0.00  0.00    -0.270 OA
ATOM      3  N   UNL     1      -0.221   5.456  -0.307  0.00  0.00    -0.231 N 
ATOM      4  H   UNL     1       0.633   5.887  -0.466  0.00  0.00    +0.173 HD
ENDROOT
BRANCH   3   5
ATOM      5  N   UNL     1      -0.305   4.058  -0.274  0.00  0.00    -0.230 N 
ATOM      6  C   UNL     1       0.802   3.312  -0.462  0.00  0.00    +0.262 C 
ATOM      7  O   UNL     1       1.873   3.852  -0.661  0.00  0.00    -0.269 OA
ATOM      8  H   UNL     1      -1.159   3.626  -0.115  0.00  0.00    +0.173 HD
BRANCH   6   9
ATOM      9  C   UNL     1       0.714   1.837  -0.427  0.00  0.00    +0.058 A 
ATOM     10  C   UNL     1      -0.514   1.213  -0.199  0.00  0.00    +0.014 A 
ATOM     11  C   UNL     1      -0.591  -0.163  -0.167  0.00  0.00    +0.002 A 
ATOM     12  C   UNL     1       0.547  -0.928  -0.360  0.00  0.00    +0.021 A 
ATOM     13  C   UNL     1       1.768  -0.318  -0.587  0.00  0.00    +0.060 A 
ATOM     14  C   UNL     1       1.859   1.061  -0.621  0.00  0.00    +0.071 A 
ATOM     15 CL   UNL     1       3.391   1.826  -0.906  0.00  0.00    -0.081 Cl
ATOM     16 CL   UNL     1       3.189  -1.286  -0.828  0.00  0.00    -0.082 Cl
ENDBRANCH   6   9
ENDBRANCH   3   5
BRANCH   1  18
ATOM     17  C   UNL     1      -0.379   8.193   1.013  0.00  0.00    +0.062 C 
ATOM     18  C   UNL     1      -1.238   7.705  -0.155  0.00  0.00    +0.257 C 
BRANCH  18  19
ATOM     19  O   UNL     1      -2.549   8.264  -0.047  0.00  0.00    -0.477 OA
BRANCH  19  20
ATOM     20  C   UNL     1      -2.736   9.506  -0.567  0.00  0.00    +0.157 A 
ATOM     21  C   UNL     1      -1.657  10.219  -1.066  0.00  0.00    +0.048 A 
ATOM     22  C   UNL     1      -1.849  11.481  -1.595  0.00  0.00    +0.004 A 
ATOM     23  C   UNL     1      -3.116  12.034  -1.628  0.00  0.00    +0.003 A 
ATOM     24  C   UNL     1      -4.195  11.326  -1.132  0.00  0.00    +0.042 A 
ATOM     25  C   UNL     1      -4.009  10.060  -0.605  0.00  0.00    +0.165 A 
ATOM     26  F   UNL     1      -5.064   9.366  -0.124  0.00  0.00    -0.202 F 
ENDBRANCH  19  20
ENDBRANCH  18  19
ENDBRANCH   1  18
TORSDOF 5
