REMARK  Name = ZINC04663742
REMARK  6 active torsions:
REMARK  status: ('A' for Active; 'I' for Inactive)
REMARK    1  A    between atoms: C_4  and  N_9
REMARK    2  A    between atoms: C_5  and  C_7
REMARK    3  A    between atoms: N_9  and  C_10
REMARK    4  A    between atoms: C_16  and  N_18
REMARK    5  A    between atoms: N_18  and  C_19
REMARK    6  A    between atoms: C_24  and  C_25
REMARK                            x       y       z     vdW  Elec       q    Type
REMARK                         _______ _______ _______ _____ _____    ______ ____
ROOT
ATOM      1  C   UNL     1      -0.082   2.263  -0.906  0.00  0.00    +0.121 C 
ATOM      2  C   UNL     1       0.042   2.929   0.442  0.00  0.00    +0.001 C 
ATOM      3  C   UNL     1      -1.092   2.822   1.119  0.00  0.00    +0.046 C 
ATOM      4  C   UNL     1      -2.116   2.101   0.372  0.00  0.00    +0.178 C 
ATOM      5  O   UNL     1      -3.243   1.859   0.750  0.00  0.00    -0.291 OA
ATOM      6  C   UNL     1      -1.516   1.709  -0.962  0.00  0.00    +0.165 C 
ENDROOT
BRANCH   1   7
ATOM      7  N   UNL     1       0.888   1.171  -1.023  0.00  0.00    -0.335 N 
ATOM      8  H   UNL     1       0.639   0.271  -0.760  0.00  0.00    +0.147 HD
BRANCH   7  12
ATOM      9  C   UNL     1       4.715   1.935  -2.483  0.00  0.00    +0.001 A 
ATOM     10  C   UNL     1       3.757   2.937  -2.475  0.00  0.00    +0.002 A 
ATOM     11  C   UNL     1       2.489   2.687  -1.992  0.00  0.00    +0.024 A 
ATOM     12  C   UNL     1       2.163   1.425  -1.510  0.00  0.00    +0.042 A 
ATOM     13  C   UNL     1       3.133   0.410  -1.511  0.00  0.00    +0.084 A 
ATOM     14  C   UNL     1       4.412   0.678  -2.010  0.00  0.00    +0.017 A 
BRANCH  13  15
ATOM     15  C   UNL     1       2.804  -0.930  -0.997  0.00  0.00    +0.388 C 
ATOM     16  O   UNL     1       1.665  -1.190  -0.664  0.00  0.00    -0.241 OA
ATOM     17  O   UNL     1       3.767  -1.868  -0.895  0.00  0.00    -0.241 OA
ENDBRANCH  13  15
ENDBRANCH   7  12
ENDBRANCH   1   7
BRANCH   6  18
ATOM     18  N   UNL     1      -2.261   2.323  -2.063  0.00  0.00    -0.332 N 
ATOM     19  H   UNL     1      -1.987   3.185  -2.413  0.00  0.00    +0.147 HD
BRANCH  18  20
ATOM     20  C   UNL     1      -3.360   1.671  -2.607  0.00  0.00    +0.042 A 
ATOM     21  C   UNL     1      -3.828   0.495  -2.034  0.00  0.00    +0.024 A 
ATOM     22  C   UNL     1      -4.920  -0.150  -2.576  0.00  0.00    +0.002 A 
ATOM     23  C   UNL     1      -5.559   0.366  -3.693  0.00  0.00    +0.001 A 
ATOM     24  C   UNL     1      -5.110   1.531  -4.275  0.00  0.00    +0.017 A 
ATOM     25  C   UNL     1      -4.008   2.201  -3.734  0.00  0.00    +0.084 A 
BRANCH  25  26
ATOM     26  C   UNL     1      -3.527   3.450  -4.347  0.00  0.00    +0.388 C 
ATOM     27  O   UNL     1      -2.637   4.085  -3.816  0.00  0.00    -0.241 OA
ATOM     28  O   UNL     1      -4.073   3.891  -5.498  0.00  0.00    -0.241 OA
ENDBRANCH  25  26
ENDBRANCH  18  20
ENDBRANCH   6  18
TORSDOF 6
