REMARK  Name = ZINC39684471
REMARK  10 active torsions:
REMARK  status: ('A' for Active; 'I' for Inactive)
REMARK    1  A    between atoms: C_1  and  C_2
REMARK    2  A    between atoms: C_3  and  C_15
REMARK    3  A    between atoms: C_4  and  C_7
REMARK    4  A    between atoms: C_19  and  C_28
REMARK    5  A    between atoms: N_30  and  C_31
REMARK    6  A    between atoms: C_31  and  C_33
REMARK    7  A    between atoms: C_31  and  C_34
REMARK    8  A    between atoms: C_34  and  C_35
REMARK    9  A    between atoms: C_34  and  C_36
REMARK   10  A    between atoms: C_34  and  C_37
REMARK                            x       y       z     vdW  Elec       q    Type
REMARK                         _______ _______ _______ _____ _____    ______ ____
ROOT
ATOM      1  C   UNL     1      -2.217  -0.426   0.522  0.00  0.00    +0.252 C 
ATOM      2  O   UNL     1      -2.946  -0.216  -0.429  0.00  0.00    -0.270 OA
ATOM      3  N   UNL     1      -2.719  -0.414   1.772  0.00  0.00    -0.296 N 
ATOM      4  C   UNL     1      -1.994  -0.639   3.045  0.00  0.00    +0.121 C 
ATOM      5  C   UNL     1      -2.609   0.380   4.030  0.00  0.00    +0.100 C 
ATOM      6  C   UNL     1      -4.006   0.681   3.462  0.00  0.00    -0.004 C 
ATOM      7  C   UNL     1      -4.121  -0.165   2.186  0.00  0.00    +0.115 C 
ATOM      8  C   UNL     1      -5.082   0.276   4.465  0.00  0.00    -0.010 C 
ATOM      9  C   UNL     1      -6.459   0.639   3.902  0.00  0.00    -0.082 C 
ATOM     10  N   UNL     1      -6.520   2.083   3.644  0.00  0.00    +0.379 N 
ATOM     11  C   UNL     1      -5.544   2.449   2.611  0.00  0.00    -0.082 C 
ATOM     12  C   UNL     1      -4.128   2.163   3.119  0.00  0.00    -0.010 C 
ATOM     13  H   UNL     1      -7.447   2.329   3.332  0.00  0.00    -0.086 HD
ATOM     14  H   UNL     1      -6.311   2.584   4.495  0.00  0.00    -0.086 HD
ENDROOT
BRANCH   1  17
ATOM     15  C   UNL     1       0.055   1.718   0.426  0.00  0.00    +0.090 C 
ATOM     16  C   UNL     1       0.218   0.229   0.262  0.00  0.00    +0.147 A 
ATOM     17  C   UNL     1      -0.785  -0.694   0.306  0.00  0.00    +0.106 A 
ATOM     18  C   UNL     1      -0.160  -2.010   0.097  0.00  0.00    +0.130 A 
ATOM     19  N   UNL     1       1.123  -1.801  -0.053  0.00  0.00    -0.077 NA
ATOM     20  O   UNL     1       1.369  -0.412   0.042  0.00  0.00    -0.359 OA
BRANCH  18  21
ATOM     21  C   UNL     1      -0.852  -3.320   0.064  0.00  0.00    +0.058 A 
ATOM     22  C   UNL     1      -1.961  -3.507  -0.764  0.00  0.00    +0.134 A 
ATOM     23  C   UNL     1      -2.601  -4.732  -0.791  0.00  0.00    +0.039 A 
ATOM     24  C   UNL     1      -2.145  -5.770   0.001  0.00  0.00    +0.004 A 
ATOM     25  C   UNL     1      -1.048  -5.591   0.823  0.00  0.00    +0.021 A 
ATOM     26  C   UNL     1      -0.395  -4.374   0.855  0.00  0.00    +0.053 A 
ATOM     27 CL   UNL     1       0.987  -4.154   1.882  0.00  0.00    -0.083 Cl
ATOM     28  F   UNL     1      -2.407  -2.493  -1.538  0.00  0.00    -0.205 F 
ENDBRANCH  18  21
ENDBRANCH   1  17
BRANCH   5  29
ATOM     29  C   UNL     1      -2.718  -0.223   5.407  0.00  0.00    +0.218 C 
ATOM     30  O   UNL     1      -2.905  -1.414   5.535  0.00  0.00    -0.275 OA
ATOM     31  N   UNL     1      -2.608   0.562   6.497  0.00  0.00    -0.312 N 
ATOM     32  H   UNL     1      -2.458   1.515   6.395  0.00  0.00    +0.149 HD
BRANCH  31  33
ATOM     33  C   UNL     1      -2.714  -0.023   7.836  0.00  0.00    +0.075 C 
ATOM     34  C   UNL     1      -1.349  -0.562   8.267  0.00  0.00    +0.028 C 
BRANCH  33  35
ATOM     35  C   UNL     1      -3.175   1.048   8.826  0.00  0.00    -0.020 C 
ATOM     36  C   UNL     1      -4.541   1.587   8.395  0.00  0.00    +0.012 C 
ATOM     37  C   UNL     1      -3.287   0.436  10.224  0.00  0.00    +0.012 C 
ATOM     38  C   UNL     1      -2.160   2.192   8.849  0.00  0.00    +0.012 C 
ENDBRANCH  33  35
ENDBRANCH  31  33
ENDBRANCH   5  29
TORSDOF 5
