REMARK  Name = ZINC42159753
REMARK  7 active torsions:
REMARK  status: ('A' for Active; 'I' for Inactive)
REMARK    1  A    between atoms: C_1  and  C_2
REMARK    2  A    between atoms: C_2  and  C_3
REMARK    3  A    between atoms: C_2  and  C_4
REMARK    4  A    between atoms: C_2  and  N_23
REMARK    5  A    between atoms: C_4  and  N_5
REMARK    6  A    between atoms: C_6  and  C_8
REMARK    7  A    between atoms: N_10  and  C_15
REMARK                            x       y       z     vdW  Elec       q    Type
REMARK                         _______ _______ _______ _____ _____    ______ ____
ROOT
ATOM      1  N   UNL     1      -1.390  -1.964  -0.383  0.00  0.00    -0.312 N 
ATOM      2  C   UNL     1      -2.527  -2.627  -0.672  0.00  0.00    +0.260 C 
ATOM      3  O   UNL     1      -3.577  -2.021  -0.769  0.00  0.00    -0.269 OA
ATOM      4  H   UNL     1      -0.553  -2.447  -0.306  0.00  0.00    +0.149 HD
ENDROOT
BRANCH   2   5
ATOM      5  C   UNL     1      -2.498  -4.081  -0.870  0.00  0.00    +0.121 C 
ATOM      6  N   UNL     1      -1.375  -4.719  -0.760  0.00  0.00    -0.177 NA
ATOM      7  N   UNL     1      -1.309  -6.104  -0.943  0.00  0.00    -0.188 N 
ATOM      8  C   UNL     1      -2.290  -6.752  -1.601  0.00  0.00    +0.235 C 
ATOM      9  O   UNL     1      -2.225  -7.952  -1.761  0.00  0.00    -0.274 OA
ATOM     10  C   UNL     1      -3.469  -5.980  -2.137  0.00  0.00    +0.104 C 
ATOM     11  C   UNL     1      -3.775  -4.812  -1.192  0.00  0.00    +0.071 C 
BRANCH   7  12
ATOM     12  C   UNL     1      -0.166  -6.854  -0.418  0.00  0.00    +0.124 C 
ATOM     13  C   UNL     1      -0.067  -6.652   1.103  0.00  0.00    +0.049 C 
ATOM     14  C   UNL     1       1.300  -7.166   1.616  0.00  0.00    +0.168 C 
ATOM     15  S   UNL     1       2.390  -6.947   0.151  0.00  0.00    -0.029 S 
ATOM     16  O   UNL     1       3.326  -5.912   0.422  0.00  0.00    -0.174 OA
ATOM     17  O   UNL     1       2.858  -8.220  -0.272  0.00  0.00    -0.174 OA
ATOM     18  C   UNL     1       1.149  -6.329  -1.062  0.00  0.00    +0.190 C 
ENDBRANCH   7  12
ENDBRANCH   2   5
BRANCH   1  19
ATOM     19  C   UNL     1      -1.419  -0.512  -0.186  0.00  0.00    +0.092 C 
BRANCH  19  21
ATOM     20  C   UNL     1       0.812  -0.206  -1.269  0.00  0.00    -0.008 C 
ATOM     21  C   UNL     1       0.008   0.003   0.015  0.00  0.00    -0.055 C 
ATOM     22  C   UNL     1      -0.032   1.495   0.354  0.00  0.00    -0.008 C 
BRANCH  21  23
ATOM     23  N   UNL     1       0.643  -0.733   1.117  0.00  0.00    +0.384 N 
ATOM     24  C   UNL     1      -0.155  -0.569   2.337  0.00  0.00    -0.078 C 
ATOM     25  C   UNL     1       0.459  -1.399   3.467  0.00  0.00    -0.019 C 
ATOM     26  C   UNL     1       1.891  -0.922   3.724  0.00  0.00    -0.004 C 
ATOM     27  C   UNL     1       2.694  -1.027   2.425  0.00  0.00    -0.019 C 
ATOM     28  C   UNL     1       1.998  -0.211   1.333  0.00  0.00    -0.078 C 
ATOM     29  H   UNL     1       0.695  -1.712   0.880  0.00  0.00    -0.081 HD
ENDBRANCH  21  23
ENDBRANCH  19  21
ENDBRANCH   1  19
TORSDOF 5
