REMARK  Name = ZINC08695680
REMARK  12 active torsions:
REMARK  status: ('A' for Active; 'I' for Inactive)
REMARK    1  A    between atoms: C_1  and  N_2
REMARK    2  A    between atoms: N_2  and  C_3
REMARK    3  A    between atoms: N_2  and  C_4
REMARK    4  A    between atoms: C_7  and  N_10
REMARK    5  A    between atoms: C_11  and  C_13
REMARK    6  A    between atoms: C_13  and  C_15
REMARK    7  A    between atoms: C_13  and  N_22
REMARK    8  A    between atoms: N_22  and  C_23
REMARK    9  A    between atoms: C_23  and  C_24
REMARK   10  A    between atoms: C_26  and  C_29
REMARK   11  A    between atoms: C_35  and  C_37
REMARK   12  A    between atoms: C_37  and  N_38
REMARK                            x       y       z     vdW  Elec       q    Type
REMARK                         _______ _______ _______ _____ _____    ______ ____
ROOT
ATOM      1  N   UNL     1       4.352   6.147  -1.810  0.00  0.00    -0.282 N 
ATOM      2  C   UNL     1       3.943   5.184  -0.961  0.00  0.00    +0.234 C 
ATOM      3  O   UNL     1       3.704   4.070  -1.377  0.00  0.00    -0.274 OA
ENDROOT
BRANCH   1   4
ATOM      4  C   UNL     1       4.615   5.822  -3.215  0.00  0.00    +0.166 C 
BRANCH   4   5
ATOM      5  C   UNL     1       5.617   4.668  -3.292  0.00  0.00    +0.023 C 
ATOM      6  C   UNL     1       6.918   5.067  -2.585  0.00  0.00    +0.010 C 
ATOM      7  C   UNL     1       7.831   3.840  -2.522  0.00  0.00    +0.027 C 
ATOM      8  C   UNL     1       7.930   3.199  -3.875  0.00  0.00    -0.031 C 
ATOM      9  C   UNL     1       7.104   3.423  -4.846  0.00  0.00    -0.031 C 
ATOM     10  C   UNL     1       5.932   4.358  -4.757  0.00  0.00    +0.032 C 
ENDBRANCH   4   5
BRANCH   4  12
ATOM     11  N   UNL     1       3.279   5.288  -5.226  0.00  0.00    -0.284 N 
ATOM     12  C   UNL     1       3.328   5.416  -3.886  0.00  0.00    +0.238 C 
ATOM     13  O   UNL     1       2.337   5.203  -3.219  0.00  0.00    -0.273 OA
ATOM     14  H   UNL     1       4.087   5.389  -5.753  0.00  0.00    +0.155 HD
BRANCH  11  18
ATOM     15  C   UNL     1      -0.351   4.464  -7.109  0.00  0.00    +0.029 A 
ATOM     16  C   UNL     1      -0.058   3.884  -5.882  0.00  0.00    +0.025 A 
ATOM     17  C   UNL     1       1.144   4.157  -5.259  0.00  0.00    +0.025 A 
ATOM     18  C   UNL     1       2.059   5.011  -5.859  0.00  0.00    +0.034 A 
ATOM     19  C   UNL     1       1.764   5.595  -7.084  0.00  0.00    +0.025 A 
ATOM     20  C   UNL     1       0.565   5.318  -7.710  0.00  0.00    +0.025 A 
BRANCH  15  22
ATOM     21  C   UNL     1      -2.534   3.287  -7.106  0.00  0.00    +0.129 C 
ATOM     22  N   UNL     1      -1.568   4.188  -7.740  0.00  0.00    -0.336 N 
ATOM     23  C   UNL     1      -1.877   4.799  -9.035  0.00  0.00    +0.129 C 
ENDBRANCH  15  22
ENDBRANCH  11  18
ENDBRANCH   4  12
ENDBRANCH   1   4
BRANCH   1  24
ATOM     24  C   UNL     1       4.534   7.518  -1.330  0.00  0.00    +0.171 C 
BRANCH  24  25
ATOM     25  C   UNL     1       5.949   7.697  -0.844  0.00  0.00    +0.096 A 
ATOM     26  N   UNL     1       7.006   8.079  -1.518  0.00  0.00    -0.242 NA
ATOM     27  C   UNL     1       8.192   8.191  -0.939  0.00  0.00    +0.078 A 
ATOM     28  C   UNL     1       8.287   7.883   0.392  0.00  0.00    +0.075 A 
ATOM     29  S   UNL     1       6.593   7.440   0.748  0.00  0.00    -0.078 S 
BRANCH  27  30
ATOM     30  C   UNL     1       9.381   8.630  -1.709  0.00  0.00    +0.001 A 
ATOM     31  C   UNL     1       9.245   9.033  -3.037  0.00  0.00    +0.010 A 
ATOM     32  C   UNL     1      10.354   9.446  -3.747  0.00  0.00    +0.001 A 
ATOM     33  C   UNL     1      11.601   9.450  -3.147  0.00  0.00    +0.000 A 
ATOM     34  C   UNL     1      11.742   9.047  -1.831  0.00  0.00    +0.001 A 
ATOM     35  C   UNL     1      10.639   8.637  -1.110  0.00  0.00    +0.010 A 
ENDBRANCH  27  30
ENDBRANCH  24  25
ENDBRANCH   1  24
BRANCH   2  36
ATOM     36  C   UNL     1       3.782   5.491   0.505  0.00  0.00    +0.210 C 
BRANCH  36  37
ATOM     37  N   UNL     1       3.330   4.288   1.210  0.00  0.00    -0.255 N 
ATOM     38  C   UNL     1       1.993   3.947   1.403  0.00  0.00    +0.048 A 
ATOM     39  C   UNL     1       0.819   4.585   1.022  0.00  0.00    +0.024 A 
ATOM     40  C   UNL     1      -0.407   4.031   1.341  0.00  0.00    +0.002 A 
ATOM     41  C   UNL     1      -0.484   2.838   2.041  0.00  0.00    +0.001 A 
ATOM     42  C   UNL     1       0.670   2.188   2.428  0.00  0.00    +0.014 A 
ATOM     43  C   UNL     1       1.913   2.738   2.112  0.00  0.00    +0.048 A 
ATOM     44  C   UNL     1       3.299   2.308   2.371  0.00  0.00    +0.250 C 
ATOM     45  O   UNL     1       3.668   1.312   2.958  0.00  0.00    -0.282 OA
ATOM     46  C   UNL     1       4.154   3.373   1.750  0.00  0.00    +0.292 C 
ATOM     47  O   UNL     1       5.366   3.404   1.739  0.00  0.00    -0.266 OA
ENDBRANCH  36  37
ENDBRANCH   2  36
TORSDOF 10
