REMARK  Name = ZINC39482485
REMARK  7 active torsions:
REMARK  status: ('A' for Active; 'I' for Inactive)
REMARK    1  A    between atoms: C_4  and  C_7
REMARK    2  A    between atoms: C_7  and  S_8
REMARK    3  A    between atoms: S_8  and  N_11
REMARK    4  A    between atoms: N_11  and  C_12
REMARK    5  A    between atoms: C_15  and  C_26
REMARK    6  A    between atoms: C_17  and  N_18
REMARK    7  A    between atoms: C_31  and  O_32
REMARK                            x       y       z     vdW  Elec       q    Type
REMARK                         _______ _______ _______ _____ _____    ______ ____
ROOT
ATOM      1  C   UNL     1       6.768  -1.213   0.846  0.00  0.00    +0.069 A 
ATOM      2  C   UNL     1       7.027   0.138   1.029  0.00  0.00    +0.027 A 
ATOM      3  C   UNL     1       8.083   0.736   0.371  0.00  0.00    +0.010 A 
ATOM      4  C   UNL     1       8.892  -0.017  -0.479  0.00  0.00    -0.013 A 
ATOM      5  C   UNL     1       8.634  -1.374  -0.664  0.00  0.00    +0.033 A 
ATOM      6  C   UNL     1       7.578  -1.972   0.001  0.00  0.00    +0.053 A 
ENDROOT
BRANCH   6   7
ATOM      7  N   UNL     1       7.320  -3.337  -0.179  0.00  0.00    -0.325 N 
ATOM      8  C   UNL     1       6.426  -3.801  -1.251  0.00  0.00    +0.120 C 
ATOM      9  C   UNL     1       5.382  -4.742  -0.641  0.00  0.00    +0.101 C 
ATOM     10  N   UNL     1       6.064  -5.808   0.105  0.00  0.00    -0.302 NA
ATOM     11  C   UNL     1       6.831  -5.263   1.233  0.00  0.00    +0.139 C 
ATOM     12  C   UNL     1       7.939  -4.344   0.696  0.00  0.00    +0.135 C 
ATOM     13 BR   UNL     1       7.640  -6.738   2.250  0.00  0.00    -0.070 Br
ATOM     14  H   UNL     1       5.408  -6.508   0.418  0.00  0.00    +0.123 HD
ENDBRANCH   6   7
BRANCH   4  15
ATOM     15  C   UNL     1      10.027   0.627  -1.185  0.00  0.00    +0.024 A 
ATOM     16  C   UNL     1      11.293   0.048  -1.147  0.00  0.00    +0.012 A 
ATOM     17  C   UNL     1      12.346   0.651  -1.806  0.00  0.00    +0.001 A 
ATOM     18  C   UNL     1      12.147   1.829  -2.505  0.00  0.00    +0.004 A 
ATOM     19  C   UNL     1      10.895   2.411  -2.549  0.00  0.00    +0.046 A 
ATOM     20  C   UNL     1       9.828   1.814  -1.897  0.00  0.00    +0.125 A 
BRANCH  20  21
ATOM     21  O   UNL     1       8.595   2.382  -1.945  0.00  0.00    -0.506 OA
ATOM     22  H   UNL     1       8.425   3.013  -1.232  0.00  0.00    +0.292 HD
ENDBRANCH  20  21
ENDBRANCH   4  15
BRANCH   1  23
ATOM     23  N   UNL     1       5.696  -1.816   1.514  0.00  0.00    -0.219 N 
ATOM     24  H   UNL     1       5.773  -2.731   1.828  0.00  0.00    +0.173 HD
BRANCH  23  25
ATOM     25  S   UNL     1       4.297  -0.968   1.770  0.00  0.00    +0.047 S 
ATOM     26  O   UNL     1       4.704   0.203   2.464  0.00  0.00    -0.155 OA
ATOM     27  O   UNL     1       3.414  -1.900   2.378  0.00  0.00    -0.155 OA
BRANCH  25  28
ATOM     28  C   UNL     1       3.704  -0.536   0.111  0.00  0.00    +0.223 C 
BRANCH  28  32
ATOM     29  C   UNL     1       0.067   1.683   0.429  0.00  0.00    +0.000 A 
ATOM     30  C   UNL     1       1.282   2.343   0.420  0.00  0.00    +0.000 A 
ATOM     31  C   UNL     1       2.458   1.625   0.317  0.00  0.00    +0.005 A 
ATOM     32  C   UNL     1       2.421   0.247   0.224  0.00  0.00    -0.025 A 
ATOM     33  C   UNL     1       1.207  -0.414   0.233  0.00  0.00    +0.005 A 
ATOM     34  C   UNL     1       0.030   0.304   0.335  0.00  0.00    +0.000 A 
ENDBRANCH  28  32
ENDBRANCH  25  28
ENDBRANCH  23  25
ENDBRANCH   1  23
TORSDOF 7
