REMARK  Name = ZINC31760970
REMARK  8 active torsions:
REMARK  status: ('A' for Active; 'I' for Inactive)
REMARK    1  A    between atoms: C_1  and  C_2
REMARK    2  A    between atoms: C_2  and  O_3
REMARK    3  A    between atoms: O_3  and  C_4
REMARK    4  A    between atoms: C_4  and  C_6
REMARK    5  A    between atoms: C_7  and  C_21
REMARK    6  A    between atoms: C_12  and  C_14
REMARK    7  A    between atoms: C_21  and  N_22
REMARK    8  A    between atoms: C_26  and  C_28
REMARK                            x       y       z     vdW  Elec       q    Type
REMARK                         _______ _______ _______ _____ _____    ______ ____
ROOT
ATOM      1  C   UNL     1       1.572  -2.364   2.369  0.00  0.00    +0.080 C 
ATOM      2  C   UNL     1       1.513  -3.685   2.645  0.00  0.00    +0.046 C 
ATOM      3  N   UNL     1       2.062  -4.191   3.788  0.00  0.00    -0.271 N 
ATOM      4  C   UNL     1       2.686  -3.443   4.707  0.00  0.00    +0.304 C 
ATOM      5  O   UNL     1       3.143  -3.984   5.694  0.00  0.00    -0.252 OA
ATOM      6  N   UNL     1       2.825  -2.109   4.571  0.00  0.00    -0.288 N 
ATOM      7  C   UNL     1       2.273  -1.465   3.367  0.00  0.00    +0.144 C 
ATOM      8  H   UNL     1       1.995  -5.146   3.945  0.00  0.00    +0.156 HD
ATOM      9  H   UNL     1       3.281  -1.586   5.249  0.00  0.00    +0.151 HD
ENDROOT
BRANCH   7  10
ATOM     10  C   UNL     1       3.398  -0.764   2.652  0.00  0.00    -0.022 A 
ATOM     11  C   UNL     1       4.591  -1.425   2.425  0.00  0.00    +0.007 A 
ATOM     12  C   UNL     1       5.624  -0.782   1.769  0.00  0.00    +0.020 A 
ATOM     13  C   UNL     1       5.463   0.523   1.339  0.00  0.00    +0.041 A 
ATOM     14  C   UNL     1       4.269   1.184   1.566  0.00  0.00    +0.020 A 
ATOM     15  C   UNL     1       3.235   0.538   2.217  0.00  0.00    +0.007 A 
ATOM     16 CL   UNL     1       6.760   1.331   0.515  0.00  0.00    -0.084 Cl
ENDBRANCH   7  10
BRANCH   1  17
ATOM     17  C   UNL     1       1.005  -1.839   1.184  0.00  0.00    +0.339 C 
ATOM     18  O   UNL     1      -0.075  -1.280   1.223  0.00  0.00    -0.245 OA
BRANCH  17  19
ATOM     19  O   UNL     1       1.661  -1.958   0.011  0.00  0.00    -0.462 OA
BRANCH  19  21
ATOM     20  C   UNL     1       1.917  -1.633  -2.370  0.00  0.00    +0.048 C 
ATOM     21  C   UNL     1       1.030  -1.404  -1.145  0.00  0.00    +0.229 C 
ENDBRANCH  19  21
ENDBRANCH  17  19
ENDBRANCH   1  17
BRANCH   2  22
ATOM     22  C   UNL     1       0.830  -4.615   1.676  0.00  0.00    +0.202 C 
BRANCH  22  23
ATOM     23  N   UNL     1       1.818  -5.532   1.101  0.00  0.00    -0.189 N 
ATOM     24  C   UNL     1       2.171  -6.740   1.587  0.00  0.00    +0.439 A 
ATOM     25  O   UNL     1       1.726  -7.272   2.587  0.00  0.00    -0.221 OA
ATOM     26  O   UNL     1       3.103  -7.250   0.764  0.00  0.00    -0.387 OA
ATOM     27  C   UNL     1       3.335  -6.369  -0.233  0.00  0.00    +0.256 A 
ATOM     28  N   UNL     1       2.572  -5.325  -0.064  0.00  0.00    -0.126 NA
BRANCH  27  29
ATOM     29  C   UNL     1       4.290  -6.559  -1.337  0.00  0.00    +0.076 A 
ATOM     30  C   UNL     1       5.115  -7.625  -1.592  0.00  0.00    +0.021 A 
ATOM     31  C   UNL     1       5.932  -7.578  -2.699  0.00  0.00    +0.008 A 
ATOM     32  C   UNL     1       5.898  -6.482  -3.502  0.00  0.00    +0.046 A 
ATOM     33  S   UNL     1       4.671  -5.466  -2.696  0.00  0.00    -0.092 S 
ENDBRANCH  27  29
ENDBRANCH  22  23
ENDBRANCH   2  22
TORSDOF 7
