REMARK  Name = ZINC36215940
REMARK  10 active torsions:
REMARK  status: ('A' for Active; 'I' for Inactive)
REMARK    1  A    between atoms: C_1  and  C_2
REMARK    2  A    between atoms: C_2  and  C_3
REMARK    3  A    between atoms: C_2  and  C_4
REMARK    4  A    between atoms: N_6  and  C_7
REMARK    5  A    between atoms: C_10  and  C_13
REMARK    6  A    between atoms: C_15  and  C_28
REMARK    7  A    between atoms: N_17  and  C_21
REMARK    8  A    between atoms: C_21  and  C_22
REMARK    9  A    between atoms: N_30  and  C_31
REMARK   10  A    between atoms: C_31  and  C_32
REMARK                            x       y       z     vdW  Elec       q    Type
REMARK                         _______ _______ _______ _____ _____    ______ ____
ROOT
ATOM      1  C   UNL     1       4.316  -1.789  -6.381  0.00  0.00    +0.238 C 
ATOM      2  C   UNL     1       5.143  -3.077  -6.156  0.00  0.00    +0.210 C 
ATOM      3  N   UNL     1       6.316  -2.851  -7.024  0.00  0.00    -0.248 N 
ATOM      4  C   UNL     1       6.331  -1.547  -7.360  0.00  0.00    +0.405 C 
ATOM      5  O   UNL     1       7.164  -1.052  -8.094  0.00  0.00    -0.226 OA
ATOM      6  O   UNL     1       5.327  -0.852  -6.800  0.00  0.00    -0.440 OA
ENDROOT
BRANCH   1  10
ATOM      7  C   UNL     1       2.461  -0.513  -2.748  0.00  0.00    +0.033 A 
ATOM      8  C   UNL     1       1.738  -1.251  -3.677  0.00  0.00    +0.024 A 
ATOM      9  C   UNL     1       2.341  -1.662  -4.850  0.00  0.00    +0.009 A 
ATOM     10  C   UNL     1       3.662  -1.339  -5.100  0.00  0.00    -0.005 A 
ATOM     11  C   UNL     1       4.384  -0.605  -4.178  0.00  0.00    +0.009 A 
ATOM     12  C   UNL     1       3.786  -0.186  -3.006  0.00  0.00    +0.024 A 
BRANCH   7  15
ATOM     13  C   UNL     1       2.174   1.099  -1.022  0.00  0.00    +0.220 C 
ATOM     14  O   UNL     1       3.041   1.779  -1.529  0.00  0.00    -0.275 OA
ATOM     15  N   UNL     1       1.854  -0.095  -1.559  0.00  0.00    -0.285 N 
ATOM     16  H   UNL     1       1.202  -0.664  -1.121  0.00  0.00    +0.155 HD
BRANCH  13  18
ATOM     17  C   UNL     1       1.672   0.599   1.354  0.00  0.00    +0.017 C 
ATOM     18  C   UNL     1       1.455   1.589   0.208  0.00  0.00    +0.069 C 
ATOM     19  C   UNL     1       2.005   2.960   0.608  0.00  0.00    +0.017 C 
ENDBRANCH  13  18
ENDBRANCH   7  15
ENDBRANCH   1  10
BRANCH   2  20
ATOM     20  C   UNL     1       4.371  -4.294  -6.597  0.00  0.00    +0.238 C 
ATOM     21  O   UNL     1       4.645  -4.839  -7.645  0.00  0.00    -0.274 OA
ATOM     22  N   UNL     1       3.376  -4.777  -5.827  0.00  0.00    -0.307 N 
ATOM     23  H   UNL     1       3.157  -4.341  -4.988  0.00  0.00    +0.149 HD
BRANCH  22  24
ATOM     24  C   UNL     1       2.626  -5.960  -6.255  0.00  0.00    +0.178 C 
BRANCH  24  25
ATOM     25  C   UNL     1       1.578  -6.291  -5.224  0.00  0.00    +0.122 A 
ATOM     26  C   UNL     1       0.315  -5.827  -5.209  0.00  0.00    +0.046 A 
ATOM     27  C   UNL     1      -0.314  -6.388  -4.074  0.00  0.00    +0.041 A 
ATOM     28  C   UNL     1       0.602  -7.162  -3.464  0.00  0.00    +0.195 A 
ATOM     29  O   UNL     1       1.744  -7.104  -4.168  0.00  0.00    -0.466 OA
ENDBRANCH  24  25
ENDBRANCH  22  24
ENDBRANCH   2  20
BRANCH   3  30
ATOM     30  C   UNL     1       7.288  -3.863  -7.443  0.00  0.00    +0.147 C 
BRANCH  30  31
ATOM     31  C   UNL     1       8.473  -3.838  -6.511  0.00  0.00    -0.030 A 
ATOM     32  C   UNL     1       9.504  -2.944  -6.727  0.00  0.00    +0.005 A 
ATOM     33  C   UNL     1      10.590  -2.921  -5.872  0.00  0.00    +0.000 A 
ATOM     34  C   UNL     1      10.644  -3.792  -4.801  0.00  0.00    +0.000 A 
ATOM     35  C   UNL     1       9.612  -4.686  -4.583  0.00  0.00    +0.000 A 
ATOM     36  C   UNL     1       8.524  -4.706  -5.436  0.00  0.00    +0.005 A 
ENDBRANCH  30  31
ENDBRANCH   3  30
TORSDOF 8
