REMARK  Name = ZINC64002120
REMARK  11 active torsions:
REMARK  status: ('A' for Active; 'I' for Inactive)
REMARK    1  A    between atoms: C_1  and  C_2
REMARK    2  A    between atoms: C_2  and  C_3
REMARK    3  A    between atoms: C_2  and  C_4
REMARK    4  A    between atoms: C_4  and  N_5
REMARK    5  A    between atoms: N_11  and  C_14
REMARK    6  A    between atoms: C_14  and  C_15
REMARK    7  A    between atoms: N_24  and  C_27
REMARK    8  A    between atoms: C_27  and  C_28
REMARK    9  A    between atoms: C_28  and  C_29
REMARK   10  A    between atoms: C_32  and  O_35
REMARK   11  A    between atoms: O_35  and  C_36
REMARK                            x       y       z     vdW  Elec       q    Type
REMARK                         _______ _______ _______ _____ _____    ______ ____
ROOT
ATOM      1  N   UNL     1      -1.448  -2.194   0.792  0.00  0.00    -0.224 N 
ATOM      2  C   UNL     1      -1.628  -2.584  -0.487  0.00  0.00    +0.247 C 
ATOM      3  O   UNL     1      -1.841  -1.875  -1.448  0.00  0.00    -0.273 OA
ATOM      4  C   UNL     1      -1.508  -4.090  -0.470  0.00  0.00    +0.112 C 
ATOM      5  C   UNL     1      -2.809  -4.734  -0.939  0.00  0.00    +0.017 C 
ATOM      6  C   UNL     1      -2.641  -6.257  -0.955  0.00  0.00    -0.076 C 
ATOM      7  N   UNL     1      -1.539  -6.620  -1.854  0.00  0.00    +0.382 N 
ATOM      8  C   UNL     1      -0.276  -6.073  -1.345  0.00  0.00    -0.076 C 
ATOM      9  C   UNL     1      -0.344  -4.543  -1.345  0.00  0.00    +0.017 C 
ATOM     10  N   UNL     1      -1.251  -4.412   0.938  0.00  0.00    -0.271 N 
ATOM     11  C   UNL     1      -1.228  -3.239   1.599  0.00  0.00    +0.312 C 
ATOM     12  O   UNL     1      -1.032  -3.140   2.795  0.00  0.00    -0.252 OA
ATOM     13  H   UNL     1      -1.720  -6.246  -2.774  0.00  0.00    -0.081 HD
ENDROOT
BRANCH   1  14
ATOM     14  C   UNL     1      -1.482  -0.800   1.241  0.00  0.00    +0.121 C 
BRANCH  14  16
ATOM     15  C   UNL     1      -0.132   1.286   1.505  0.00  0.00    +0.009 C 
ATOM     16  C   UNL     1      -0.075  -0.203   1.157  0.00  0.00    +0.001 C 
ATOM     17  C   UNL     1       0.845  -0.923   2.144  0.00  0.00    +0.009 C 
ENDBRANCH  14  16
ENDBRANCH   1  14
BRANCH   7  18
ATOM     18  C   UNL     1      -1.439  -8.083  -1.936  0.00  0.00    -0.045 C 
BRANCH  18  19
ATOM     19  C   UNL     1      -0.406  -8.459  -2.967  0.00  0.00    -0.058 C 
ATOM     20  C   UNL     1       0.894  -8.758  -2.744  0.00  0.00    -0.003 A 
ATOM     21  C   UNL     1       1.704  -8.821  -1.522  0.00  0.00    +0.010 A 
ATOM     22  C   UNL     1       3.011  -9.158  -1.617  0.00  0.00    +0.001 A 
ATOM     23  C   UNL     1       3.609  -9.448  -2.851  0.00  0.00    +0.002 A 
ATOM     24  C   UNL     1       2.929  -9.412  -4.017  0.00  0.00    +0.026 A 
ATOM     25  C   UNL     1       1.549  -9.070  -4.035  0.00  0.00    +0.043 A 
ATOM     26  N   UNL     1       0.688  -8.967  -5.017  0.00  0.00    -0.380 N 
ATOM     27  C   UNL     1      -0.614  -8.584  -4.460  0.00  0.00    +0.142 C 
ATOM     28  H   UNL     1       0.878  -9.122  -5.956  0.00  0.00    +0.160 HD
ENDBRANCH  18  19
ENDBRANCH   7  18
BRANCH  10  29
ATOM     29  C   UNL     1      -1.053  -5.746   1.511  0.00  0.00    +0.115 C 
BRANCH  29  30
ATOM     30  C   UNL     1      -2.217  -6.076   2.449  0.00  0.00    +0.054 C 
BRANCH  30  31
ATOM     31  C   UNL     1      -2.076  -7.492   2.945  0.00  0.00    -0.046 A 
ATOM     32  C   UNL     1      -2.561  -8.541   2.186  0.00  0.00    +0.007 A 
ATOM     33  C   UNL     1      -2.433  -9.840   2.639  0.00  0.00    +0.046 A 
ATOM     34  C   UNL     1      -1.818 -10.091   3.857  0.00  0.00    +0.120 A 
ATOM     35  C   UNL     1      -1.332  -9.037   4.616  0.00  0.00    +0.046 A 
ATOM     36  C   UNL     1      -1.457  -7.740   4.156  0.00  0.00    +0.007 A 
BRANCH  34  37
ATOM     37  O   UNL     1      -1.691 -11.368   4.305  0.00  0.00    -0.495 OA
ATOM     38  C   UNL     1      -1.047 -11.552   5.567  0.00  0.00    +0.277 C 
ENDBRANCH  34  37
ENDBRANCH  30  31
ENDBRANCH  29  30
ENDBRANCH  10  29
TORSDOF 8
