REMARK  Name = ZINC22579710
REMARK  4 active torsions:
REMARK  status: ('A' for Active; 'I' for Inactive)
REMARK    1  A    between atoms: C_1  and  C_2
REMARK    2  A    between atoms: C_5  and  C_8
REMARK    3  A    between atoms: C_11  and  C_32
REMARK    4  A    between atoms: C_16  and  C_18
REMARK                            x       y       z     vdW  Elec       q    Type
REMARK                         _______ _______ _______ _____ _____    ______ ____
ROOT
ATOM      1  C   UNL     1       0.118  -4.294  -0.026  0.00  0.00    +0.104 C 
ATOM      2  C   UNL     1      -1.373  -4.511   0.256  0.00  0.00    +0.063 C 
ATOM      3  C   UNL     1      -1.758  -3.837   1.578  0.00  0.00    +0.215 C 
ATOM      4  N   UNL     1      -0.806  -4.246   2.615  0.00  0.00    -0.237 N 
ATOM      5  C   UNL     1       0.429  -4.766   2.347  0.00  0.00    +0.137 A 
ATOM      6  C   UNL     1       1.036  -5.034   3.520  0.00  0.00    +0.112 A 
ATOM      7  C   UNL     1       0.145  -4.665   4.555  0.00  0.00    +0.167 A 
ATOM      8  N   UNL     1      -0.958  -4.193   3.999  0.00  0.00    -0.163 NA
ATOM      9 CL   UNL     1       2.622  -5.710   3.725  0.00  0.00    -0.078 Cl
ATOM     10  N   UNL     1       0.902  -4.950   1.039  0.00  0.00    -0.321 N 
ATOM     11  H   UNL     1       1.693  -5.477   0.844  0.00  0.00    +0.148 HD
ENDROOT
BRANCH   7  12
ATOM     12  C   UNL     1       0.402  -4.787   6.004  0.00  0.00    +0.268 C 
ATOM     13  O   UNL     1       1.500  -5.129   6.400  0.00  0.00    -0.268 OA
ATOM     14  N   UNL     1      -0.580  -4.520   6.887  0.00  0.00    -0.299 N 
ATOM     15  C   UNL     1      -1.946  -4.256   6.417  0.00  0.00    +0.089 C 
ATOM     16  C   UNL     1      -2.953  -5.054   7.262  0.00  0.00    -0.059 C 
ATOM     17  N   UNL     1      -2.675  -4.778   8.665  0.00  0.00    +0.384 N 
ATOM     18  C   UNL     1      -3.614  -5.364   9.624  0.00  0.00    -0.078 C 
ATOM     19  C   UNL     1      -2.795  -5.639  10.908  0.00  0.00    -0.020 C 
ATOM     20  C   UNL     1      -1.335  -5.254  10.543  0.00  0.00    -0.016 C 
ATOM     21  C   UNL     1      -1.350  -5.359   9.008  0.00  0.00    -0.051 C 
ATOM     22  C   UNL     1      -0.292  -4.497   8.336  0.00  0.00    +0.093 C 
ATOM     23  H   UNL     1      -2.647  -3.779   8.809  0.00  0.00    -0.081 HD
ENDBRANCH   7  12
BRANCH   1  28
ATOM     24  C   UNL     1       1.274   1.368  -0.080  0.00  0.00    +0.044 C 
ATOM     25  C   UNL     1       0.973  -0.109  -0.066  0.00  0.00    -0.050 A 
ATOM     26  C   UNL     1       0.819  -0.794  -1.257  0.00  0.00    +0.004 A 
ATOM     27  C   UNL     1       0.542  -2.148  -1.244  0.00  0.00    +0.006 A 
ATOM     28  C   UNL     1       0.420  -2.817  -0.040  0.00  0.00    -0.027 A 
ATOM     29  C   UNL     1       0.575  -2.132   1.150  0.00  0.00    +0.006 A 
ATOM     30  C   UNL     1       0.856  -0.779   1.137  0.00  0.00    +0.004 A 
ENDBRANCH   1  28
BRANCH   3  31
ATOM     31  C   UNL     1      -3.171  -4.264   1.979  0.00  0.00    +0.412 C 
ATOM     32  F   UNL     1      -3.211  -5.654   2.137  0.00  0.00    -0.168 F 
ATOM     33  F   UNL     1      -3.520  -3.648   3.185  0.00  0.00    -0.168 F 
ATOM     34  F   UNL     1      -4.075  -3.883   0.981  0.00  0.00    -0.168 F 
ENDBRANCH   3  31
TORSDOF 3
