REMARK  Name = ZINC20343488
REMARK  8 active torsions:
REMARK  status: ('A' for Active; 'I' for Inactive)
REMARK    1  A    between atoms: C_1  and  C_2
REMARK    2  A    between atoms: C_2  and  C_3
REMARK    3  A    between atoms: C_2  and  N_4
REMARK    4  A    between atoms: C_5  and  C_23
REMARK    5  A    between atoms: C_8  and  S_9
REMARK    6  A    between atoms: S_9  and  C_10
REMARK    7  A    between atoms: C_10  and  C_11
REMARK    8  A    between atoms: C_29  and  C_31
REMARK                            x       y       z     vdW  Elec       q    Type
REMARK                         _______ _______ _______ _____ _____    ______ ____
ROOT
ATOM      1  N   UNL     1       8.152   5.551   0.448  0.00  0.00    -0.302 N 
ATOM      2  C   UNL     1       9.054   6.568   0.293  0.00  0.00    +0.155 A 
ATOM      3  N   UNL     1       8.488   7.658   0.729  0.00  0.00    -0.132 NA
ATOM      4  N   UNL     1       7.297   7.403   1.140  0.00  0.00    -0.122 NA
ATOM      5  C   UNL     1       7.037   6.125   0.987  0.00  0.00    +0.192 A 
ENDROOT
BRANCH   2   6
ATOM      6  C   UNL     1      10.447   6.448  -0.270  0.00  0.00    +0.144 C 
ATOM      7  C   UNL     1      11.484   6.564   0.866  0.00  0.00    +0.032 C 
ATOM      8  C   UNL     1      12.625   7.388   0.213  0.00  0.00    +0.021 C 
ATOM      9  C   UNL     1      11.827   8.355  -0.698  0.00  0.00    +0.109 C 
ATOM     10  N   UNL     1      10.701   7.548  -1.212  0.00  0.00    -0.287 N 
ATOM     11  C   UNL     1      10.020   7.780  -2.351  0.00  0.00    +0.249 C 
ATOM     12  O   UNL     1       9.118   7.037  -2.682  0.00  0.00    -0.270 OA
BRANCH  11  13
ATOM     13  C   UNL     1      10.371   8.939  -3.199  0.00  0.00    +0.055 A 
ATOM     14  C   UNL     1      11.036  10.036  -2.647  0.00  0.00    +0.014 A 
ATOM     15  C   UNL     1      11.360  11.114  -3.443  0.00  0.00    +0.001 A 
ATOM     16  C   UNL     1      11.029  11.111  -4.787  0.00  0.00    +0.001 A 
ATOM     17  C   UNL     1      10.371  10.028  -5.342  0.00  0.00    +0.021 A 
ATOM     18  C   UNL     1      10.045   8.939  -4.557  0.00  0.00    +0.053 A 
ATOM     19 CL   UNL     1       9.225   7.578  -5.256  0.00  0.00    -0.083 Cl
ENDBRANCH  11  13
ENDBRANCH   2   6
BRANCH   1  21
ATOM     20  C   UNL     1       8.181   3.282   1.359  0.00  0.00    +0.030 C 
ATOM     21  C   UNL     1       8.342   4.140   0.103  0.00  0.00    +0.085 C 
ATOM     22  C   UNL     1       7.299   3.724  -0.937  0.00  0.00    +0.030 C 
ENDBRANCH   1  21
BRANCH   5  23
ATOM     23  S   UNL     1       5.535   5.304   1.407  0.00  0.00    -0.078 S 
BRANCH  23  24
ATOM     24  C   UNL     1       4.583   6.702   2.052  0.00  0.00    +0.151 C 
BRANCH  24  25
ATOM     25  C   UNL     1       3.221   6.225   2.485  0.00  0.00    +0.121 A 
ATOM     26  N   UNL     1       2.353   7.134   3.001  0.00  0.00    -0.310 N 
ATOM     27  H   UNL     1       2.652   8.188   3.094  0.00  0.00    +0.170 HD
ATOM     28  C   UNL     1       1.118   6.756   3.405  0.00  0.00    +0.259 A 
ATOM     29  O   UNL     1       0.330   7.560   3.868  0.00  0.00    -0.267 OA
ATOM     30  C   UNL     1       0.764   5.336   3.261  0.00  0.00    +0.065 A 
ATOM     31  C   UNL     1      -0.481   4.844   3.646  0.00  0.00    +0.015 A 
ATOM     32  C   UNL     1      -0.762   3.505   3.485  0.00  0.00    +0.001 A 
ATOM     33  C   UNL     1       0.189   2.643   2.952  0.00  0.00    +0.002 A 
ATOM     34  C   UNL     1       1.425   3.110   2.565  0.00  0.00    +0.028 A 
ATOM     35  C   UNL     1       1.731   4.464   2.714  0.00  0.00    +0.078 A 
ATOM     36  N   UNL     1       2.936   4.965   2.346  0.00  0.00    -0.233 NA
ENDBRANCH  24  25
ENDBRANCH  23  24
ENDBRANCH   5  23
TORSDOF 6
