REMARK  Name = ZINC36206316
REMARK  13 active torsions:
REMARK  status: ('A' for Active; 'I' for Inactive)
REMARK    1  A    between atoms: C_1  and  C_2
REMARK    2  A    between atoms: C_2  and  C_3
REMARK    3  A    between atoms: C_3  and  N_4
REMARK    4  A    between atoms: N_4  and  C_5
REMARK    5  A    between atoms: N_4  and  C_25
REMARK    6  A    between atoms: C_5  and  C_6
REMARK    7  A    between atoms: C_12  and  C_17
REMARK    8  A    between atoms: C_20  and  O_23
REMARK    9  A    between atoms: O_23  and  C_24
REMARK   10  A    between atoms: C_25  and  C_26
REMARK   11  A    between atoms: C_26  and  C_27
REMARK   12  A    between atoms: C_26  and  C_28
REMARK   13  A    between atoms: C_26  and  O_29
REMARK                            x       y       z     vdW  Elec       q    Type
REMARK                         _______ _______ _______ _____ _____    ______ ____
ROOT
ATOM      1  C   UNL     1       0.347  -1.952   1.492  0.00  0.00    +0.094 A 
ATOM      2  N   UNL     1       1.036  -2.436   2.556  0.00  0.00    -0.312 N 
ATOM      3  H   UNL     1       0.599  -3.050   3.167  0.00  0.00    +0.170 HD
ATOM      4  C   UNL     1       2.316  -2.083   2.780  0.00  0.00    +0.260 A 
ATOM      5  O   UNL     1       2.921  -2.528   3.740  0.00  0.00    -0.267 OA
ATOM      6  C   UNL     1       2.954  -1.178   1.874  0.00  0.00    +0.080 A 
ATOM      7  C   UNL     1       4.314  -0.652   1.900  0.00  0.00    +0.004 A 
ATOM      8  C   UNL     1       4.700   0.203   0.923  0.00  0.00    +0.056 A 
ATOM      9  S   UNL     1       3.246   0.349  -0.097  0.00  0.00    -0.076 S 
ATOM     10  C   UNL     1       2.163  -0.730   0.804  0.00  0.00    +0.116 A 
ATOM     11  N   UNL     1       0.903  -1.128   0.645  0.00  0.00    -0.229 NA
ENDROOT
BRANCH   7  12
ATOM     12  C   UNL     1       5.255  -1.044   2.976  0.00  0.00    -0.016 A 
ATOM     13  C   UNL     1       4.861  -0.966   4.311  0.00  0.00    +0.012 A 
ATOM     14  C   UNL     1       5.739  -1.333   5.310  0.00  0.00    +0.046 A 
ATOM     15  C   UNL     1       7.013  -1.778   4.988  0.00  0.00    +0.120 A 
ATOM     16  C   UNL     1       7.409  -1.856   3.659  0.00  0.00    +0.046 A 
ATOM     17  C   UNL     1       6.534  -1.497   2.655  0.00  0.00    +0.012 A 
BRANCH  15  18
ATOM     18  O   UNL     1       7.875  -2.138   5.974  0.00  0.00    -0.495 OA
ATOM     19  C   UNL     1       9.171  -2.587   5.572  0.00  0.00    +0.277 C 
ENDBRANCH  15  18
ENDBRANCH   7  12
BRANCH   1  20
ATOM     20  C   UNL     1      -1.084  -2.376   1.281  0.00  0.00    -0.003 C 
BRANCH  20  21
ATOM     21  N   UNL     1      -1.661  -1.614   0.166  0.00  0.00    +0.386 N 
ATOM     22  H   UNL     1      -1.093  -1.742  -0.659  0.00  0.00    -0.081 HD
BRANCH  21  23
ATOM     23  C   UNL     1      -1.702  -0.188   0.516  0.00  0.00    -0.078 C 
BRANCH  23  25
ATOM     24  C   UNL     1      -2.232   2.104  -0.325  0.00  0.00    +0.002 C 
ATOM     25  C   UNL     1      -2.154   0.623  -0.700  0.00  0.00    -0.022 C 
ENDBRANCH  23  25
ENDBRANCH  21  23
BRANCH  21  26
ATOM     26  C   UNL     1      -3.025  -2.092  -0.100  0.00  0.00    -0.044 C 
BRANCH  26  27
ATOM     27  C   UNL     1      -2.967  -3.520  -0.647  0.00  0.00    +0.046 C 
ATOM     28  C   UNL     1      -4.363  -3.948  -1.104  0.00  0.00    +0.039 C 
ATOM     29  C   UNL     1      -2.004  -3.572  -1.835  0.00  0.00    +0.039 C 
BRANCH  27  30
ATOM     30  O   UNL     1      -2.508  -4.405   0.377  0.00  0.00    -0.391 OA
ATOM     31  H   UNL     1      -3.072  -4.423   1.162  0.00  0.00    +0.210 HD
ENDBRANCH  27  30
ENDBRANCH  26  27
ENDBRANCH  21  26
ENDBRANCH  20  21
ENDBRANCH   1  20
TORSDOF 9
