REMARK  Name = ZINC67437383
REMARK  7 active torsions:
REMARK  status: ('A' for Active; 'I' for Inactive)
REMARK    1  A    between atoms: C_1  and  C_2
REMARK    2  A    between atoms: C_3  and  C_21
REMARK    3  A    between atoms: C_4  and  C_10
REMARK    4  A    between atoms: C_13  and  O_17
REMARK    5  A    between atoms: O_17  and  C_18
REMARK    6  A    between atoms: N_23  and  C_24
REMARK    7  A    between atoms: N_23  and  C_25
REMARK                            x       y       z     vdW  Elec       q    Type
REMARK                         _______ _______ _______ _____ _____    ______ ____
ROOT
ATOM      1  C   UNL     1      -0.019   1.423  -0.223  0.00  0.00    +0.061 C 
ATOM      2  C   UNL     1       0.046  -0.078  -0.103  0.00  0.00    +0.017 C 
ATOM      3  C   UNL     1      -1.100  -0.791  -0.077  0.00  0.00    +0.056 C 
ATOM      4  C   UNL     1      -0.989  -2.298   0.045  0.00  0.00    +0.139 C 
ATOM      5  N   UNL     1       0.368  -2.863   0.127  0.00  0.00    -0.315 N 
ATOM      6  C   UNL     1       1.418  -2.018   0.089  0.00  0.00    +0.135 C 
ATOM      7  S   UNL     1       3.002  -2.661   0.182  0.00  0.00    -0.019 S 
ATOM      8  N   UNL     1       1.262  -0.694  -0.026  0.00  0.00    -0.300 N 
ATOM      9  H   UNL     1       0.503  -3.820   0.207  0.00  0.00    +0.149 HD
ATOM     10  H   UNL     1       2.058  -0.140  -0.052  0.00  0.00    +0.154 HD
ENDROOT
BRANCH   4  11
ATOM     11  C   UNL     1      -1.677  -2.912  -1.147  0.00  0.00    -0.021 A 
ATOM     12  C   UNL     1      -0.992  -3.055  -2.340  0.00  0.00    +0.009 A 
ATOM     13  C   UNL     1      -1.620  -3.617  -3.435  0.00  0.00    +0.048 A 
ATOM     14  C   UNL     1      -2.937  -4.040  -3.337  0.00  0.00    +0.145 A 
ATOM     15  C   UNL     1      -3.622  -3.896  -2.139  0.00  0.00    +0.083 A 
ATOM     16  C   UNL     1      -2.988  -3.338  -1.044  0.00  0.00    +0.029 A 
ATOM     17 CL   UNL     1      -5.271  -4.424  -2.011  0.00  0.00    -0.080 Cl
BRANCH  14  18
ATOM     18  O   UNL     1      -3.557  -4.593  -4.413  0.00  0.00    -0.433 OA
BRANCH  18  19
ATOM     19  C   UNL     1      -2.791  -4.709  -5.614  0.00  0.00    +0.541 C 
ATOM     20  F   UNL     1      -2.380  -3.438  -6.029  0.00  0.00    -0.166 F 
ATOM     21  F   UNL     1      -1.667  -5.507  -5.375  0.00  0.00    -0.166 F 
ENDBRANCH  18  19
ENDBRANCH  14  18
ENDBRANCH   4  11
BRANCH   3  22
ATOM     22  C   UNL     1      -2.362  -0.154  -0.162  0.00  0.00    +0.246 C 
ATOM     23  O   UNL     1      -2.942  -0.092  -1.231  0.00  0.00    -0.270 OA
ATOM     24  N   UNL     1      -2.921   0.384   0.940  0.00  0.00    -0.304 N 
ATOM     25  C   UNL     1      -4.264   0.963   0.872  0.00  0.00    +0.132 C 
ATOM     26  C   UNL     1      -2.184   0.388   2.207  0.00  0.00    +0.132 C 
ENDBRANCH   3  22
TORSDOF 4
