REMARK  Name = ZINC08432332
REMARK  6 active torsions:
REMARK  status: ('A' for Active; 'I' for Inactive)
REMARK    1  A    between atoms: C_1  and  C_2
REMARK    2  A    between atoms: C_2  and  O_3
REMARK    3  A    between atoms: O_3  and  C_4
REMARK    4  A    between atoms: C_6  and  C_12
REMARK    5  A    between atoms: C_9  and  O_10
REMARK    6  A    between atoms: N_18  and  C_19
REMARK                            x       y       z     vdW  Elec       q    Type
REMARK                         _______ _______ _______ _____ _____    ______ ____
ROOT
ATOM      1  C   UNL     1       3.650   2.165  -0.022  0.00  0.00    +0.028 C 
ATOM      2  C   UNL     1       3.633   3.519  -0.117  0.00  0.00    +0.078 C 
ATOM      3  C   UNL     1       4.760   4.463  -0.238  0.00  0.00    +0.256 C 
ATOM      4  O   UNL     1       5.914   4.077  -0.265  0.00  0.00    -0.269 OA
ATOM      5  N   UNL     1       4.459   5.748  -0.319  0.00  0.00    -0.260 N 
ATOM      6  C   UNL     1       3.147   6.166  -0.280  0.00  0.00    +0.166 C 
ATOM      7  N   UNL     1       2.678   7.392  -0.342  0.00  0.00    -0.226 NA
ATOM      8  S   UNL     1       2.239   4.637  -0.123  0.00  0.00    -0.049 S 
ATOM      9  H   UNL     1       5.170   6.403  -0.403  0.00  0.00    +0.157 HD
ENDROOT
BRANCH   1  12
ATOM     10  C   UNL     1       1.162  -0.626   0.279  0.00  0.00    +0.164 A 
ATOM     11  C   UNL     1       2.332   0.058   0.010  0.00  0.00    +0.057 A 
ATOM     12  C   UNL     1       2.409   1.433   0.262  0.00  0.00    -0.019 A 
ATOM     13  C   UNL     1       1.300   2.108   0.786  0.00  0.00    +0.032 A 
ATOM     14  C   UNL     1       0.137   1.417   1.051  0.00  0.00    +0.087 A 
ATOM     15  C   UNL     1       0.062   0.053   0.800  0.00  0.00    +0.177 A 
ATOM     16 CL   UNL     1      -1.241   2.257   1.693  0.00  0.00    -0.080 Cl
BRANCH  15  17
ATOM     17  O   UNL     1      -1.088  -0.622   1.063  0.00  0.00    -0.502 OA
ATOM     18  H   UNL     1      -1.706  -0.651   0.320  0.00  0.00    +0.292 HD
ENDBRANCH  15  17
BRANCH  10  19
ATOM     19  O   UNL     1       1.084  -1.961   0.036  0.00  0.00    -0.489 OA
BRANCH  19  21
ATOM     20  C   UNL     1       1.973  -4.084  -0.704  0.00  0.00    +0.048 C 
ATOM     21  C   UNL     1       2.249  -2.593  -0.498  0.00  0.00    +0.226 C 
ENDBRANCH  19  21
ENDBRANCH  10  19
ENDBRANCH   1  12
BRANCH   7  22
ATOM     22  C   UNL     1       3.539   8.449  -0.463  0.00  0.00    +0.067 A 
ATOM     23  C   UNL     1       4.684   8.515   0.333  0.00  0.00    +0.029 A 
ATOM     24  C   UNL     1       5.551   9.580   0.203  0.00  0.00    +0.017 A 
ATOM     25  C   UNL     1       5.281  10.588  -0.707  0.00  0.00    +0.018 A 
ATOM     26  C   UNL     1       4.145  10.532  -1.496  0.00  0.00    +0.017 A 
ATOM     27  C   UNL     1       3.273   9.470  -1.379  0.00  0.00    +0.029 A 
ATOM     28 BR   UNL     1       6.471  12.049  -0.873  0.00  0.00    -0.050 Br
ENDBRANCH   7  22
TORSDOF 5
