REMARK  Name = ZINC39943557
REMARK  18 active torsions:
REMARK  status: ('A' for Active; 'I' for Inactive)
REMARK    1  A    between atoms: C_1  and  C_2
REMARK    2  A    between atoms: C_2  and  C_4
REMARK    3  A    between atoms: C_2  and  N_10
REMARK    4  A    between atoms: C_11  and  C_13
REMARK    5  A    between atoms: C_13  and  N_14
REMARK    6  A    between atoms: N_14  and  C_15
REMARK    7  A    between atoms: N_14  and  C_16
REMARK    8  A    between atoms: C_16  and  C_17
REMARK    9  A    between atoms: N_19  and  C_20
REMARK   10  A    between atoms: N_19  and  C_24
REMARK   11  A    between atoms: C_20  and  C_21
REMARK   12  A    between atoms: C_21  and  C_22
REMARK   13  A    between atoms: C_21  and  C_23
REMARK   14  A    between atoms: C_25  and  N_37
REMARK   15  A    between atoms: N_26  and  C_33
REMARK   16  A    between atoms: C_33  and  C_34
REMARK   17  A    between atoms: C_34  and  C_35
REMARK   18  A    between atoms: C_34  and  C_36
REMARK                            x       y       z     vdW  Elec       q    Type
REMARK                         _______ _______ _______ _____ _____    ______ ____
ROOT
ATOM      1  C   UNL     1      -0.083  -0.703  -7.409  0.00  0.00    +0.203 C 
ATOM      2  O   UNL     1      -1.127  -0.086  -7.356  0.00  0.00    -0.277 OA
ATOM      3  N   UNL     1       0.317  -1.254  -8.574  0.00  0.00    -0.266 N 
ENDROOT
BRANCH   3   4
ATOM      4  C   UNL     1      -0.522  -1.194  -9.707  0.00  0.00    +0.140 A 
ATOM      5  C   UNL     1      -1.777  -1.768  -9.682  0.00  0.00    +0.127 A 
ATOM      6  N   UNL     1      -2.572  -1.693 -10.802  0.00  0.00    -0.280 N 
ATOM      7  C   UNL     1      -2.132  -1.069 -11.909  0.00  0.00    +0.331 A 
ATOM      8  O   UNL     1      -2.850  -1.014 -12.889  0.00  0.00    -0.246 OA
ATOM      9  N   UNL     1      -0.912  -0.504 -11.952  0.00  0.00    -0.273 N 
ATOM     10  H   UNL     1      -0.618  -0.059 -12.762  0.00  0.00    +0.173 HD
ATOM     11  C   UNL     1      -0.096  -0.544 -10.880  0.00  0.00    +0.277 A 
ATOM     12  O   UNL     1       1.006  -0.025 -10.928  0.00  0.00    -0.266 OA
BRANCH   5  13
ATOM     13  N   UNL     1      -2.227  -2.406  -8.551  0.00  0.00    -0.343 N 
ATOM     14  H   UNL     1      -1.643  -2.501  -7.782  0.00  0.00    +0.144 HD
ATOM     15  H   UNL     1      -3.129  -2.763  -8.522  0.00  0.00    +0.144 HD
ENDBRANCH   5  13
BRANCH   6  16
ATOM     16  C   UNL     1      -3.906  -2.298 -10.789  0.00  0.00    +0.131 C 
BRANCH  16  17
ATOM     17  C   UNL     1      -4.929  -1.268 -10.306  0.00  0.00    +0.003 C 
ATOM     18  C   UNL     1      -5.014  -0.121 -11.316  0.00  0.00    +0.009 C 
ATOM     19  C   UNL     1      -6.300  -1.933 -10.174  0.00  0.00    +0.009 C 
ENDBRANCH  16  17
ENDBRANCH   6  16
ENDBRANCH   3   4
BRANCH   1  20
ATOM     20  C   UNL     1       0.766  -0.854  -6.173  0.00  0.00    +0.019 C 
BRANCH  20  21
ATOM     21  N   UNL     1       0.118  -0.170  -5.047  0.00  0.00    +0.389 N 
ATOM     22  C   UNL     1      -1.150  -0.841  -4.731  0.00  0.00    -0.095 C 
ATOM     23  H   UNL     1      -0.064   0.791  -5.295  0.00  0.00    -0.081 HD
BRANCH  21  24
ATOM     24  C   UNL     1       1.001  -0.213  -3.873  0.00  0.00    +0.019 C 
BRANCH  24  26
ATOM     25  N   UNL     1       1.029   0.695  -1.573  0.00  0.00    -0.310 N 
ATOM     26  C   UNL     1       0.391   0.592  -2.755  0.00  0.00    +0.197 C 
ATOM     27  O   UNL     1      -0.675   1.148  -2.920  0.00  0.00    -0.278 OA
ATOM     28  H   UNL     1       1.881   0.251  -1.441  0.00  0.00    +0.149 HD
BRANCH  25  30
ATOM     29  C   UNL     1       0.816   2.951  -0.652  0.00  0.00    +0.033 C 
ATOM     30  C   UNL     1       0.436   1.478  -0.486  0.00  0.00    +0.100 C 
BRANCH  30  31
ATOM     31  C   UNL     1       0.952   0.973   0.837  0.00  0.00    -0.027 A 
ATOM     32  C   UNL     1       2.281   0.615   0.969  0.00  0.00    +0.005 A 
ATOM     33  C   UNL     1       2.754   0.151   2.183  0.00  0.00    +0.000 A 
ATOM     34  C   UNL     1       1.899   0.046   3.263  0.00  0.00    +0.000 A 
ATOM     35  C   UNL     1       0.570   0.405   3.131  0.00  0.00    +0.000 A 
ATOM     36  C   UNL     1       0.098   0.873   1.919  0.00  0.00    +0.005 A 
ENDBRANCH  30  31
ENDBRANCH  25  30
ENDBRANCH  24  26
ENDBRANCH  21  24
ENDBRANCH  20  21
ENDBRANCH   1  20
BRANCH   3  37
ATOM     37  C   UNL     1       1.622  -1.913  -8.663  0.00  0.00    +0.117 C 
BRANCH  37  38
ATOM     38  C   UNL     1       1.487  -3.371  -8.219  0.00  0.00    +0.001 C 
ATOM     39  C   UNL     1       0.594  -4.125  -9.206  0.00  0.00    +0.009 C 
ATOM     40  C   UNL     1       2.871  -4.023  -8.184  0.00  0.00    +0.009 C 
ENDBRANCH  37  38
ENDBRANCH   3  37
TORSDOF 12
