REMARK  Name = ZINC21777459
REMARK  4 active torsions:
REMARK  status: ('A' for Active; 'I' for Inactive)
REMARK    1  A    between atoms: C_5  and  C_7
REMARK    2  A    between atoms: C_7  and  N_8
REMARK    3  A    between atoms: C_11  and  C_14
REMARK    4  A    between atoms: C_14  and  N_15
REMARK                            x       y       z     vdW  Elec       q    Type
REMARK                         _______ _______ _______ _____ _____    ______ ____
ROOT
ATOM      1  C   UNL     1      -3.695   5.806   1.065  0.00  0.00    +0.106 C 
ENDROOT
BRANCH   1   2
ATOM      2  N   UNL     1      -2.417   5.136   1.316  0.00  0.00    -0.327 N 
ATOM      3  C   UNL     1      -2.385   3.769   1.551  0.00  0.00    +0.149 A 
ATOM      4  C   UNL     1      -1.104   3.100   1.802  0.00  0.00    +0.027 A 
ATOM      5  C   UNL     1       0.102   3.802   1.812  0.00  0.00    +0.012 A 
ATOM      6  C   UNL     1       1.270   3.133   2.051  0.00  0.00    +0.001 A 
ATOM      7  C   UNL     1       1.272   1.764   2.284  0.00  0.00    +0.001 A 
ATOM      8  C   UNL     1       0.106   1.051   2.280  0.00  0.00    +0.012 A 
ATOM      9  C   UNL     1      -1.100   1.706   2.033  0.00  0.00    +0.033 A 
ATOM     10  C   UNL     1      -2.384   1.000   2.021  0.00  0.00    +0.207 A 
ATOM     11  N   UNL     1      -2.740  -0.259   2.197  0.00  0.00    -0.106 NA
ATOM     12  N   UNL     1      -4.014  -0.381   2.082  0.00  0.00    -0.021 NA
ATOM     13  N   UNL     1      -4.560   0.760   1.830  0.00  0.00    -0.021 NA
ATOM     14  N   UNL     1      -3.526   1.707   1.780  0.00  0.00    -0.108 N 
ATOM     15  N   UNL     1      -3.497   3.081   1.550  0.00  0.00    -0.130 NA
ATOM     16  H   UNL     1      -1.482   5.716   1.317  0.00  0.00    +0.148 HD
ENDBRANCH   1   2
BRANCH   1  20
ATOM     17  N   UNL     1      -4.020  10.041   1.545  0.00  0.00    +0.382 N 
ATOM     18  C   UNL     1      -4.531   9.482   0.287  0.00  0.00    -0.078 C 
ATOM     19  C   UNL     1      -4.769   7.979   0.453  0.00  0.00    -0.014 C 
ATOM     20  C   UNL     1      -3.452   7.299   0.838  0.00  0.00    +0.003 C 
ATOM     21  C   UNL     1      -2.916   7.932   2.125  0.00  0.00    -0.014 C 
ATOM     22  C   UNL     1      -2.733   9.436   1.910  0.00  0.00    -0.078 C 
ATOM     23  H   UNL     1      -4.742   9.796   2.338  0.00  0.00    -0.081 HD
BRANCH  17  24
ATOM     24  C   UNL     1      -3.912  11.504   1.466  0.00  0.00    -0.042 C 
BRANCH  24  29
ATOM     25  C   UNL     1      -7.166  13.189   0.557  0.00  0.00    +0.000 A 
ATOM     26  C   UNL     1      -7.802  13.241   1.784  0.00  0.00    +0.001 A 
ATOM     27  C   UNL     1      -7.180  12.731   2.908  0.00  0.00    +0.020 A 
ATOM     28  C   UNL     1      -5.920  12.168   2.805  0.00  0.00    +0.042 A 
ATOM     29  C   UNL     1      -5.284  12.116   1.578  0.00  0.00    -0.046 A 
ATOM     30  C   UNL     1      -5.905  12.631   0.456  0.00  0.00    +0.003 A 
ATOM     31 CL   UNL     1      -5.138  11.528   4.217  0.00  0.00    -0.083 Cl
ENDBRANCH  24  29
ENDBRANCH  17  24
ENDBRANCH   1  20
TORSDOF 4
