REMARK  Name = ZINC29440806
REMARK  7 active torsions:
REMARK  status: ('A' for Active; 'I' for Inactive)
REMARK    1  A    between atoms: C_1  and  C_2
REMARK    2  A    between atoms: C_3  and  C_12
REMARK    3  A    between atoms: C_5  and  C_7
REMARK    4  A    between atoms: N_14  and  N_15
REMARK    5  A    between atoms: C_16  and  C_18
REMARK    6  A    between atoms: C_21  and  S_24
REMARK    7  A    between atoms: S_24  and  N_27
REMARK                            x       y       z     vdW  Elec       q    Type
REMARK                         _______ _______ _______ _____ _____    ______ ____
ROOT
ATOM      1  N   UNL     1      -1.234   1.650   0.017  0.00  0.00    -0.230 N 
ATOM      2  C   UNL     1      -2.392   0.960   0.019  0.00  0.00    +0.260 C 
ATOM      3  O   UNL     1      -2.375  -0.255   0.012  0.00  0.00    -0.269 OA
ATOM      4  H   UNL     1      -1.249   2.750   0.023  0.00  0.00    +0.173 HD
ENDROOT
BRANCH   2   5
ATOM      5  C   UNL     1      -3.682   1.682   0.029  0.00  0.00    +0.038 A 
ATOM      6  C   UNL     1      -3.704   3.077   0.042  0.00  0.00    +0.015 A 
ATOM      7  C   UNL     1      -4.912   3.745   0.046  0.00  0.00    +0.029 A 
ATOM      8  C   UNL     1      -6.099   3.034   0.048  0.00  0.00    +0.106 A 
ATOM      9  C   UNL     1      -6.083   1.650   0.040  0.00  0.00    +0.029 A 
ATOM     10  C   UNL     1      -4.883   0.971   0.030  0.00  0.00    +0.015 A 
BRANCH   8  11
ATOM     11  S   UNL     1      -7.636   3.894   0.060  0.00  0.00    +0.061 S 
ATOM     12  O   UNL     1      -7.386   5.182  -0.485  0.00  0.00    -0.153 OA
ATOM     13  O   UNL     1      -8.602   3.008  -0.490  0.00  0.00    -0.153 OA
BRANCH  11  14
ATOM     14  N   UNL     1      -8.056   4.124   1.646  0.00  0.00    -0.177 NA
ATOM     15  C   UNL     1      -8.861   3.204   2.462  0.00  0.00    +0.109 C 
ATOM     16  C   UNL     1      -9.013   3.842   3.858  0.00  0.00    +0.018 C 
ATOM     17  C   UNL     1      -8.771   5.349   3.577  0.00  0.00    +0.018 C 
ATOM     18  C   UNL     1      -7.688   5.289   2.471  0.00  0.00    +0.109 C 
ENDBRANCH  11  14
ENDBRANCH   8  11
ENDBRANCH   2   5
BRANCH   1  21
ATOM     19  C   UNL     1       1.147   1.655   0.000  0.00  0.00    +0.279 C 
ATOM     20  O   UNL     1       1.130   2.872   0.007  0.00  0.00    -0.267 OA
ATOM     21  N   UNL     1      -0.011   0.966   0.007  0.00  0.00    -0.229 N 
ATOM     22  H   UNL     1       0.004  -0.134   0.006  0.00  0.00    +0.173 HD
BRANCH  19  25
ATOM     23  C   UNL     1       3.848   3.119  -0.029  0.00  0.00    +0.054 C 
ATOM     24  C   UNL     1       3.617   1.630  -0.029  0.00  0.00    +0.019 A 
ATOM     25  C   UNL     1       2.432   0.936  -0.016  0.00  0.00    +0.138 A 
ATOM     26  N   UNL     1       2.460  -0.388  -0.024  0.00  0.00    -0.231 NA
ATOM     27  C   UNL     1       3.621  -1.022  -0.039  0.00  0.00    +0.144 A 
ATOM     28  S   UNL     1       4.777   0.339  -0.042  0.00  0.00    -0.069 S 
BRANCH  27  29
ATOM     29  C   UNL     1       3.889  -2.469  -0.050  0.00  0.00    +0.160 A 
ATOM     30  C   UNL     1       2.951  -3.457  -0.041  0.00  0.00    +0.052 A 
ATOM     31  C   UNL     1       3.649  -4.679  -0.060  0.00  0.00    +0.042 A 
ATOM     32  C   UNL     1       4.964  -4.383  -0.072  0.00  0.00    +0.196 A 
ATOM     33  O   UNL     1       5.106  -3.048  -0.065  0.00  0.00    -0.461 OA
ENDBRANCH  27  29
ENDBRANCH  19  25
ENDBRANCH   1  21
TORSDOF 6
