REMARK  Name = ZINC15860407
REMARK  7 active torsions:
REMARK  status: ('A' for Active; 'I' for Inactive)
REMARK    1  A    between atoms: C_1  and  C_2
REMARK    2  A    between atoms: C_9  and  C_12
REMARK    3  A    between atoms: N_14  and  C_15
REMARK    4  A    between atoms: C_15  and  C_16
REMARK    5  A    between atoms: C_16  and  C_18
REMARK    6  A    between atoms: C_16  and  N_53
REMARK    7  A    between atoms: C_21  and  C_23
REMARK                            x       y       z     vdW  Elec       q    Type
REMARK                         _______ _______ _______ _____ _____    ______ ____
ROOT
ATOM      1  C   UNL     1      -5.499   5.719   2.178  0.00  0.00    +0.252 C 
ATOM      2  O   UNL     1      -4.675   6.386   1.580  0.00  0.00    -0.270 OA
ATOM      3  N   UNL     1      -5.172   4.493   2.633  0.00  0.00    -0.312 N 
ATOM      4  H   UNL     1      -5.829   3.962   3.110  0.00  0.00    +0.149 HD
ENDROOT
BRANCH   1  13
ATOM      5  C   UNL     1     -12.809   8.336   3.531  0.00  0.00    +0.044 C 
ATOM      6  C   UNL     1     -11.373   8.131   3.122  0.00  0.00    -0.049 A 
ATOM      7  C   UNL     1     -10.696   9.124   2.423  0.00  0.00    +0.004 A 
ATOM      8  C   UNL     1      -9.403   8.969   2.041  0.00  0.00    +0.011 A 
ATOM      9  C   UNL     1      -8.694   7.779   2.344  0.00  0.00    +0.008 A 
ATOM     10  C   UNL     1      -9.407   6.786   3.056  0.00  0.00    +0.022 A 
ATOM     11  C   UNL     1     -10.721   6.957   3.438  0.00  0.00    +0.019 A 
ATOM     12  S   UNL     1      -8.221   5.479   3.245  0.00  0.00    -0.082 S 
ATOM     13  C   UNL     1      -6.849   6.251   2.405  0.00  0.00    +0.093 A 
ATOM     14  C   UNL     1      -7.360   7.455   2.031  0.00  0.00    +0.068 A 
ATOM     15 CL   UNL     1      -6.370   8.589   1.166  0.00  0.00    -0.082 Cl
ENDBRANCH   1  13
BRANCH   3  16
ATOM     16  C   UNL     1      -3.825   3.963   2.407  0.00  0.00    +0.097 C 
BRANCH  16  17
ATOM     17  C   UNL     1      -3.680   2.618   3.120  0.00  0.00    +0.016 C 
BRANCH  17  23
ATOM     18  C   UNL     1      -4.697   0.440   3.413  0.00  0.00    -0.078 C 
ATOM     19  C   UNL     1      -5.908  -0.417   3.038  0.00  0.00    -0.019 C 
ATOM     20  C   UNL     1      -5.899  -0.673   1.528  0.00  0.00    -0.004 C 
ATOM     21  C   UNL     1      -5.907   0.669   0.791  0.00  0.00    -0.019 C 
ATOM     22  C   UNL     1      -4.696   1.495   1.231  0.00  0.00    -0.078 C 
ATOM     23  N   UNL     1      -4.777   1.727   2.689  0.00  0.00    +0.387 N 
ATOM     24  H   UNL     1      -5.675   2.175   2.905  0.00  0.00    -0.081 HD
ENDBRANCH  17  23
BRANCH  17  25
ATOM     25  C   UNL     1      -2.342   2.012   2.784  0.00  0.00    +0.093 A 
ATOM     26  C   UNL     1      -1.296   1.900   3.621  0.00  0.00    +0.043 A 
ATOM     27  C   UNL     1      -0.255   1.277   2.896  0.00  0.00    +0.044 A 
ATOM     28  C   UNL     1      -0.727   1.046   1.658  0.00  0.00    +0.102 A 
ATOM     29  O   UNL     1      -1.990   1.498   1.594  0.00  0.00    -0.466 OA
ATOM     30  C   UNL     1       0.035   0.395   0.531  0.00  0.00    +0.086 C 
ENDBRANCH  17  25
ENDBRANCH  16  17
ENDBRANCH   3  16
TORSDOF 5
