REMARK  Name = ZINC33122892
REMARK  9 active torsions:
REMARK  status: ('A' for Active; 'I' for Inactive)
REMARK    1  A    between atoms: C_1  and  N_2
REMARK    2  A    between atoms: N_2  and  C_3
REMARK    3  A    between atoms: N_2  and  C_4
REMARK    4  A    between atoms: C_9  and  N_10
REMARK    5  A    between atoms: C_11  and  C_13
REMARK    6  A    between atoms: N_18  and  S_20
REMARK    7  A    between atoms: S_20  and  C_23
REMARK    8  A    between atoms: C_26  and  O_29
REMARK    9  A    between atoms: O_29  and  C_30
REMARK                            x       y       z     vdW  Elec       q    Type
REMARK                         _______ _______ _______ _____ _____    ______ ____
ROOT
ATOM      1  C   UNL     1       2.849   3.918  -1.246  0.00  0.00    +0.091 C 
ATOM      2  C   UNL     1       3.735   4.090  -0.010  0.00  0.00    +0.015 C 
ATOM      3  C   UNL     1       2.892   3.900   1.254  0.00  0.00    +0.018 C 
ATOM      4  C   UNL     1       2.310   2.488   1.267  0.00  0.00    +0.109 C 
ATOM      5  N   UNL     1       1.578   2.260   0.014  0.00  0.00    -0.176 NA
ATOM      6  C   UNL     1       2.268   2.501  -1.261  0.00  0.00    +0.122 C 
ENDROOT
BRANCH   1   8
ATOM      7  N   UNL     1       4.284   5.321  -2.692  0.00  0.00    -0.284 N 
ATOM      8  C   UNL     1       3.672   4.137  -2.489  0.00  0.00    +0.222 C 
ATOM      9  O   UNL     1       3.784   3.248  -3.307  0.00  0.00    -0.275 OA
ATOM     10  H   UNL     1       4.110   6.156  -1.999  0.00  0.00    +0.155 HD
BRANCH   7  16
ATOM     11  C   UNL     1       5.372   6.759  -4.310  0.00  0.00    +0.051 A 
ATOM     12  C   UNL     1       6.224   6.917  -5.394  0.00  0.00    +0.025 A 
ATOM     13  C   UNL     1       6.842   5.814  -5.952  0.00  0.00    +0.002 A 
ATOM     14  C   UNL     1       6.615   4.552  -5.434  0.00  0.00    +0.002 A 
ATOM     15  C   UNL     1       5.772   4.387  -4.351  0.00  0.00    +0.025 A 
ATOM     16  C   UNL     1       5.143   5.487  -3.788  0.00  0.00    +0.055 A 
BRANCH  11  18
ATOM     17  C   UNL     1       5.735   8.839  -3.246  0.00  0.00    +0.129 C 
ATOM     18  N   UNL     1       4.745   7.874  -3.743  0.00  0.00    -0.335 N 
ATOM     19  C   UNL     1       3.828   8.506  -4.701  0.00  0.00    +0.129 C 
ENDBRANCH  11  18
ENDBRANCH   7  16
ENDBRANCH   1   8
BRANCH   5  20
ATOM     20  S   UNL     1       0.004   1.746   0.037  0.00  0.00    +0.061 S 
ATOM     21  O   UNL     1      -0.575   2.154  -1.195  0.00  0.00    -0.153 OA
ATOM     22  O   UNL     1      -0.531   2.135   1.295  0.00  0.00    -0.153 OA
BRANCH  20  23
ATOM     23  C   UNL     1       0.030  -0.015   0.024  0.00  0.00    +0.106 A 
ATOM     24  C   UNL     1       0.013  -0.696  -1.179  0.00  0.00    +0.032 A 
ATOM     25  C   UNL     1       0.040  -2.078  -1.193  0.00  0.00    +0.047 A 
ATOM     26  C   UNL     1       0.070  -2.781   0.002  0.00  0.00    +0.120 A 
ATOM     27  C   UNL     1       0.081  -2.096   1.208  0.00  0.00    +0.047 A 
ATOM     28  C   UNL     1       0.061  -0.714   1.216  0.00  0.00    +0.032 A 
BRANCH  26  29
ATOM     29  O   UNL     1       0.089  -4.140  -0.008  0.00  0.00    -0.495 OA
ATOM     30  C   UNL     1       0.077  -4.779  -1.286  0.00  0.00    +0.277 C 
ENDBRANCH  26  29
ENDBRANCH  20  23
ENDBRANCH   5  20
TORSDOF 6
