REMARK  Name = ZINC43721185
REMARK  10 active torsions:
REMARK  status: ('A' for Active; 'I' for Inactive)
REMARK    1  A    between atoms: C_1  and  C_2
REMARK    2  A    between atoms: C_17  and  C_35
REMARK    3  A    between atoms: C_19  and  O_33
REMARK    4  A    between atoms: C_22  and  C_32
REMARK    5  A    between atoms: C_23  and  C_24
REMARK    6  A    between atoms: C_23  and  O_31
REMARK    7  A    between atoms: C_24  and  C_26
REMARK    8  A    between atoms: C_26  and  O_27
REMARK    9  A    between atoms: O_27  and  C_28
REMARK   10  A    between atoms: C_28  and  C_30
REMARK                            x       y       z     vdW  Elec       q    Type
REMARK                         _______ _______ _______ _____ _____    ______ ____
ROOT
ATOM      1  C   UNL     1       0.110   1.481  -0.192  0.00  0.00    +0.011 C 
ATOM      2  C   UNL     1       0.082  -0.047  -0.105  0.00  0.00    +0.026 C 
ATOM      3  C   UNL     1      -1.364  -0.542   0.106  0.00  0.00    +0.011 C 
ATOM      4  C   UNL     1      -1.444  -0.868   1.610  0.00  0.00    +0.005 C 
ATOM      5  C   UNL     1      -2.579  -1.796   1.930  0.00  0.00    +0.034 C 
ATOM      6  C   UNL     1      -2.979  -1.728   3.410  0.00  0.00    +0.011 C 
ATOM      7  C   UNL     1      -4.463  -2.120   3.439  0.00  0.00    +0.032 C 
ATOM      8  C   UNL     1      -4.620  -3.449   2.744  0.00  0.00    -0.053 C 
ATOM      9  C   UNL     1      -5.811  -4.068   2.891  0.00  0.00    +0.051 C 
ATOM     10  C   UNL     1      -5.974  -5.380   2.216  0.00  0.00    +0.179 C 
ATOM     11  O   UNL     1      -6.639  -6.283   2.696  0.00  0.00    -0.288 OA
ATOM     12  C   UNL     1      -5.272  -5.518   0.914  0.00  0.00    +0.047 C 
ATOM     13  C   UNL     1      -4.085  -4.899   0.797  0.00  0.00    -0.009 C 
ATOM     14  C   UNL     1      -3.539  -4.112   1.958  0.00  0.00    +0.044 C 
ATOM     15  C   UNL     1      -2.376  -3.249   1.530  0.00  0.00    +0.153 C 
ATOM     16  C   UNL     1      -1.013  -3.758   1.976  0.00  0.00    +0.154 C 
ATOM     17  C   UNL     1       0.091  -2.844   1.429  0.00  0.00    +0.044 C 
ATOM     18  C   UNL     1      -0.051  -1.417   1.950  0.00  0.00    +0.010 C 
ATOM     19  C   UNL     1       0.899  -0.524   1.107  0.00  0.00    +0.135 C 
ATOM     20  C   UNL     1       0.272  -1.310   3.443  0.00  0.00    +0.015 C 
ATOM     21  F   UNL     1      -2.376  -3.276   0.112  0.00  0.00    -0.238 F 
ATOM     22  C   UNL     1      -3.006  -5.171   2.920  0.00  0.00    +0.023 C 
ENDROOT
BRANCH  19  23
ATOM     23  C   UNL     1       1.351   0.661   1.925  0.00  0.00    +0.202 C 
ATOM     24  O   UNL     1       0.537   1.347   2.494  0.00  0.00    -0.291 OA
BRANCH  23  25
ATOM     25  C   UNL     1       2.818   0.988   2.031  0.00  0.00    +0.309 C 
BRANCH  25  26
ATOM     26  O   UNL     1       2.983   2.208   2.755  0.00  0.00    -0.457 OA
BRANCH  26  27
ATOM     27  C   UNL     1       4.240   2.643   2.939  0.00  0.00    +0.304 C 
ATOM     28  O   UNL     1       5.169   2.008   2.499  0.00  0.00    -0.251 OA
ATOM     29  C   UNL     1       4.492   3.922   3.694  0.00  0.00    +0.136 C 
ENDBRANCH  26  27
ENDBRANCH  25  26
ENDBRANCH  23  25
ENDBRANCH  19  23
BRANCH  19  30
ATOM     30  O   UNL     1       2.034  -1.276   0.674  0.00  0.00    -0.380 OA
ATOM     31  H   UNL     1       2.652  -0.775   0.125  0.00  0.00    +0.211 HD
ENDBRANCH  19  30
BRANCH  16  32
ATOM     32  O   UNL     1      -0.755  -5.057   1.414  0.00  0.00    -0.389 OA
ATOM     33  H   UNL     1       0.101  -5.431   1.665  0.00  0.00    +0.210 HD
ENDBRANCH  16  32
TORSDOF 6
