REMARK  Name = ZINC12553870
REMARK  11 active torsions:
REMARK  status: ('A' for Active; 'I' for Inactive)
REMARK    1  A    between atoms: C_1  and  C_2
REMARK    2  A    between atoms: C_4  and  S_27
REMARK    3  A    between atoms: C_6  and  N_9
REMARK    4  A    between atoms: C_7  and  C_8
REMARK    5  A    between atoms: C_10  and  C_12
REMARK    6  A    between atoms: C_12  and  N_63
REMARK    7  A    between atoms: C_13  and  N_63
REMARK    8  A    between atoms: C_14  and  C_15
REMARK    9  A    between atoms: C_14  and  N_63
REMARK   10  A    between atoms: C_20  and  N_21
REMARK   11  A    between atoms: S_27  and  N_30
REMARK                            x       y       z     vdW  Elec       q    Type
REMARK                         _______ _______ _______ _____ _____    ______ ____
ROOT
ATOM      1  N   UNL     1      -3.267   0.395   3.723  0.00  0.00    -0.287 N 
ATOM      2  C   UNL     1      -3.579  -0.778   3.138  0.00  0.00    +0.201 C 
ATOM      3  O   UNL     1      -2.927  -1.180   2.198  0.00  0.00    -0.278 OA
ATOM      4  H   UNL     1      -3.744   0.683   4.517  0.00  0.00    +0.155 HD
ENDROOT
BRANCH   1  10
ATOM      5  C   UNL     1      -1.451   4.870   2.802  0.00  0.00    +0.044 C 
ATOM      6  C   UNL     1      -1.348   3.368   2.725  0.00  0.00    -0.044 A 
ATOM      7  C   UNL     1      -0.247   2.781   2.128  0.00  0.00    +0.032 A 
ATOM      8  C   UNL     1      -0.151   1.404   2.051  0.00  0.00    +0.107 A 
ATOM      9  C   UNL     1      -1.150   0.610   2.581  0.00  0.00    +0.052 A 
ATOM     10  C   UNL     1      -2.253   1.196   3.186  0.00  0.00    +0.038 A 
ATOM     11  C   UNL     1      -2.349   2.580   3.257  0.00  0.00    -0.026 A 
ATOM     12  C   UNL     1      -3.545   3.221   3.913  0.00  0.00    +0.046 C 
BRANCH   8  13
ATOM     13  S   UNL     1       1.250   0.661   1.283  0.00  0.00    +0.056 S 
ATOM     14  O   UNL     1       1.366  -0.646   1.828  0.00  0.00    -0.153 OA
ATOM     15  O   UNL     1       2.303   1.612   1.352  0.00  0.00    -0.153 OA
BRANCH  13  16
ATOM     16  N   UNL     1       0.886   0.473  -0.322  0.00  0.00    -0.204 NA
ATOM     17  H   UNL     1       0.884  -0.412  -0.718  0.00  0.00    +0.144 HD
ATOM     18  H   UNL     1       0.675   1.249  -0.865  0.00  0.00    +0.144 HD
ENDBRANCH  13  16
ENDBRANCH   8  13
ENDBRANCH   1  10
BRANCH   2  19
ATOM     19  C   UNL     1      -4.740  -1.591   3.652  0.00  0.00    +0.019 C 
BRANCH  19  21
ATOM     20  C   UNL     1      -3.715  -3.699   3.046  0.00  0.00    -0.095 C 
ATOM     21  N   UNL     1      -4.873  -2.808   2.824  0.00  0.00    +0.386 N 
ATOM     22  H   UNL     1      -4.901  -2.537   1.834  0.00  0.00    -0.081 HD
BRANCH  21  23
ATOM     23  C   UNL     1      -6.126  -3.515   3.163  0.00  0.00    -0.041 C 
BRANCH  23  24
ATOM     24  C   UNL     1      -6.418  -4.527   2.086  0.00  0.00    -0.043 A 
ATOM     25  C   UNL     1      -6.223  -5.873   2.330  0.00  0.00    +0.003 A 
ATOM     26  C   UNL     1      -6.495  -6.803   1.343  0.00  0.00    +0.000 A 
ATOM     27  C   UNL     1      -6.953  -6.388   0.106  0.00  0.00    +0.002 A 
ATOM     28  C   UNL     1      -7.145  -5.044  -0.147  0.00  0.00    +0.023 A 
ATOM     29  C   UNL     1      -6.877  -4.108   0.844  0.00  0.00    +0.031 A 
BRANCH  29  30
ATOM     30  N   UNL     1      -7.070  -2.748   0.592  0.00  0.00    -0.330 N 
ATOM     31  C   UNL     1      -8.498  -2.436   0.448  0.00  0.00    +0.105 C 
ATOM     32  C   UNL     1      -8.680  -0.922   0.318  0.00  0.00    +0.019 C 
ATOM     33  C   UNL     1      -7.903  -0.422  -0.903  0.00  0.00    +0.003 C 
ATOM     34  C   UNL     1      -6.428  -0.802  -0.750  0.00  0.00    +0.019 C 
ATOM     35  C   UNL     1      -6.311  -2.319  -0.590  0.00  0.00    +0.105 C 
ENDBRANCH  29  30
ENDBRANCH  23  24
ENDBRANCH  21  23
ENDBRANCH  19  21
ENDBRANCH   2  19
TORSDOF 8
