REMARK  Name = ZINC37374435
REMARK  4 active torsions:
REMARK  status: ('A' for Active; 'I' for Inactive)
REMARK    1  A    between atoms: C_5  and  S_6
REMARK    2  A    between atoms: S_6  and  N_9
REMARK    3  A    between atoms: N_9  and  C_10
REMARK    4  A    between atoms: C_11  and  C_18
REMARK                            x       y       z     vdW  Elec       q    Type
REMARK                         _______ _______ _______ _____ _____    ______ ____
ROOT
ATOM      1  N   UNL     1      -1.743  -1.437  -1.571  0.00  0.00    -0.209 N 
ATOM      2  H   UNL     1      -2.604  -1.159  -1.920  0.00  0.00    +0.174 HD
ENDROOT
BRANCH   1   3
ATOM      3  C   UNL     1      -0.844  -2.086  -2.391  0.00  0.00    +0.100 A 
ATOM      4  C   UNL     1      -0.995  -2.418  -3.730  0.00  0.00    +0.096 A 
ATOM      5  C   UNL     1       0.121  -3.112  -4.375  0.00  0.00    -0.021 A 
ATOM      6  C   UNL     1       1.167  -3.341  -3.565  0.00  0.00    -0.004 A 
ATOM      7  S   UNL     1       0.687  -2.650  -2.002  0.00  0.00    -0.076 S 
ATOM      8  C   UNL     1       2.282  -4.060  -4.276  0.00  0.00    +0.043 C 
ATOM      9  C   UNL     1       1.625  -4.638  -5.549  0.00  0.00    +0.010 C 
ATOM     10  C   UNL     1       0.445  -3.668  -5.761  0.00  0.00    +0.037 C 
BRANCH   4  11
ATOM     11  C   UNL     1      -2.177  -2.100  -4.441  0.00  0.00    +0.389 C 
ATOM     12  O   UNL     1      -3.095  -1.519  -3.874  0.00  0.00    -0.240 OA
ATOM     13  O   UNL     1      -2.283  -2.407  -5.622  0.00  0.00    -0.240 OA
ENDBRANCH   4  11
ENDBRANCH   1   3
BRANCH   1  14
ATOM     14  S   UNL     1      -1.352  -1.132   0.009  0.00  0.00    +0.079 S 
ATOM     15  O   UNL     1      -0.861  -2.352   0.548  0.00  0.00    -0.149 OA
ATOM     16  O   UNL     1      -2.455  -0.438   0.574  0.00  0.00    -0.149 OA
BRANCH  14  21
ATOM     17  C   UNL     1      -0.016   1.351   0.009  0.00  0.00    +0.038 A 
ATOM     18  C   UNL     1       1.184   2.038   0.002  0.00  0.00    +0.030 A 
ATOM     19  C   UNL     1       2.343   1.335  -0.013  0.00  0.00    +0.080 A 
ATOM     20  S   UNL     1       1.753  -0.350  -0.017  0.00  0.00    -0.057 S 
ATOM     21  C   UNL     1       0.002  -0.004   0.002  0.00  0.00    +0.147 A 
ATOM     22 CL   UNL     1       3.977   1.921  -0.026  0.00  0.00    -0.076 Cl
ENDBRANCH  14  21
ENDBRANCH   1  14
TORSDOF 4
