REMARK  Name = ZINC10058990
REMARK  8 active torsions:
REMARK  status: ('A' for Active; 'I' for Inactive)
REMARK    1  A    between atoms: C_1  and  C_2
REMARK    2  A    between atoms: C_2  and  C_3
REMARK    3  A    between atoms: C_2  and  C_4
REMARK    4  A    between atoms: C_2  and  C_5
REMARK    5  A    between atoms: C_14  and  O_33
REMARK    6  A    between atoms: C_16  and  C_19
REMARK    7  A    between atoms: C_22  and  C_24
REMARK    8  A    between atoms: C_29  and  N_30
REMARK                            x       y       z     vdW  Elec       q    Type
REMARK                         _______ _______ _______ _____ _____    ______ ____
ROOT
ATOM      1  C   UNL     1       1.589  -2.451   6.969  0.00  0.00    -0.000 C 
ATOM      2  C   UNL     1       2.913  -3.002   6.429  0.00  0.00    +0.009 C 
ATOM      3  C   UNL     1       3.204  -2.401   5.053  0.00  0.00    +0.037 C 
ATOM      4  C   UNL     1       1.988  -2.610   4.158  0.00  0.00    -0.023 A 
ATOM      5  C   UNL     1       0.776  -2.892   4.690  0.00  0.00    -0.004 A 
ATOM      6  S   UNL     1      -0.309  -3.050   3.296  0.00  0.00    -0.078 S 
ATOM      7  C   UNL     1       0.819  -2.746   2.045  0.00  0.00    +0.080 A 
ATOM      8  C   UNL     1       2.033  -2.528   2.709  0.00  0.00    +0.068 A 
ATOM      9  C   UNL     1       3.224  -2.243   1.868  0.00  0.00    +0.220 C 
ATOM     10  N   UNL     1       3.026  -1.976   0.606  0.00  0.00    -0.220 NA
ATOM     11  C   UNL     1       1.716  -1.874  -0.025  0.00  0.00    +0.260 C 
ATOM     12  N   UNL     1       0.709  -2.692   0.677  0.00  0.00    -0.311 N 
ATOM     13  C   UNL     1       0.436  -3.036   6.141  0.00  0.00    +0.046 C 
ATOM     14  H   UNL     1       0.010  -3.165   0.200  0.00  0.00    +0.149 HD
ENDROOT
BRANCH  11  15
ATOM     15  C   UNL     1       1.275  -0.433  -0.012  0.00  0.00    +0.148 A 
ATOM     16  C   UNL     1       2.091   0.638  -0.015  0.00  0.00    +0.049 A 
ATOM     17  C   UNL     1       1.270   1.783  -0.001  0.00  0.00    +0.050 A 
ATOM     18  C   UNL     1      -0.016   1.343   0.009  0.00  0.00    +0.138 A 
ATOM     19  O   UNL     1       0.002  -0.004   0.002  0.00  0.00    -0.456 OA
BRANCH  18  20
ATOM     20  C   UNL     1      -1.224   2.194   0.020  0.00  0.00    +0.047 A 
ATOM     21  C   UNL     1      -1.349   3.223   0.955  0.00  0.00    +0.014 A 
ATOM     22  C   UNL     1      -2.477   4.017   0.956  0.00  0.00    +0.001 A 
ATOM     23  C   UNL     1      -3.489   3.788   0.040  0.00  0.00    +0.002 A 
ATOM     24  C   UNL     1      -3.374   2.766  -0.885  0.00  0.00    +0.033 A 
ATOM     25  C   UNL     1      -2.249   1.968  -0.900  0.00  0.00    +0.137 A 
BRANCH  25  26
ATOM     26  N   UNL     1      -2.128   0.874  -1.891  0.00  0.00    +0.057 N 
ATOM     27  O   UNL     1      -3.023   0.678  -2.694  0.00  0.00    -0.126 OA
ATOM     28  O   UNL     1      -1.134   0.171  -1.904  0.00  0.00    -0.126 OA
ENDBRANCH  25  26
ENDBRANCH  18  20
ENDBRANCH  11  15
BRANCH   1  30
ATOM     29  C   UNL     1       1.441  -4.382   8.547  0.00  0.00    +0.011 C 
ATOM     30  C   UNL     1       1.425  -2.856   8.435  0.00  0.00    -0.035 C 
ATOM     31  C   UNL     1       2.575  -2.272   9.258  0.00  0.00    +0.011 C 
ATOM     32  C   UNL     1       0.094  -2.320   8.966  0.00  0.00    +0.011 C 
ENDBRANCH   1  30
BRANCH   9  33
ATOM     33  O   UNL     1       4.472  -2.259   2.392  0.00  0.00    -0.492 OA
ATOM     34  H   UNL     1       5.170  -2.059   1.754  0.00  0.00    +0.294 HD
ENDBRANCH   9  33
TORSDOF 5
