REMARK  Name = ZINC21986404
REMARK  6 active torsions:
REMARK  status: ('A' for Active; 'I' for Inactive)
REMARK    1  A    between atoms: C_1  and  C_2
REMARK    2  A    between atoms: C_3  and  C_12
REMARK    3  A    between atoms: C_15  and  C_28
REMARK    4  A    between atoms: N_17  and  C_18
REMARK    5  A    between atoms: C_21  and  S_24
REMARK    6  A    between atoms: S_24  and  N_27
REMARK                            x       y       z     vdW  Elec       q    Type
REMARK                         _______ _______ _______ _____ _____    ______ ____
ROOT
ATOM      1  C   UNL     1      -0.013   1.086   0.008  0.00  0.00    +0.149 C 
ATOM      2  C   UNL     1      -0.767   1.597   1.215  0.00  0.00    +0.030 C 
ATOM      3  C   UNL     1      -1.798   2.289   0.771  0.00  0.00    +0.123 C 
ATOM      4  N   UNL     1      -1.843   2.320  -0.610  0.00  0.00    -0.260 N 
ATOM      5  N   UNL     1      -0.770   1.596  -1.148  0.00  0.00    -0.242 N 
ATOM      6  H   UNL     1      -2.568   2.808  -1.278  0.00  0.00    +0.170 HD
ENDROOT
BRANCH   1   9
ATOM      7  C   UNL     1       2.521  -0.617   0.174  0.00  0.00    +0.040 C 
ATOM      8  C   UNL     1       2.483   0.886   0.070  0.00  0.00    -0.062 C 
ATOM      9  C   UNL     1       1.393   1.630  -0.003  0.00  0.00    -0.015 C 
ATOM     10  C   UNL     1       1.732   3.062  -0.089  0.00  0.00    -0.015 A 
ATOM     11  C   UNL     1       0.936   4.206  -0.177  0.00  0.00    +0.028 A 
ATOM     12  C   UNL     1       1.527   5.452  -0.246  0.00  0.00    +0.042 A 
ATOM     13  C   UNL     1       2.906   5.574  -0.229  0.00  0.00    +0.020 A 
ATOM     14  C   UNL     1       3.702   4.444  -0.142  0.00  0.00    +0.006 A 
ATOM     15  C   UNL     1       3.122   3.199  -0.072  0.00  0.00    -0.036 A 
ATOM     16  C   UNL     1       3.684   1.802   0.028  0.00  0.00    +0.066 C 
ATOM     17 CL   UNL     1       0.535   6.873  -0.356  0.00  0.00    -0.084 Cl
ENDBRANCH   1   9
BRANCH   5  18
ATOM     18  C   UNL     1      -0.478   1.400  -2.500  0.00  0.00    +0.049 A 
ATOM     19  C   UNL     1       0.635   0.657  -2.871  0.00  0.00    +0.026 A 
ATOM     20  C   UNL     1       0.917   0.460  -4.209  0.00  0.00    +0.030 A 
ATOM     21  C   UNL     1       0.099   1.012  -5.178  0.00  0.00    +0.105 A 
ATOM     22  C   UNL     1      -1.007   1.756  -4.811  0.00  0.00    +0.030 A 
ATOM     23  C   UNL     1      -1.298   1.952  -3.475  0.00  0.00    +0.026 A 
BRANCH  21  24
ATOM     24  S   UNL     1       0.467   0.765  -6.883  0.00  0.00    +0.056 S 
ATOM     25  O   UNL     1       1.243  -0.422  -6.963  0.00  0.00    -0.153 OA
ATOM     26  O   UNL     1      -0.756   0.925  -7.590  0.00  0.00    -0.153 OA
BRANCH  24  27
ATOM     27  N   UNL     1       1.452   2.008  -7.356  0.00  0.00    -0.204 NA
ATOM     28  H   UNL     1       1.706   1.891  -8.420  0.00  0.00    +0.144 HD
ATOM     29  H   UNL     1       2.374   1.994  -6.756  0.00  0.00    +0.144 HD
ENDBRANCH  24  27
ENDBRANCH  21  24
ENDBRANCH   5  18
BRANCH   3  30
ATOM     30  C   UNL     1      -2.805   2.968   1.663  0.00  0.00    +0.431 C 
ATOM     31  F   UNL     1      -2.469   2.741   3.002  0.00  0.00    -0.165 F 
ATOM     32  F   UNL     1      -2.802   4.344   1.408  0.00  0.00    -0.165 F 
ATOM     33  F   UNL     1      -4.079   2.449   1.408  0.00  0.00    -0.165 F 
ENDBRANCH   3  30
TORSDOF 5
