REMARK  Name = ZINC65362323
REMARK  7 active torsions:
REMARK  status: ('A' for Active; 'I' for Inactive)
REMARK    1  A    between atoms: C_1  and  C_2
REMARK    2  A    between atoms: C_4  and  N_20
REMARK    3  A    between atoms: N_8  and  C_9
REMARK    4  A    between atoms: C_9  and  C_10
REMARK    5  A    between atoms: C_10  and  N_11
REMARK    6  A    between atoms: C_12  and  C_14
REMARK    7  A    between atoms: C_15  and  C_19
REMARK                            x       y       z     vdW  Elec       q    Type
REMARK                         _______ _______ _______ _____ _____    ______ ____
ROOT
ATOM      1  C   UNL     1       0.419   1.475   0.029  0.00  0.00    +0.066 C 
ATOM      2  C   UNL     1       0.210  -0.017   0.011  0.00  0.00    +0.045 A 
ATOM      3  C   UNL     1       0.223  -0.709  -1.184  0.00  0.00    +0.066 A 
ATOM      4  C   UNL     1       0.026  -2.091  -1.156  0.00  0.00    +0.127 A 
ATOM      5  N   UNL     1      -0.167  -2.692   0.014  0.00  0.00    -0.200 NA
ATOM      6  C   UNL     1      -0.172  -1.991   1.139  0.00  0.00    +0.217 A 
ATOM      7  N   UNL     1       0.018  -0.680   1.142  0.00  0.00    -0.220 NA
ATOM      8  N   UNL     1      -0.375  -2.647   2.341  0.00  0.00    -0.312 N 
ATOM      9  H   UNL     1      -0.511  -3.607   2.353  0.00  0.00    +0.149 HD
ENDROOT
BRANCH   4  10
ATOM     10  N   UNL     1       0.030  -2.826  -2.330  0.00  0.00    -0.315 N 
ATOM     11  C   UNL     1       0.044  -4.295  -2.294  0.00  0.00    +0.106 C 
ATOM     12  C   UNL     1      -1.120  -4.820  -3.139  0.00  0.00    +0.019 C 
ATOM     13  C   UNL     1      -1.033  -4.225  -4.547  0.00  0.00    +0.003 C 
ATOM     14  C   UNL     1      -1.145  -2.701  -4.466  0.00  0.00    +0.019 C 
ATOM     15  C   UNL     1       0.013  -2.152  -3.635  0.00  0.00    +0.106 C 
ENDBRANCH   4  10
BRANCH   8  16
ATOM     16  C   UNL     1      -0.383  -1.890   3.595  0.00  0.00    +0.123 C 
BRANCH  16  17
ATOM     17  C   UNL     1      -0.626  -2.845   4.765  0.00  0.00    +0.123 C 
BRANCH  17  18
ATOM     18  N   UNL     1      -0.635  -2.089   6.020  0.00  0.00    -0.309 N 
ATOM     19  C   UNL     1      -0.832  -2.727   7.190  0.00  0.00    +0.254 C 
ATOM     20  O   UNL     1      -1.003  -3.931   7.205  0.00  0.00    -0.270 OA
ATOM     21  H   UNL     1      -0.498  -1.128   6.008  0.00  0.00    +0.149 HD
BRANCH  19  22
ATOM     22  C   UNL     1      -0.841  -1.966   8.450  0.00  0.00    +0.117 A 
ATOM     23  C   UNL     1      -1.018  -2.406   9.757  0.00  0.00    +0.081 A 
ATOM     24  N   UNL     1      -0.969  -1.457  10.659  0.00  0.00    -0.146 NA
ATOM     25  N   UNL     1      -0.774  -0.225  10.351  0.00  0.00    -0.110 NA
ATOM     26  S   UNL     1      -0.621  -0.218   8.736  0.00  0.00    +0.041 S 
ATOM     27  C   UNL     1      -1.247  -3.854  10.107  0.00  0.00    +0.069 C 
ENDBRANCH  19  22
ENDBRANCH  17  18
ENDBRANCH  16  17
ENDBRANCH   8  16
TORSDOF 5
