REMARK  Name = ZINC09359436
REMARK  18 active torsions:
REMARK  status: ('A' for Active; 'I' for Inactive)
REMARK    1  A    between atoms: C_1  and  C_2
REMARK    2  A    between atoms: C_2  and  O_3
REMARK    3  A    between atoms: O_3  and  C_4
REMARK    4  A    between atoms: C_6  and  C_11
REMARK    5  A    between atoms: C_9  and  O_10
REMARK    6  A    between atoms: C_14  and  C_15
REMARK    7  A    between atoms: C_14  and  O_26
REMARK    8  A    between atoms: C_18  and  O_21
REMARK    9  A    between atoms: O_21  and  C_22
REMARK   10  A    between atoms: C_22  and  C_23
REMARK   11  A    between atoms: C_23  and  C_24
REMARK   12  A    between atoms: C_23  and  C_25
REMARK   13  A    between atoms: N_31  and  C_32
REMARK   14  A    between atoms: C_32  and  C_33
REMARK   15  A    between atoms: C_33  and  C_34
REMARK   16  A    between atoms: C_34  and  N_72
REMARK   17  A    between atoms: C_35  and  N_72
REMARK   18  A    between atoms: C_36  and  N_72
REMARK                            x       y       z     vdW  Elec       q    Type
REMARK                         _______ _______ _______ _____ _____    ______ ____
ROOT
ATOM      1  C   UNL     1      -2.679   0.670  -0.021  0.00  0.00    +0.145 C 
ATOM      2  C   UNL     1      -3.241   0.668   1.382  0.00  0.00    +0.071 C 
ATOM      3  C   UNL     1      -2.542   0.461   2.556  0.00  0.00    +0.133 C 
ATOM      4  C   UNL     1      -4.615   0.917   1.253  0.00  0.00    +0.249 C 
ATOM      5  O   UNL     1      -5.417   0.991   2.166  0.00  0.00    -0.282 OA
ATOM      6  C   UNL     1      -4.924   1.075  -0.194  0.00  0.00    +0.288 C 
ATOM      7  O   UNL     1      -6.026   1.300  -0.650  0.00  0.00    -0.266 OA
ATOM      8  N   UNL     1      -3.804   0.931  -0.923  0.00  0.00    -0.284 N 
ENDROOT
BRANCH   1  11
ATOM      9  C   UNL     1       0.655   2.429  -0.278  0.00  0.00    +0.162 A 
ATOM     10  C   UNL     1      -0.299   1.433  -0.145  0.00  0.00    +0.055 A 
ATOM     11  C   UNL     1      -1.643   1.756  -0.160  0.00  0.00    -0.019 A 
ATOM     12  C   UNL     1      -2.039   3.073  -0.296  0.00  0.00    +0.009 A 
ATOM     13  C   UNL     1      -1.093   4.072  -0.430  0.00  0.00    +0.049 A 
ATOM     14  C   UNL     1       0.256   3.755  -0.421  0.00  0.00    +0.158 A 
BRANCH  14  15
ATOM     15  O   UNL     1       1.188   4.736  -0.552  0.00  0.00    -0.503 OA
ATOM     16  H   UNL     1       1.440   4.920  -1.468  0.00  0.00    +0.292 HD
ENDBRANCH  14  15
BRANCH   9  17
ATOM     17  O   UNL     1       1.977   2.112  -0.268  0.00  0.00    -0.489 OA
BRANCH  17  19
ATOM     18  C   UNL     1       3.834   0.572  -0.129  0.00  0.00    +0.048 C 
ATOM     19  C   UNL     1       2.312   0.732  -0.117  0.00  0.00    +0.226 C 
ENDBRANCH  17  19
ENDBRANCH   9  17
ENDBRANCH   1  11
BRANCH   3  20
ATOM     20  C   UNL     1      -3.214   0.638   3.853  0.00  0.00    +0.017 A 
ATOM     21  C   UNL     1      -3.919   1.817   4.123  0.00  0.00    +0.015 A 
ATOM     22  C   UNL     1      -4.549   1.975   5.336  0.00  0.00    +0.046 A 
ATOM     23  C   UNL     1      -4.478   0.972   6.296  0.00  0.00    +0.121 A 
ATOM     24  C   UNL     1      -3.774  -0.199   6.035  0.00  0.00    +0.046 A 
ATOM     25  C   UNL     1      -3.144  -0.369   4.823  0.00  0.00    +0.015 A 
BRANCH  23  26
ATOM     26  O   UNL     1      -5.096   1.136   7.493  0.00  0.00    -0.492 OA
BRANCH  26  27
ATOM     27  C   UNL     1      -5.801   2.362   7.697  0.00  0.00    +0.232 C 
BRANCH  27  28
ATOM     28  C   UNL     1      -6.428   2.364   9.092  0.00  0.00    +0.020 C 
ATOM     29  C   UNL     1      -7.076   3.724   9.358  0.00  0.00    +0.010 C 
ATOM     30  C   UNL     1      -7.491   1.267   9.176  0.00  0.00    +0.010 C 
ENDBRANCH  27  28
ENDBRANCH  26  27
ENDBRANCH  23  26
ENDBRANCH   3  20
BRANCH   3  31
ATOM     31  O   UNL     1      -1.243   0.096   2.513  0.00  0.00    -0.506 OA
ATOM     32  H   UNL     1      -0.895  -0.010   3.444  0.00  0.00    +0.292 HD
ENDBRANCH   3  31
BRANCH   8  33
ATOM     33  C   UNL     1      -3.721   1.021  -2.383  0.00  0.00    +0.107 C 
BRANCH  33  34
ATOM     34  C   UNL     1      -3.940  -0.365  -2.993  0.00  0.00    +0.000 C 
BRANCH  34  35
ATOM     35  C   UNL     1      -3.853  -0.271  -4.517  0.00  0.00    -0.078 C 
BRANCH  35  38
ATOM     36  C   UNL     1      -5.433  -2.074  -4.859  0.00  0.00    -0.097 C 
ATOM     37  C   UNL     1      -3.755  -1.599  -6.539  0.00  0.00    -0.097 C 
ATOM     38  N   UNL     1      -4.045  -1.620  -5.090  0.00  0.00    +0.376 N 
ATOM     39  H   UNL     1      -3.400  -2.272  -4.630  0.00  0.00    -0.083 HD
ENDBRANCH  35  38
ENDBRANCH  34  35
ENDBRANCH  33  34
ENDBRANCH   8  33
TORSDOF 13
