REMARK  Name = ZINC06552834
REMARK  5 active torsions:
REMARK  status: ('A' for Active; 'I' for Inactive)
REMARK    1  A    between atoms: C_7  and  N_11
REMARK    2  A    between atoms: C_8  and  C_9
REMARK    3  A    between atoms: C_12  and  C_14
REMARK    4  A    between atoms: C_14  and  N_49
REMARK    5  A    between atoms: C_17  and  C_20
REMARK                            x       y       z     vdW  Elec       q    Type
REMARK                         _______ _______ _______ _____ _____    ______ ____
ROOT
ATOM      1  N   UNL     1       0.007   1.393  -0.296  0.00  0.00    -0.281 N 
ATOM      2  C   UNL     1       1.153   2.102  -0.278  0.00  0.00    +0.201 C 
ATOM      3  O   UNL     1       2.211   1.549  -0.494  0.00  0.00    -0.278 OA
ATOM      4  H   UNL     1      -0.840   1.836  -0.127  0.00  0.00    +0.155 HD
ENDROOT
BRANCH   1  11
ATOM      5  C   UNL     1      -0.688  -5.350  -1.976  0.00  0.00    +0.001 C 
ATOM      6  C   UNL     1      -1.224  -4.687  -0.709  0.00  0.00    +0.005 C 
ATOM      7  C   UNL     1      -1.808  -3.316  -1.032  0.00  0.00    +0.037 C 
ATOM      8  C   UNL     1      -0.725  -2.250  -0.925  0.00  0.00    -0.018 A 
ATOM      9  C   UNL     1       0.585  -2.525  -1.109  0.00  0.00    -0.004 A 
ATOM     10  S   UNL     1       1.410  -0.970  -0.897  0.00  0.00    -0.077 S 
ATOM     11  C   UNL     1       0.037   0.031  -0.562  0.00  0.00    +0.090 A 
ATOM     12  C   UNL     1      -1.023  -0.859  -0.618  0.00  0.00    +0.084 A 
ATOM     13  C   UNL     1       1.209  -3.851  -1.411  0.00  0.00    +0.043 C 
ATOM     14  C   UNL     1       0.447  -4.518  -2.565  0.00  0.00    +0.005 C 
BRANCH  12  15
ATOM     15  C   UNL     1      -2.367  -0.424  -0.384  0.00  0.00    +0.102 C 
ATOM     16  N   UNL     1      -3.434  -0.079  -0.199  0.00  0.00    -0.191 NA
ENDBRANCH  12  15
ENDBRANCH   1  11
BRANCH   2  17
ATOM     17  C   UNL     1       1.121   3.580   0.011  0.00  0.00    +0.019 C 
BRANCH  17  23
ATOM     18  C   UNL     1       2.513   5.556   0.151  0.00  0.00    -0.077 C 
ATOM     19  C   UNL     1       3.960   6.051   0.119  0.00  0.00    -0.006 C 
ATOM     20  C   UNL     1       4.713   5.488   1.328  0.00  0.00    +0.071 C 
ATOM     21  C   UNL     1       4.639   3.959   1.299  0.00  0.00    -0.006 C 
ATOM     22  C   UNL     1       3.171   3.525   1.296  0.00  0.00    -0.077 C 
ATOM     23  N   UNL     1       2.509   4.079   0.096  0.00  0.00    +0.385 N 
ATOM     24  H   UNL     1       3.024   3.775  -0.739  0.00  0.00    -0.081 HD
BRANCH  20  25
ATOM     25  C   UNL     1       6.155   5.923   1.270  0.00  0.00    +0.213 C 
ATOM     26  O   UNL     1       7.037   5.092   1.211  0.00  0.00    -0.276 OA
ATOM     27  N   UNL     1       6.465   7.234   1.283  0.00  0.00    -0.329 N 
ATOM     28  H   UNL     1       5.759   7.899   1.330  0.00  0.00    +0.145 HD
ATOM     29  H   UNL     1       7.393   7.514   1.246  0.00  0.00    +0.145 HD
ENDBRANCH  20  25
ENDBRANCH  17  23
ENDBRANCH   2  17
TORSDOF 5
