REMARK  Name = ZINC09346075
REMARK  6 active torsions:
REMARK  status: ('A' for Active; 'I' for Inactive)
REMARK    1  A    between atoms: C_1  and  C_2
REMARK    2  A    between atoms: C_10  and  C_13
REMARK    3  A    between atoms: C_16  and  C_19
REMARK    4  A    between atoms: C_19  and  O_21
REMARK    5  A    between atoms: O_21  and  C_22
REMARK    6  A    between atoms: C_23  and  C_31
REMARK                            x       y       z     vdW  Elec       q    Type
REMARK                         _______ _______ _______ _____ _____    ______ ____
ROOT
ATOM      1  C   UNL     1      -0.018   1.503   0.010  0.00  0.00    +0.044 C 
ATOM      2  C   UNL     1       0.002  -0.004   0.002  0.00  0.00    -0.050 A 
ATOM      3  C   UNL     1       0.006  -0.687  -1.202  0.00  0.00    +0.007 A 
ATOM      4  C   UNL     1       0.023  -2.069  -1.225  0.00  0.00    +0.046 A 
ATOM      5  C   UNL     1       0.037  -2.778  -0.037  0.00  0.00    +0.131 A 
ATOM      6  C   UNL     1       0.036  -2.087   1.182  0.00  0.00    +0.043 A 
ATOM      7  C   UNL     1       0.023  -0.699   1.196  0.00  0.00    +0.017 A 
ATOM      8  C   UNL     1       0.057  -2.877   2.438  0.00  0.00    +0.083 C 
ATOM      9  C   UNL     1       0.405  -4.178   2.350  0.00  0.00    +0.028 C 
ATOM     10  C   UNL     1       0.764  -4.785   1.025  0.00  0.00    +0.234 C 
ATOM     11  O   UNL     1       0.051  -4.136  -0.030  0.00  0.00    -0.479 OA
ATOM     12  C   UNL     1       0.420  -4.997   3.621  0.00  0.00    +0.169 C 
ATOM     13  N   UNL     1       0.050  -4.284   4.853  0.00  0.00    -0.181 N 
ATOM     14  C   UNL     1      -0.271  -2.959   4.773  0.00  0.00    +0.209 C 
ATOM     15  N   UNL     1      -0.261  -2.313   3.629  0.00  0.00    -0.216 NA
ATOM     16  N   UNL     1      -0.567  -2.558   6.050  0.00  0.00    -0.275 N 
ATOM     17  C   UNL     1      -0.424  -3.640   6.884  0.00  0.00    +0.208 C 
ATOM     18  N   UNL     1      -0.059  -4.670   6.189  0.00  0.00    -0.169 NA
ATOM     19  H   UNL     1      -0.831  -1.664   6.318  0.00  0.00    +0.156 HD
ENDROOT
BRANCH  10  20
ATOM     20  C   UNL     1       2.244  -4.631   0.791  0.00  0.00    -0.003 A 
ATOM     21  C   UNL     1       2.749  -3.422   0.345  0.00  0.00    +0.008 A 
ATOM     22  C   UNL     1       4.103  -3.274   0.129  0.00  0.00    +0.015 A 
ATOM     23  C   UNL     1       4.965  -4.348   0.361  0.00  0.00    +0.059 A 
ATOM     24  C   UNL     1       4.450  -5.564   0.812  0.00  0.00    +0.015 A 
ATOM     25  C   UNL     1       3.094  -5.697   1.029  0.00  0.00    +0.008 A 
BRANCH  23  26
ATOM     26  C   UNL     1       6.417  -4.197   0.132  0.00  0.00    +0.339 C 
ATOM     27  O   UNL     1       6.863  -3.137  -0.261  0.00  0.00    -0.245 OA
BRANCH  26  28
ATOM     28  O   UNL     1       7.246  -5.234   0.357  0.00  0.00    -0.464 OA
ATOM     29  C   UNL     1       8.637  -5.018   0.114  0.00  0.00    +0.280 C 
ENDBRANCH  26  28
ENDBRANCH  23  26
ENDBRANCH  10  20
BRANCH  12  30
ATOM     30  C   UNL     1      -0.533  -6.151   3.448  0.00  0.00    +0.016 A 
ATOM     31  C   UNL     1      -0.261  -7.444   3.142  0.00  0.00    +0.013 A 
ATOM     32  C   UNL     1      -1.307  -8.341   3.034  0.00  0.00    +0.008 A 
ATOM     33  C   UNL     1      -2.573  -7.902   3.237  0.00  0.00    +0.045 A 
ATOM     34  S   UNL     1      -2.312  -6.174   3.600  0.00  0.00    -0.099 S 
ENDBRANCH  12  30
TORSDOF 4
