REMARK  Name = ZINC09883617
REMARK  7 active torsions:
REMARK  status: ('A' for Active; 'I' for Inactive)
REMARK    1  A    between atoms: C_4  and  O_34
REMARK    2  A    between atoms: C_5  and  N_7
REMARK    3  A    between atoms: C_8  and  C_10
REMARK    4  A    between atoms: C_15  and  C_16
REMARK    5  A    between atoms: C_15  and  N_60
REMARK    6  A    between atoms: C_19  and  C_29
REMARK    7  A    between atoms: C_22  and  C_24
REMARK                            x       y       z     vdW  Elec       q    Type
REMARK                         _______ _______ _______ _____ _____    ______ ____
ROOT
ATOM      1  C   UNL     1       0.296   3.996   1.033  0.00  0.00    +0.072 C 
ATOM      2  C   UNL     1       1.098   3.482  -0.166  0.00  0.00    -0.006 C 
ATOM      3  C   UNL     1       1.114   1.952  -0.144  0.00  0.00    -0.077 C 
ATOM      4  C   UNL     1      -1.039   1.888   0.966  0.00  0.00    -0.077 C 
ATOM      5  C   UNL     1      -1.119   3.416   0.977  0.00  0.00    -0.006 C 
ATOM      6  N   UNL     1      -0.277   1.456  -0.224  0.00  0.00    +0.385 N 
ATOM      7  H   UNL     1      -0.721   1.846  -1.064  0.00  0.00    -0.081 HD
ENDROOT
BRANCH   1   9
ATOM      8  N   UNL     1      -0.432   6.177   1.946  0.00  0.00    -0.282 N 
ATOM      9  C   UNL     1       0.228   5.501   0.985  0.00  0.00    +0.220 C 
ATOM     10  O   UNL     1       0.767   6.104   0.080  0.00  0.00    -0.275 OA
ATOM     11  H   UNL     1      -0.795   5.702   2.710  0.00  0.00    +0.155 HD
BRANCH   8  16
ATOM     12  C   UNL     1      -0.717   9.546   0.496  0.00  0.00    +0.002 A 
ATOM     13  C   UNL     1      -0.916  10.308   1.632  0.00  0.00    +0.004 A 
ATOM     14  C   UNL     1      -0.956   9.705   2.875  0.00  0.00    +0.047 A 
ATOM     15  C   UNL     1      -0.801   8.332   2.985  0.00  0.00    +0.138 A 
ATOM     16  C   UNL     1      -0.595   7.565   1.841  0.00  0.00    +0.075 A 
ATOM     17  C   UNL     1      -0.556   8.177   0.597  0.00  0.00    +0.027 A 
BRANCH  15  18
ATOM     18  O   UNL     1      -0.846   7.737   4.206  0.00  0.00    -0.505 OA
ATOM     19  H   UNL     1       0.014   7.672   4.644  0.00  0.00    +0.292 HD
ENDBRANCH  15  18
ENDBRANCH   8  16
ENDBRANCH   1   9
BRANCH   6  20
ATOM     20  C   UNL     1      -0.282  -0.018  -0.319  0.00  0.00    +0.021 C 
BRANCH  20  21
ATOM     21  C   UNL     1       0.273  -0.419  -1.662  0.00  0.00    +0.219 C 
ATOM     22  O   UNL     1       0.715   0.425  -2.412  0.00  0.00    -0.276 OA
ATOM     23  N   UNL     1       0.279  -1.716  -2.028  0.00  0.00    -0.186 N 
ATOM     24  C   UNL     1       0.783  -2.242  -3.307  0.00  0.00    +0.143 C 
ATOM     25  C   UNL     1       0.550  -3.761  -3.192  0.00  0.00    +0.088 C 
ATOM     26  C   UNL     1      -0.084  -3.931  -1.830  0.00  0.00    +0.075 C 
ATOM     27  N   UNL     1      -0.198  -2.777  -1.261  0.00  0.00    -0.180 NA
BRANCH  26  28
ATOM     28  C   UNL     1      -0.505  -5.208  -1.245  0.00  0.00    +0.035 A 
ATOM     29  C   UNL     1      -1.084  -5.455  -0.013  0.00  0.00    +0.017 A 
ATOM     30  C   UNL     1      -1.397  -6.754   0.314  0.00  0.00    +0.008 A 
ATOM     31  C   UNL     1      -1.121  -7.747  -0.571  0.00  0.00    +0.046 A 
ATOM     32  S   UNL     1      -0.396  -6.852  -1.934  0.00  0.00    -0.095 S 
ENDBRANCH  26  28
BRANCH  24  33
ATOM     33  C   UNL     1       0.002  -1.669  -4.461  0.00  0.00    +0.013 A 
ATOM     34  C   UNL     1       0.446  -1.271  -5.678  0.00  0.00    +0.013 A 
ATOM     35  C   UNL     1      -0.463  -0.774  -6.593  0.00  0.00    +0.008 A 
ATOM     36  C   UNL     1      -1.770  -0.689  -6.242  0.00  0.00    +0.045 A 
ATOM     37  S   UNL     1      -1.747  -1.331  -4.577  0.00  0.00    -0.100 S 
ENDBRANCH  24  33
ENDBRANCH  20  21
ENDBRANCH   6  20
TORSDOF 7
