REMARK  Name = ZINC05129122
REMARK  7 active torsions:
REMARK  status: ('A' for Active; 'I' for Inactive)
REMARK    1  A    between atoms: C_4  and  N_22
REMARK    2  A    between atoms: C_5  and  N_7
REMARK    3  A    between atoms: C_8  and  C_10
REMARK    4  A    between atoms: C_10  and  O_11
REMARK    5  A    between atoms: O_11  and  C_12
REMARK    6  A    between atoms: C_12  and  C_14
REMARK    7  A    between atoms: C_15  and  C_16
REMARK                            x       y       z     vdW  Elec       q    Type
REMARK                         _______ _______ _______ _____ _____    ______ ____
ROOT
ATOM      1  N   UNL     1      -2.453  -0.128   0.209  0.00  0.00    -0.281 N 
ATOM      2  C   UNL     1      -3.567  -0.859   0.411  0.00  0.00    +0.255 C 
ATOM      3  O   UNL     1      -3.483  -2.055   0.590  0.00  0.00    -0.272 OA
ATOM      4  H   UNL     1      -2.513   0.838   0.142  0.00  0.00    +0.155 HD
ENDROOT
BRANCH   1   9
ATOM      5  C   UNL     1       0.109  -2.628  -0.628  0.00  0.00    +0.002 A 
ATOM      6  C   UNL     1       1.245  -2.016  -0.129  0.00  0.00    +0.002 A 
ATOM      7  C   UNL     1       1.156  -0.776   0.477  0.00  0.00    +0.034 A 
ATOM      8  C   UNL     1      -0.069  -0.150   0.596  0.00  0.00    +0.147 A 
ATOM      9  C   UNL     1      -1.211  -0.762   0.096  0.00  0.00    +0.064 A 
ATOM     10  C   UNL     1      -1.118  -2.005  -0.517  0.00  0.00    +0.025 A 
BRANCH   8  11
ATOM     11  N   UNL     1      -0.165   1.174   1.250  0.00  0.00    +0.058 N 
ATOM     12  O   UNL     1       0.820   1.670   1.767  0.00  0.00    -0.126 OA
ATOM     13  O   UNL     1      -1.226   1.770   1.266  0.00  0.00    -0.126 OA
ENDBRANCH   8  11
ENDBRANCH   1   9
BRANCH   2  14
ATOM     14  C   UNL     1      -4.918  -0.189   0.414  0.00  0.00    +0.328 C 
BRANCH  14  15
ATOM     15  O   UNL     1      -5.934  -1.167   0.646  0.00  0.00    -0.452 OA
BRANCH  15  16
ATOM     16  C   UNL     1      -7.210  -0.729   0.680  0.00  0.00    +0.332 C 
ATOM     17  O   UNL     1      -7.452   0.453   0.516  0.00  0.00    -0.246 OA
BRANCH  16  18
ATOM     18  C   UNL     1      -8.264  -1.641   0.905  0.00  0.00    +0.095 C 
ATOM     19  C   UNL     1      -9.549  -1.200   0.939  0.00  0.00    +0.053 C 
BRANCH  19  20
ATOM     20  C   UNL     1     -10.604  -2.113   1.164  0.00  0.00    +0.130 A 
ATOM     21  C   UNL     1     -11.948  -1.803   1.228  0.00  0.00    +0.050 A 
ATOM     22  C   UNL     1     -12.625  -3.009   1.463  0.00  0.00    +0.057 A 
ATOM     23  C   UNL     1     -11.690  -3.984   1.541  0.00  0.00    +0.171 A 
ATOM     24  O   UNL     1     -10.477  -3.443   1.361  0.00  0.00    -0.449 OA
ATOM     25 BR   UNL     1     -12.038  -5.816   1.853  0.00  0.00    -0.008 Br
ENDBRANCH  19  20
ENDBRANCH  16  18
ENDBRANCH  15  16
ENDBRANCH  14  15
ENDBRANCH   2  14
TORSDOF 7
