REMARK  Name = ZINC12413161
REMARK  14 active torsions:
REMARK  status: ('A' for Active; 'I' for Inactive)
REMARK    1  A    between atoms: C_1  and  C_2
REMARK    2  A    between atoms: C_2  and  O_3
REMARK    3  A    between atoms: O_3  and  C_4
REMARK    4  A    between atoms: C_4  and  C_6
REMARK    5  A    between atoms: C_6  and  C_7
REMARK    6  A    between atoms: C_7  and  C_9
REMARK    7  A    between atoms: C_7  and  N_16
REMARK    8  A    between atoms: C_12  and  C_15
REMARK    9  A    between atoms: C_17  and  C_19
REMARK   10  A    between atoms: N_23  and  C_26
REMARK   11  A    between atoms: C_29  and  O_32
REMARK   12  A    between atoms: O_32  and  C_33
REMARK   13  A    between atoms: C_35  and  C_39
REMARK   14  A    between atoms: C_35  and  C_40
REMARK                            x       y       z     vdW  Elec       q    Type
REMARK                         _______ _______ _______ _____ _____    ______ ____
ROOT
ATOM      1  C   UNL     1       1.325   1.991  -0.108  0.00  0.00    +0.102 A 
ATOM      2  C   UNL     1       1.170   3.366   0.010  0.00  0.00    +0.031 A 
ATOM      3  C   UNL     1      -0.133   3.898   0.121  0.00  0.00    +0.038 A 
ATOM      4  C   UNL     1      -1.239   3.066   0.107  0.00  0.00    +0.038 A 
ATOM      5  N   UNL     1      -1.089   1.729  -0.010  0.00  0.00    -0.280 N 
ATOM      6  C   UNL     1       0.121   1.157  -0.112  0.00  0.00    +0.268 A 
ATOM      7  O   UNL     1       0.218  -0.053  -0.212  0.00  0.00    -0.266 OA
ATOM      8  C   UNL     1      -2.638   3.617   0.212  0.00  0.00    +0.061 C 
ATOM      9  C   UNL     1      -2.645   4.989   0.878  0.00  0.00    -0.023 C 
ATOM     10  C   UNL     1      -1.694   5.925   0.119  0.00  0.00    +0.086 C 
ATOM     11  C   UNL     1      -0.299   5.355   0.259  0.00  0.00    +0.165 C 
ATOM     12  O   UNL     1       0.653   6.076   0.476  0.00  0.00    -0.292 OA
ATOM     13  C   UNL     1      -2.179   4.855   2.329  0.00  0.00    +0.011 C 
ATOM     14  C   UNL     1      -4.062   5.566   0.848  0.00  0.00    +0.011 C 
ENDROOT
BRANCH   5  15
ATOM     15  C   UNL     1      -2.229   0.915  -0.020  0.00  0.00    +0.050 A 
ATOM     16  C   UNL     1      -3.095   0.945  -1.105  0.00  0.00    +0.030 A 
ATOM     17  C   UNL     1      -4.215   0.138  -1.117  0.00  0.00    +0.047 A 
ATOM     18  C   UNL     1      -4.482  -0.694  -0.039  0.00  0.00    +0.120 A 
ATOM     19  C   UNL     1      -3.621  -0.720   1.049  0.00  0.00    +0.047 A 
ATOM     20  C   UNL     1      -2.497   0.082   1.059  0.00  0.00    +0.030 A 
BRANCH  18  21
ATOM     21  O   UNL     1      -5.589  -1.484  -0.048  0.00  0.00    -0.495 OA
ATOM     22  C   UNL     1      -6.431  -1.407  -1.200  0.00  0.00    +0.277 C 
ENDBRANCH  18  21
ENDBRANCH   5  15
BRANCH   1  24
ATOM     23  N   UNL     1       2.801   0.049  -0.225  0.00  0.00    -0.304 N 
ATOM     24  C   UNL     1       2.663   1.389  -0.228  0.00  0.00    +0.250 C 
ATOM     25  O   UNL     1       3.643   2.102  -0.329  0.00  0.00    -0.270 OA
ATOM     26  H   UNL     1       2.015  -0.520  -0.213  0.00  0.00    +0.150 HD
BRANCH  23  27
ATOM     27  C   UNL     1       4.138  -0.550  -0.240  0.00  0.00    +0.114 C 
BRANCH  27  28
ATOM     28  C   UNL     1       4.666  -0.637   1.169  0.00  0.00    -0.027 A 
ATOM     29  C   UNL     1       3.820  -0.993   2.202  0.00  0.00    +0.006 A 
ATOM     30  C   UNL     1       4.304  -1.078   3.494  0.00  0.00    +0.004 A 
ATOM     31  C   UNL     1       5.633  -0.797   3.754  0.00  0.00    -0.050 A 
ATOM     32  C   UNL     1       6.478  -0.436   2.721  0.00  0.00    +0.004 A 
ATOM     33  C   UNL     1       5.994  -0.356   1.428  0.00  0.00    +0.006 A 
ATOM     34  C   UNL     1       6.160  -0.885   5.163  0.00  0.00    +0.044 C 
ENDBRANCH  27  28
BRANCH  27  35
ATOM     35  C   UNL     1       4.062  -1.953  -0.844  0.00  0.00    +0.147 C 
BRANCH  35  36
ATOM     36  C   UNL     1       3.652  -1.856  -2.291  0.00  0.00    +0.309 C 
ATOM     37  O   UNL     1       3.443  -0.775  -2.788  0.00  0.00    -0.251 OA
BRANCH  36  38
ATOM     38  O   UNL     1       3.520  -2.970  -3.028  0.00  0.00    -0.465 OA
BRANCH  38  40
ATOM     39  C   UNL     1       3.025  -4.171  -5.088  0.00  0.00    +0.048 C 
ATOM     40  C   UNL     1       3.123  -2.801  -4.414  0.00  0.00    +0.229 C 
ENDBRANCH  38  40
ENDBRANCH  36  38
ENDBRANCH  35  36
ENDBRANCH  27  35
ENDBRANCH  23  27
ENDBRANCH   1  24
TORSDOF 9
