REMARK  Name = ZINC14429706
REMARK  2 active torsions:
REMARK  status: ('A' for Active; 'I' for Inactive)
REMARK    1  A    between atoms: C_5  and  N_7
REMARK    2  A    between atoms: C_8  and  C_10
REMARK                            x       y       z     vdW  Elec       q    Type
REMARK                         _______ _______ _______ _____ _____    ______ ____
ROOT
ATOM      1  N   UNL     1      -0.839   3.321   3.970  0.00  0.00    -0.284 N 
ATOM      2  C   UNL     1      -0.696   1.998   3.752  0.00  0.00    +0.223 C 
ATOM      3  O   UNL     1      -1.142   1.200   4.548  0.00  0.00    -0.275 OA
ATOM      4  H   UNL     1      -0.371   4.045   3.288  0.00  0.00    +0.155 HD
ENDROOT
BRANCH   2   5
ATOM      5  C   UNL     1       0.019   1.512   2.518  0.00  0.00    +0.049 C 
ATOM      6  C   UNL     1      -0.713   2.015   1.272  0.00  0.00    +0.019 C 
ATOM      7  C   UNL     1       0.013   1.521   0.019  0.00  0.00    -0.008 C 
ATOM      8  C   UNL     1       1.447   2.054   0.017  0.00  0.00    +0.007 C 
ATOM      9  C   UNL     1       2.179   1.551   1.263  0.00  0.00    -0.008 C 
ATOM     10  C   UNL     1       1.454   2.045   2.516  0.00  0.00    +0.019 C 
ATOM     11  C   UNL     1       2.204   0.021   1.257  0.00  0.00    +0.021 C 
ATOM     12  C   UNL     1       0.769  -0.512   1.259  0.00  0.00    +0.028 C 
ATOM     13  C   UNL     1       0.037  -0.008   0.013  0.00  0.00    +0.021 C 
ATOM     14  C   UNL     1       0.044  -0.018   2.512  0.00  0.00    +0.034 C 
ATOM     15 BR   UNL     1       0.801  -2.477   1.251  0.00  0.00    -0.084 Br
ENDBRANCH   2   5
BRANCH   1  20
ATOM     16  C   UNL     1      -2.302   3.510   7.339  0.00  0.00    +0.002 A 
ATOM     17  C   UNL     1      -3.057   4.664   7.232  0.00  0.00    +0.001 A 
ATOM     18  C   UNL     1      -3.077   5.373   6.046  0.00  0.00    +0.016 A 
ATOM     19  C   UNL     1      -2.343   4.931   4.962  0.00  0.00    +0.035 A 
ATOM     20  C   UNL     1      -1.584   3.772   5.066  0.00  0.00    +0.047 A 
ATOM     21  C   UNL     1      -1.571   3.059   6.258  0.00  0.00    +0.024 A 
ATOM     22  I   UNL     1      -2.375   6.005   3.164  0.00  0.00    -0.042 I 
ENDBRANCH   1  20
TORSDOF 2
