REMARK  Name = ZINC41586369
REMARK  9 active torsions:
REMARK  status: ('A' for Active; 'I' for Inactive)
REMARK    1  A    between atoms: C_1  and  C_2
REMARK    2  A    between atoms: C_2  and  O_3
REMARK    3  A    between atoms: O_3  and  C_4
REMARK    4  A    between atoms: C_4  and  C_6
REMARK    5  A    between atoms: N_11  and  C_13
REMARK    6  A    between atoms: C_13  and  C_14
REMARK    7  A    between atoms: C_15  and  O_31
REMARK    8  A    between atoms: C_17  and  C_30
REMARK    9  A    between atoms: C_22  and  C_23
REMARK                            x       y       z     vdW  Elec       q    Type
REMARK                         _______ _______ _______ _____ _____    ______ ____
ROOT
ATOM      1  C   UNL     1       2.713  -6.507   4.804  0.00  0.00    +0.020 A 
ATOM      2  C   UNL     1       4.063  -6.814   4.851  0.00  0.00    +0.122 A 
ATOM      3  C   UNL     1       4.629  -7.343   6.007  0.00  0.00    +0.050 A 
ATOM      4  C   UNL     1       3.856  -7.567   7.112  0.00  0.00    -0.033 A 
ATOM      5  C   UNL     1       2.495  -7.262   7.079  0.00  0.00    +0.071 A 
ATOM      6  C   UNL     1       1.915  -6.722   5.919  0.00  0.00    +0.145 A 
ATOM      7  O   UNL     1       0.601  -6.513   6.147  0.00  0.00    -0.451 OA
ATOM      8  C   UNL     1       0.252  -6.875   7.403  0.00  0.00    +0.179 C 
ATOM      9  C   UNL     1      -0.999  -6.787   7.940  0.00  0.00    +0.096 C 
ATOM     10  C   UNL     1       1.406  -7.376   8.065  0.00  0.00    +0.232 C 
ATOM     11  O   UNL     1       1.481  -7.796   9.208  0.00  0.00    -0.283 OA
ATOM     12  C   UNL     1       4.471  -8.141   8.361  0.00  0.00    +0.045 C 
ENDROOT
BRANCH   9  13
ATOM     13  C   UNL     1      -2.066  -6.281   7.165  0.00  0.00    +0.131 A 
ATOM     14  C   UNL     1      -3.376  -6.132   7.581  0.00  0.00    +0.049 A 
ATOM     15  C   UNL     1      -4.081  -5.598   6.493  0.00  0.00    +0.042 A 
ATOM     16  C   UNL     1      -3.199  -5.445   5.480  0.00  0.00    +0.195 A 
ATOM     17  O   UNL     1      -1.988  -5.851   5.888  0.00  0.00    -0.463 OA
ENDBRANCH   9  13
BRANCH   2  18
ATOM     18  O   UNL     1       4.841  -6.597   3.760  0.00  0.00    -0.506 OA
ATOM     19  H   UNL     1       5.242  -5.718   3.731  0.00  0.00    +0.292 HD
ENDBRANCH   2  18
BRANCH   1  20
ATOM     20  C   UNL     1       2.112  -5.935   3.546  0.00  0.00    -0.036 C 
BRANCH  20  25
ATOM     21  C   UNL     1       1.516  -2.381   2.500  0.00  0.00    +0.081 C 
ATOM     22  C   UNL     1       2.967  -1.891   2.511  0.00  0.00    +0.011 C 
ATOM     23  C   UNL     1       3.706  -2.541   3.684  0.00  0.00    -0.018 C 
ATOM     24  C   UNL     1       3.608  -4.063   3.562  0.00  0.00    -0.078 C 
ATOM     25  N   UNL     1       2.198  -4.469   3.585  0.00  0.00    +0.383 N 
ATOM     26  C   UNL     1       1.499  -3.909   2.422  0.00  0.00    -0.064 C 
ATOM     27  H   UNL     1       1.765  -4.131   4.431  0.00  0.00    -0.081 HD
BRANCH  21  28
ATOM     28  C   UNL     1       0.801  -1.808   1.304  0.00  0.00    +0.308 C 
ATOM     29  O   UNL     1       0.324  -2.546   0.475  0.00  0.00    -0.251 OA
BRANCH  28  30
ATOM     30  O   UNL     1       0.693  -0.477   1.160  0.00  0.00    -0.465 OA
BRANCH  30  32
ATOM     31  C   UNL     1      -0.019   1.526   0.010  0.00  0.00    +0.048 C 
ATOM     32  C   UNL     1       0.002  -0.004   0.002  0.00  0.00    +0.229 C 
ENDBRANCH  30  32
ENDBRANCH  28  30
ENDBRANCH  21  28
ENDBRANCH  20  25
ENDBRANCH   1  20
TORSDOF 7
