REMARK  Name = ZINC65510541
REMARK  7 active torsions:
REMARK  status: ('A' for Active; 'I' for Inactive)
REMARK    1  A    between atoms: C_1  and  C_2
REMARK    2  A    between atoms: N_5  and  C_8
REMARK    3  A    between atoms: C_8  and  C_9
REMARK    4  A    between atoms: C_9  and  C_10
REMARK    5  A    between atoms: C_9  and  O_29
REMARK    6  A    between atoms: C_10  and  N_11
REMARK    7  A    between atoms: C_17  and  C_20
REMARK                            x       y       z     vdW  Elec       q    Type
REMARK                         _______ _______ _______ _____ _____    ______ ____
ROOT
ATOM      1  N   UNL     1       3.476  -6.287   2.330  0.00  0.00    -0.222 N 
ATOM      2  C   UNL     1       4.819  -6.400   2.388  0.00  0.00    +0.247 C 
ATOM      3  O   UNL     1       5.613  -6.179   1.499  0.00  0.00    -0.273 OA
ATOM      4  C   UNL     1       5.125  -6.858   3.795  0.00  0.00    +0.113 C 
ATOM      5  C   UNL     1       5.986  -5.826   4.515  0.00  0.00    +0.036 C 
ATOM      6  C   UNL     1       7.339  -5.707   3.809  0.00  0.00    +0.011 C 
ATOM      7  C   UNL     1       8.036  -7.069   3.813  0.00  0.00    +0.019 C 
ATOM      8  C   UNL     1       7.171  -8.089   3.070  0.00  0.00    +0.011 C 
ATOM      9  C   UNL     1       5.817  -8.217   3.773  0.00  0.00    +0.036 C 
ATOM     10  N   UNL     1       3.805  -6.963   4.431  0.00  0.00    -0.285 N 
ATOM     11  C   UNL     1       2.903  -6.603   3.498  0.00  0.00    +0.309 C 
ATOM     12  O   UNL     1       1.704  -6.573   3.692  0.00  0.00    -0.252 OA
ATOM     13  H   UNL     1       3.620  -7.233   5.344  0.00  0.00    +0.151 HD
ENDROOT
BRANCH   7  14
ATOM     14  C   UNL     1       9.373  -6.951   3.127  0.00  0.00    -0.044 A 
ATOM     15  C   UNL     1       9.440  -6.539   1.809  0.00  0.00    +0.004 A 
ATOM     16  C   UNL     1      10.666  -6.431   1.181  0.00  0.00    +0.000 A 
ATOM     17  C   UNL     1      11.825  -6.733   1.870  0.00  0.00    +0.000 A 
ATOM     18  C   UNL     1      11.758  -7.144   3.188  0.00  0.00    +0.000 A 
ATOM     19  C   UNL     1      10.532  -7.249   3.818  0.00  0.00    +0.004 A 
ENDBRANCH   7  14
BRANCH   1  20
ATOM     20  C   UNL     1       2.736  -5.863   1.138  0.00  0.00    +0.147 C 
BRANCH  20  21
ATOM     21  C   UNL     1       2.582  -4.341   1.147  0.00  0.00    +0.116 C 
BRANCH  21  22
ATOM     22  O   UNL     1       3.869  -3.731   1.030  0.00  0.00    -0.392 OA
ATOM     23  H   UNL     1       4.342  -3.965   0.220  0.00  0.00    +0.210 HD
ENDBRANCH  21  22
BRANCH  21  24
ATOM     24  C   UNL     1       1.704  -3.911  -0.029  0.00  0.00    -0.046 C 
BRANCH  24  29
ATOM     25  C   UNL     1      -0.019   1.526   0.010  0.00  0.00    +0.007 C 
ATOM     26  C   UNL     1       0.002  -0.004   0.002  0.00  0.00    -0.018 C 
ATOM     27  C   UNL     1       0.727  -0.499  -1.252  0.00  0.00    -0.016 C 
ATOM     28  C   UNL     1       0.814  -2.027  -1.215  0.00  0.00    -0.078 C 
ATOM     29  N   UNL     1       1.556  -2.449  -0.021  0.00  0.00    +0.381 N 
ATOM     30  C   UNL     1       0.829  -2.040   1.187  0.00  0.00    -0.078 C 
ATOM     31  C   UNL     1       0.743  -0.513   1.242  0.00  0.00    -0.016 C 
ATOM     32  H   UNL     1       2.469  -2.020  -0.024  0.00  0.00    -0.082 HD
ENDBRANCH  24  29
ENDBRANCH  21  24
ENDBRANCH  20  21
ENDBRANCH   1  20
TORSDOF 6
