REMARK  Name = ZINC55188230
REMARK  2 active torsions:
REMARK  status: ('A' for Active; 'I' for Inactive)
REMARK    1  A    between atoms: C_2  and  C_7
REMARK    2  A    between atoms: C_19  and  C_21
REMARK                            x       y       z     vdW  Elec       q    Type
REMARK                         _______ _______ _______ _____ _____    ______ ____
ROOT
ATOM      1  C   UNK A   1       1.800   3.450   0.003  0.00  0.00    +0.266 C 
ATOM      2  O   UNK A   1       1.002   4.367   0.015  0.00  0.00    -0.268 OA
ATOM      3  N   UNK A   2       3.123   3.708  -0.008  0.00  0.00    -0.279 N 
ATOM      4  C   UNK A   2       3.747   5.021  -0.002  0.00  0.00    +0.080 C 
ATOM      5  C   UNK A   2       3.020   6.143   0.710  0.00  0.00    +0.023 C 
ATOM      6  C   UNK A   2       3.863   7.417   0.537  0.00  0.00    +0.002 C 
ATOM      7  C   UNK A   2       5.278   7.226   1.076  0.00  0.00    +0.000 C 
ATOM      8  C   UNK A   2       5.964   6.008   0.437  0.00  0.00    +0.005 C 
ATOM      9  C   UNK A   2       5.089   4.800   0.748  0.00  0.00    +0.012 C 
ATOM     10  C   UNK A   2       5.552   3.488   0.095  0.00  0.00    +0.039 C 
ATOM     11  C   UNK A   2       4.216   2.706  -0.023  0.00  0.00    +0.190 C 
ENDROOT
BRANCH   1  13
ATOM     12  C   UNK A   1      -0.022   1.784   0.012  0.00  0.00    +0.081 A 
ATOM     13  C   UNK A   1       1.322   2.058   0.001  0.00  0.00    +0.135 A 
ATOM     14  N   UNK A   1       2.190   1.044  -0.013  0.00  0.00    -0.221 NA
ATOM     15  C   UNK A   1       1.777  -0.208  -0.016  0.00  0.00    +0.156 A 
ATOM     16  S   UNK A   1       0.002  -0.004   0.002  0.00  0.00    -0.060 S 
ATOM     17  N   UNK A   1       2.523  -1.374  -0.029  0.00  0.00    -0.338 N 
ATOM     18  H   UNK A   1       3.492  -1.331  -0.038  0.00  0.00    +0.144 HD
ATOM     19  H   UNK A   1       2.077  -2.236  -0.030  0.00  0.00    +0.144 HD
ENDBRANCH   1  13
BRANCH  11  20
ATOM     20  C   UNK A   2       4.188   1.936  -1.318  0.00  0.00    +0.376 C 
ATOM     21  O   UNK A   2       3.448   2.287  -2.221  0.00  0.00    -0.244 OA
ATOM     22  O   UNK A   2       4.907   0.961  -1.463  0.00  0.00    -0.244 OA
ENDBRANCH  11  20
TORSDOF 2
