REMARK  Name = ZINC23505149
REMARK  7 active torsions:
REMARK  status: ('A' for Active; 'I' for Inactive)
REMARK    1  A    between atoms: C_1  and  C_2
REMARK    2  A    between atoms: C_4  and  C_7
REMARK    3  A    between atoms: C_12  and  C_14
REMARK    4  A    between atoms: C_17  and  C_20
REMARK    5  A    between atoms: C_20  and  N_21
REMARK    6  A    between atoms: C_25  and  C_28
REMARK    7  A    between atoms: C_28  and  N_29
REMARK                            x       y       z     vdW  Elec       q    Type
REMARK                         _______ _______ _______ _____ _____    ______ ____
ROOT
ATOM      1  C   UNL     1      -2.176  -6.776  -0.012  0.00  0.00    +0.017 A 
ATOM      2  C   UNL     1      -3.175  -7.750  -0.018  0.00  0.00    +0.012 A 
ATOM      3  C   UNL     1      -2.832  -9.086  -0.021  0.00  0.00    +0.005 A 
ATOM      4  C   UNL     1      -1.500  -9.462  -0.017  0.00  0.00    -0.033 A 
ATOM      5  C   UNL     1      -0.504  -8.501  -0.010  0.00  0.00    +0.005 A 
ATOM      6  C   UNL     1      -0.834  -7.162  -0.013  0.00  0.00    +0.012 A 
ENDROOT
BRANCH   1  12
ATOM      7  C   UNL     1      -1.865  -3.128  -0.006  0.00  0.00    +0.097 A 
ATOM      8  C   UNL     1      -3.189  -2.711  -0.004  0.00  0.00    +0.100 A 
ATOM      9  C   UNL     1      -4.201  -3.683  -0.005  0.00  0.00    +0.252 A 
ATOM     10  O   UNL     1      -5.377  -3.355  -0.003  0.00  0.00    -0.268 OA
ATOM     11  N   UNL     1      -3.852  -4.986  -0.008  0.00  0.00    -0.307 N 
ATOM     12  C   UNL     1      -2.536  -5.343  -0.009  0.00  0.00    +0.141 A 
ATOM     13  N   UNL     1      -1.581  -4.440  -0.014  0.00  0.00    -0.227 NA
ATOM     14  H   UNL     1      -4.539  -5.671  -0.008  0.00  0.00    +0.170 HD
BRANCH   7  18
ATOM     15  C   UNL     1      -0.018   1.503   0.010  0.00  0.00    +0.073 C 
ATOM     16  C   UNL     1       0.002  -0.004   0.002  0.00  0.00    +0.076 A 
ATOM     17  N   UNL     1      -1.014  -0.825   0.002  0.00  0.00    -0.243 NA
ATOM     18  C   UNL     1      -0.772  -2.132  -0.006  0.00  0.00    +0.097 A 
ATOM     19  C   UNL     1       0.543  -2.504  -0.014  0.00  0.00    +0.076 A 
ATOM     20  S   UNL     1       1.336  -1.023  -0.017  0.00  0.00    -0.080 S 
ENDBRANCH   7  18
ENDBRANCH   1  12
BRANCH   4  21
ATOM     21  C   UNL     1      -1.133 -10.923  -0.019  0.00  0.00    +0.119 C 
BRANCH  21  22
ATOM     22  N   UNL     1      -1.008 -11.394  -1.405  0.00  0.00    -0.298 NA
ATOM     23  C   UNL     1      -2.304 -11.354  -2.093  0.00  0.00    +0.085 C 
ATOM     24  C   UNL     1      -2.111 -11.710  -3.569  0.00  0.00    +0.016 C 
ATOM     25  C   UNL     1      -1.500 -13.110  -3.675  0.00  0.00    +0.004 C 
ATOM     26  C   UNL     1      -0.174 -13.139  -2.909  0.00  0.00    -0.014 C 
ATOM     27  C   UNL     1      -0.424 -12.741  -1.452  0.00  0.00    +0.086 C 
BRANCH  26  28
ATOM     28  C   UNL     1       0.414 -14.550  -2.960  0.00  0.00    -0.082 C 
BRANCH  28  29
ATOM     29  N   UNL     1       0.760 -14.887  -4.347  0.00  0.00    +0.378 N 
ATOM     30  H   UNL     1       1.149 -15.817  -4.381  0.00  0.00    -0.090 HD
ATOM     31  H   UNL     1      -0.070 -14.848  -4.920  0.00  0.00    -0.090 HD
ATOM     32  H   UNL     1       1.440 -14.226  -4.694  0.00  0.00    -0.090 HD
ENDBRANCH  28  29
ENDBRANCH  26  28
ENDBRANCH  21  22
ENDBRANCH   4  21
TORSDOF 6
