REMARK  Name = ZINC39464680
REMARK  3 active torsions:
REMARK  status: ('A' for Active; 'I' for Inactive)
REMARK    1  A    between atoms: C_1  and  O_2
REMARK    2  A    between atoms: O_2  and  P_3
REMARK    3  A    between atoms: C_11  and  O_20
REMARK                            x       y       z     vdW  Elec       q    Type
REMARK                         _______ _______ _______ _____ _____    ______ ____
ROOT
ATOM      1  P   UNL     1      -1.336  -0.899   0.010  0.00  0.00    +0.421 P 
ATOM      2  O   UNL     1      -2.315  -0.346   0.973  0.00  0.00    -0.239 OA
ATOM      3  N   UNL     1      -1.993  -0.959  -1.506  0.00  0.00    -0.156 NA
ATOM      4  N   UNL     1      -2.842  -2.011  -1.770  0.00  0.00    -0.224 NA
ATOM      5  C   UNL     1      -3.321  -1.929  -3.158  0.00  0.00    +0.108 C 
ATOM      6  C   UNL     1      -4.499  -2.888  -3.328  0.00  0.00    +0.052 C 
ATOM      7  C   UNL     1      -4.112  -4.259  -2.835  0.00  0.00    -0.038 A 
ATOM      8  C   UNL     1      -4.865  -5.347  -3.247  0.00  0.00    +0.050 A 
ATOM      9  C   UNL     1      -4.542  -6.623  -2.815  0.00  0.00    +0.130 A 
ATOM     10  C   UNL     1      -3.460  -6.808  -1.966  0.00  0.00    +0.055 A 
ATOM     11  C   UNL     1      -2.714  -5.722  -1.559  0.00  0.00    +0.023 A 
ATOM     12  C   UNL     1      -3.037  -4.443  -1.992  0.00  0.00    -0.022 A 
ATOM     13  C   UNL     1      -2.187  -3.294  -1.517  0.00  0.00    +0.130 C 
ATOM     14  C   UNL     1      -1.890  -3.476  -0.025  0.00  0.00    +0.196 C 
ATOM     15  O   UNL     1      -0.980  -2.439   0.393  0.00  0.00    -0.294 OA
ATOM     16  I   UNL     1      -2.961  -8.732  -1.304  0.00  0.00    -0.040 I 
ATOM     17  H   UNL     1      -1.790  -0.287  -2.176  0.00  0.00    +0.153 HD
ENDROOT
BRANCH   1  19
ATOM     18  C   UNL     1      -0.017   1.425   0.010  0.00  0.00    +0.206 C 
ATOM     19  O   UNL     1       0.002  -0.004   0.002  0.00  0.00    -0.299 OA
ENDBRANCH   1  19
BRANCH   9  20
ATOM     20  O   UNL     1      -5.282  -7.689  -3.221  0.00  0.00    -0.506 OA
ATOM     21  H   UNL     1      -4.966  -8.100  -4.037  0.00  0.00    +0.292 HD
ENDBRANCH   9  20
TORSDOF 2
