REMARK  Name = ZINC58989606
REMARK  10 active torsions:
REMARK  status: ('A' for Active; 'I' for Inactive)
REMARK    1  A    between atoms: C_3  and  C_10
REMARK    2  A    between atoms: C_5  and  N_7
REMARK    3  A    between atoms: C_13  and  S_16
REMARK    4  A    between atoms: N_14  and  N_15
REMARK    5  A    between atoms: S_16  and  C_17
REMARK    6  A    between atoms: C_17  and  C_18
REMARK    7  A    between atoms: C_18  and  C_19
REMARK    8  A    between atoms: C_19  and  C_20
REMARK    9  A    between atoms: N_22  and  N_23
REMARK   10  A    between atoms: C_24  and  C_25
REMARK                            x       y       z     vdW  Elec       q    Type
REMARK                         _______ _______ _______ _____ _____    ______ ____
ROOT
ATOM      1  C   UNL     1       3.657   2.160  -0.022  0.00  0.00    +0.182 A 
ATOM      2  N   UNL     1       4.844   1.683  -0.315  0.00  0.00    -0.127 NA
ATOM      3  N   UNL     1       5.726   2.614  -0.223  0.00  0.00    -0.121 NA
ATOM      4  C   UNL     1       5.155   3.742   0.135  0.00  0.00    +0.209 A 
ATOM      5  N   UNL     1       3.819   3.495   0.270  0.00  0.00    -0.224 N 
ENDROOT
BRANCH   1   8
ATOM      6  C   UNL     1      -0.017   1.379   0.010  0.00  0.00    +0.003 A 
ATOM      7  C   UNL     1       1.167   2.088   0.002  0.00  0.00    +0.012 A 
ATOM      8  C   UNL     1       2.385   1.407  -0.013  0.00  0.00    +0.023 A 
ATOM      9  C   UNL     1       2.397   0.011  -0.021  0.00  0.00    +0.044 A 
ATOM     10  C   UNL     1       1.206  -0.686  -0.013  0.00  0.00    +0.127 A 
ATOM     11  C   UNL     1       0.002  -0.004   0.002  0.00  0.00    +0.033 A 
BRANCH  10  12
ATOM     12  N   UNL     1       1.217  -2.166  -0.021  0.00  0.00    +0.056 N 
ATOM     13  O   UNL     1       2.268  -2.763  -0.035  0.00  0.00    -0.126 OA
ATOM     14  O   UNL     1       0.174  -2.778  -0.015  0.00  0.00    -0.126 OA
ENDBRANCH  10  12
ENDBRANCH   1   8
BRANCH   5  15
ATOM     15  N   UNL     1       2.846   4.386   0.623  0.00  0.00    -0.295 N 
ATOM     16  H   UNL     1       2.722   4.408   1.625  0.00  0.00    +0.163 HD
ATOM     17  H   UNL     1       3.051   5.307   0.265  0.00  0.00    +0.163 HD
ENDBRANCH   5  15
BRANCH   4  18
ATOM     18  S   UNL     1       5.963   5.288   0.387  0.00  0.00    -0.084 S 
BRANCH  18  19
ATOM     19  C   UNL     1       7.707   4.933   0.040  0.00  0.00    +0.078 C 
BRANCH  19  20
ATOM     20  C   UNL     1       8.533   6.208   0.224  0.00  0.00    +0.020 C 
BRANCH  20  21
ATOM     21  C   UNL     1      10.005   5.909  -0.069  0.00  0.00    +0.098 C 
BRANCH  21  22
ATOM     22  C   UNL     1      10.819   7.164   0.112  0.00  0.00    +0.232 C 
ATOM     23  O   UNL     1      10.275   8.197   0.443  0.00  0.00    -0.274 OA
ATOM     24  N   UNL     1      12.150   7.140  -0.093  0.00  0.00    -0.207 N 
ATOM     25  H   UNL     1      12.585   6.314  -0.358  0.00  0.00    +0.177 HD
BRANCH  24  26
ATOM     26  N   UNL     1      12.907   8.307   0.075  0.00  0.00    -0.188 NA
ATOM     27  C   UNL     1      14.189   8.283  -0.123  0.00  0.00    +0.138 C 
BRANCH  27  28
ATOM     28  C   UNL     1      14.985   9.512   0.054  0.00  0.00    -0.005 A 
ATOM     29  C   UNL     1      14.363  10.701   0.441  0.00  0.00    +0.010 A 
ATOM     30  C   UNL     1      15.113  11.847   0.605  0.00  0.00    +0.016 A 
ATOM     31  C   UNL     1      16.480  11.819   0.388  0.00  0.00    +0.018 A 
ATOM     32  C   UNL     1      17.104  10.644   0.005  0.00  0.00    +0.016 A 
ATOM     33  C   UNL     1      16.366   9.490  -0.158  0.00  0.00    +0.010 A 
ATOM     34 BR   UNL     1      17.501  13.395   0.615  0.00  0.00    -0.050 Br
ENDBRANCH  27  28
ENDBRANCH  24  26
ENDBRANCH  21  22
ENDBRANCH  20  21
ENDBRANCH  19  20
ENDBRANCH  18  19
ENDBRANCH   4  18
TORSDOF 10
