REMARK  Name = ZINC01871094
REMARK  9 active torsions:
REMARK  status: ('A' for Active; 'I' for Inactive)
REMARK    1  A    between atoms: C_1  and  C_2
REMARK    2  A    between atoms: C_2  and  C_3
REMARK    3  A    between atoms: C_6  and  O_9
REMARK    4  A    between atoms: O_9  and  C_10
REMARK    5  A    between atoms: C_16  and  O_33
REMARK    6  A    between atoms: C_17  and  C_25
REMARK    7  A    between atoms: C_20  and  C_21
REMARK    8  A    between atoms: C_25  and  N_26
REMARK    9  A    between atoms: C_29  and  C_32
REMARK                            x       y       z     vdW  Elec       q    Type
REMARK                         _______ _______ _______ _____ _____    ______ ____
ROOT
ATOM      1  C   UNL     1       3.982  -1.983  -4.473  0.00  0.00    +0.222 A 
ATOM      2  C   UNL     1       4.788  -2.401  -5.570  0.00  0.00    +0.235 A 
ATOM      3  O   UNL     1       4.319  -2.535  -6.688  0.00  0.00    -0.283 OA
ATOM      4  C   UNL     1       6.212  -2.665  -5.299  0.00  0.00    +0.068 A 
ATOM      5  C   UNL     1       7.080  -3.078  -6.311  0.00  0.00    +0.019 A 
ATOM      6  C   UNL     1       8.394  -3.312  -6.021  0.00  0.00    +0.046 A 
ATOM      7  C   UNL     1       8.871  -3.141  -4.723  0.00  0.00    +0.122 A 
ATOM      8  C   UNL     1       8.022  -2.732  -3.708  0.00  0.00    +0.020 A 
ATOM      9  C   UNL     1       6.684  -2.489  -3.986  0.00  0.00    +0.144 A 
ATOM     10  O   UNL     1       5.835  -2.090  -3.018  0.00  0.00    -0.447 OA
ATOM     11  C   UNL     1       4.541  -1.842  -3.254  0.00  0.00    +0.254 A 
ENDROOT
BRANCH  11  12
ATOM     12  C   UNL     1       3.670  -1.393  -2.109  0.00  0.00    +0.454 C 
ATOM     13  F   UNL     1       2.334  -1.361  -2.523  0.00  0.00    -0.163 F 
ATOM     14  F   UNL     1       3.806  -2.287  -1.041  0.00  0.00    -0.163 F 
ATOM     15  F   UNL     1       4.062  -0.114  -1.700  0.00  0.00    -0.163 F 
ENDBRANCH  11  12
BRANCH   7  16
ATOM     16  O   UNL     1      10.180  -3.377  -4.450  0.00  0.00    -0.506 OA
ATOM     17  H   UNL     1      10.749  -2.603  -4.552  0.00  0.00    +0.292 HD
ENDBRANCH   7  16
BRANCH   1  18
ATOM     18  O   UNL     1       2.659  -1.723  -4.655  0.00  0.00    -0.448 OA
BRANCH  18  22
ATOM     19  C   UNL     1       0.182  -4.872  -5.637  0.00  0.00    -0.047 A 
ATOM     20  C   UNL     1      -0.317  -3.582  -5.615  0.00  0.00    +0.007 A 
ATOM     21  C   UNL     1       0.510  -2.526  -5.287  0.00  0.00    +0.046 A 
ATOM     22  C   UNL     1       1.843  -2.760  -4.978  0.00  0.00    +0.129 A 
ATOM     23  C   UNL     1       2.341  -4.055  -5.000  0.00  0.00    +0.046 A 
ATOM     24  C   UNL     1       1.508  -5.108  -5.324  0.00  0.00    +0.007 A 
BRANCH  19  26
ATOM     25  C   UNL     1      -1.384  -6.566  -4.728  0.00  0.00    +0.009 C 
ATOM     26  C   UNL     1      -0.723  -6.022  -5.996  0.00  0.00    +0.032 C 
ENDBRANCH  19  26
ENDBRANCH  18  22
ENDBRANCH   1  18
BRANCH   8  27
ATOM     27  C   UNL     1       8.548  -2.551  -2.308  0.00  0.00    -0.036 C 
BRANCH  27  28
ATOM     28  N   UNL     1       9.018  -1.170  -2.136  0.00  0.00    +0.383 N 
ATOM     29  C   UNL     1       7.881  -0.250  -2.254  0.00  0.00    -0.078 C 
ATOM     30  C   UNL     1       8.376   1.195  -2.156  0.00  0.00    -0.016 C 
ATOM     31  C   UNL     1       9.065   1.402  -0.804  0.00  0.00    -0.018 C 
ATOM     32  C   UNL     1      10.202   0.387  -0.661  0.00  0.00    -0.016 C 
ATOM     33  C   UNL     1       9.639  -1.027  -0.814  0.00  0.00    -0.078 C 
ATOM     34  C   UNL     1       9.632   2.821  -0.732  0.00  0.00    +0.007 C 
ATOM     35  H   UNL     1       9.697  -0.955  -2.850  0.00  0.00    -0.081 HD
ENDBRANCH  27  28
ENDBRANCH   8  27
TORSDOF 7
