REMARK  Name = ZINC14991061
REMARK  12 active torsions:
REMARK  status: ('A' for Active; 'I' for Inactive)
REMARK    1  A    between atoms: C_1  and  C_2
REMARK    2  A    between atoms: C_4  and  C_7
REMARK    3  A    between atoms: C_9  and  C_18
REMARK    4  A    between atoms: C_11  and  N_13
REMARK    5  A    between atoms: N_20  and  C_21
REMARK    6  A    between atoms: C_21  and  C_22
REMARK    7  A    between atoms: C_24  and  O_32
REMARK    8  A    between atoms: C_25  and  O_30
REMARK    9  A    between atoms: C_26  and  O_28
REMARK   10  A    between atoms: O_28  and  C_29
REMARK   11  A    between atoms: O_30  and  C_31
REMARK   12  A    between atoms: O_32  and  C_33
REMARK                            x       y       z     vdW  Elec       q    Type
REMARK                         _______ _______ _______ _____ _____    ______ ____
ROOT
ATOM      1  C   UNL     1      -6.039  -1.172   4.619  0.00  0.00    -0.009 A 
ATOM      2  C   UNL     1      -5.653  -0.925   3.303  0.00  0.00    +0.022 A 
ATOM      3  C   UNL     1      -4.476  -0.225   3.045  0.00  0.00    +0.039 A 
ATOM      4  C   UNL     1      -3.693   0.235   4.105  0.00  0.00    +0.041 A 
ATOM      5  C   UNL     1      -4.083  -0.007   5.413  0.00  0.00    +0.070 A 
ATOM      6  C   UNL     1      -5.251  -0.708   5.674  0.00  0.00    +0.037 A 
ENDROOT
BRANCH   1  10
ATOM      7  C   UNL     1     -10.303  -3.716   3.579  0.00  0.00    +0.044 C 
ATOM      8  C   UNL     1      -9.287  -3.114   4.515  0.00  0.00    -0.043 A 
ATOM      9  C   UNL     1      -8.186  -2.452   4.017  0.00  0.00    +0.019 A 
ATOM     10  C   UNL     1      -7.284  -1.919   4.898  0.00  0.00    +0.020 A 
ATOM     11  S   UNL     1      -7.999  -2.366   6.471  0.00  0.00    -0.096 S 
ATOM     12  C   UNL     1      -9.444  -3.218   5.859  0.00  0.00    +0.049 A 
ENDBRANCH   1  10
BRANCH   5  13
ATOM     13  N   UNL     1      -3.294   0.458   6.476  0.00  0.00    -0.200 N 
ATOM     14  C   UNL     1      -2.189   1.229   6.401  0.00  0.00    +0.250 A 
ATOM     15  N   UNL     1      -1.768   1.427   7.623  0.00  0.00    -0.116 NA
ATOM     16  N   UNL     1      -2.533   0.832   8.466  0.00  0.00    -0.023 NA
ATOM     17  N   UNL     1      -3.489   0.225   7.849  0.00  0.00    -0.039 NA
ENDBRANCH   5  13
BRANCH   3  18
ATOM     18  C   UNL     1      -4.060   0.036   1.650  0.00  0.00    +0.244 C 
ATOM     19  O   UNL     1      -4.742  -0.365   0.728  0.00  0.00    -0.270 OA
ATOM     20  N   UNL     1      -2.925   0.718   1.402  0.00  0.00    -0.307 N 
ATOM     21  H   UNL     1      -2.380   1.038   2.138  0.00  0.00    +0.149 HD
BRANCH  20  22
ATOM     22  C   UNL     1      -2.512   0.976   0.020  0.00  0.00    +0.140 C 
BRANCH  22  23
ATOM     23  C   UNL     1      -1.219   1.750   0.017  0.00  0.00    -0.023 A 
ATOM     24  C   UNL     1      -0.013   1.076   0.008  0.00  0.00    +0.054 A 
ATOM     25  C   UNL     1       1.179   1.784   0.000  0.00  0.00    +0.165 A 
ATOM     26  C   UNL     1       1.159   3.174   0.008  0.00  0.00    +0.204 A 
ATOM     27  C   UNL     1      -0.056   3.848   0.022  0.00  0.00    +0.165 A 
ATOM     28  C   UNL     1      -1.244   3.132   0.030  0.00  0.00    +0.054 A 
BRANCH  27  29
ATOM     29  O   UNL     1      -0.081   5.208   0.029  0.00  0.00    -0.491 OA
ATOM     30  C   UNL     1      -1.366   5.833   0.044  0.00  0.00    +0.277 C 
ENDBRANCH  27  29
BRANCH  26  31
ATOM     31  O   UNL     1       2.327   3.873   0.001  0.00  0.00    -0.488 OA
ATOM     32  C   UNL     1       2.872   4.213  -1.276  0.00  0.00    +0.277 C 
ENDBRANCH  26  31
BRANCH  25  33
ATOM     33  O   UNL     1       2.366   1.121  -0.015  0.00  0.00    -0.491 OA
ATOM     34  C   UNL     1       2.311  -0.307  -0.022  0.00  0.00    +0.277 C 
ENDBRANCH  25  33
ENDBRANCH  22  23
ENDBRANCH  20  22
ENDBRANCH   3  18
TORSDOF 8
