REMARK  Name = ZINC01256084
REMARK  3 active torsions:
REMARK  status: ('A' for Active; 'I' for Inactive)
REMARK    1  A    between atoms: C_9  and  C_11
REMARK    2  A    between atoms: N_16  and  C_19
REMARK    3  A    between atoms: C_17  and  O_18
REMARK                            x       y       z     vdW  Elec       q    Type
REMARK                         _______ _______ _______ _____ _____    ______ ____
ROOT
ATOM      1  C   UNL     1       3.400   2.322  -0.970  0.00  0.00    +0.067 A 
ATOM      2  C   UNL     1       3.134   2.304  -2.344  0.00  0.00    +0.259 A 
ATOM      3  N   UNL     1       3.932   2.958  -3.178  0.00  0.00    -0.274 N 
ATOM      4  C   UNL     1       4.992   3.626  -2.729  0.00  0.00    +0.337 A 
ATOM      5  O   UNL     1       5.710   4.213  -3.522  0.00  0.00    -0.246 OA
ATOM      6  N   UNL     1       5.285   3.664  -1.416  0.00  0.00    -0.230 N 
ATOM      7  C   UNL     1       4.491   3.010  -0.516  0.00  0.00    +0.208 A 
ATOM      8  O   UNL     1       2.065   1.626  -2.819  0.00  0.00    -0.267 OA
ATOM      9  H   UNL     1       3.734   2.949  -4.158  0.00  0.00    +0.173 HD
ENDROOT
BRANCH   1  18
ATOM     10  C   UNL     1      -1.310   3.526   0.030  0.00  0.00    +0.000 A 
ATOM     11  C   UNL     1      -0.143   4.269   0.021  0.00  0.00    +0.000 A 
ATOM     12  C   UNL     1       1.079   3.628   0.007  0.00  0.00    +0.002 A 
ATOM     13  C   UNL     1       1.145   2.242   0.003  0.00  0.00    -0.054 A 
ATOM     14  C   UNL     1      -0.018   1.503   0.010  0.00  0.00    -0.047 A 
ATOM     15  C   UNL     1      -1.246   2.148   0.020  0.00  0.00    +0.004 A 
ATOM     16  C   UNL     1       0.002  -0.004   0.002  0.00  0.00    +0.016 C 
ATOM     17  C   UNL     1       1.389  -0.509   0.402  0.00  0.00    -0.077 C 
ATOM     18  C   UNL     1       2.502   1.589  -0.007  0.00  0.00    +0.001 C 
ATOM     19  N   UNL     1       2.396   0.184  -0.422  0.00  0.00    +0.387 N 
ATOM     20  H   UNL     1       2.117   0.141  -1.409  0.00  0.00    -0.085 HD
ATOM     21  H   UNL     1       3.307  -0.276  -0.304  0.00  0.00    -0.085 HD
ENDBRANCH   1  18
BRANCH   6  22
ATOM     22  C   UNL     1       6.408   4.376  -0.971  0.00  0.00    +0.089 A 
ATOM     23  C   UNL     1       7.638   3.740  -0.867  0.00  0.00    +0.029 A 
ATOM     24  C   UNL     1       8.744   4.445  -0.433  0.00  0.00    +0.002 A 
ATOM     25  C   UNL     1       8.626   5.780  -0.091  0.00  0.00    +0.003 A 
ATOM     26  C   UNL     1       7.402   6.416  -0.189  0.00  0.00    +0.040 A 
ATOM     27  C   UNL     1       6.291   5.718  -0.627  0.00  0.00    +0.147 A 
ATOM     28  F   UNL     1       5.095   6.339  -0.722  0.00  0.00    -0.203 F 
ENDBRANCH   6  22
BRANCH   7  29
ATOM     29  O   UNL     1       4.779   3.045   0.803  0.00  0.00    -0.493 OA
ATOM     30  H   UNL     1       5.604   3.590   0.950  0.00  0.00    +0.294 HD
ENDBRANCH   7  29
TORSDOF 3
