REMARK  Name = ZINC10689455
REMARK  6 active torsions:
REMARK  status: ('A' for Active; 'I' for Inactive)
REMARK    1  A    between atoms: C_1  and  C_2
REMARK    2  A    between atoms: C_9  and  C_14
REMARK    3  A    between atoms: N_16  and  C_17
REMARK    4  A    between atoms: C_17  and  C_18
REMARK    5  A    between atoms: C_18  and  C_20
REMARK    6  A    between atoms: C_18  and  C_26
REMARK                            x       y       z     vdW  Elec       q    Type
REMARK                         _______ _______ _______ _____ _____    ______ ____
ROOT
ATOM      1  C   UNL     1       2.286   5.732   0.014  0.00  0.00    +0.117 C 
ENDROOT
BRANCH   1   4
ATOM      2  C   UNL     1       1.156   3.574   0.012  0.00  0.00    +0.244 C 
ATOM      3  O   UNL     1       0.093   4.163   0.026  0.00  0.00    -0.270 OA
ATOM      4  N   UNL     1       2.311   4.268   0.004  0.00  0.00    -0.310 N 
ATOM      5  H   UNL     1       3.160   3.797  -0.007  0.00  0.00    +0.149 HD
BRANCH   2  13
ATOM      6  C   UNL     1      -0.630  -4.314   0.634  0.00  0.00    +0.029 C 
ATOM      7  C   UNL     1      -0.269  -2.849   0.885  0.00  0.00    +0.134 C 
ATOM      8  C   UNL     1      -1.380  -1.964   0.390  0.00  0.00    +0.230 C 
ATOM      9  O   UNL     1      -2.501  -2.426   0.339  0.00  0.00    -0.274 OA
ATOM     10  N   UNL     1      -1.202  -0.704   0.004  0.00  0.00    -0.284 N 
ATOM     11  C   UNL     1       0.002  -0.004   0.002  0.00  0.00    +0.048 A 
ATOM     12  C   UNL     1      -0.017   1.381   0.010  0.00  0.00    +0.037 A 
ATOM     13  C   UNL     1       1.181   2.099   0.002  0.00  0.00    +0.039 A 
ATOM     14  C   UNL     1       2.405   1.422  -0.015  0.00  0.00    +0.014 A 
ATOM     15  C   UNL     1       2.425   0.045  -0.022  0.00  0.00    +0.017 A 
ATOM     16  C   UNL     1       1.234  -0.668  -0.012  0.00  0.00    +0.030 A 
ATOM     17  S   UNL     1       1.255  -2.434  -0.016  0.00  0.00    -0.111 S 
ATOM     18  H   UNL     1      -1.988  -0.225  -0.304  0.00  0.00    +0.155 HD
ENDBRANCH   2  13
ENDBRANCH   1   4
BRANCH   1  19
ATOM     19  C   UNL     1       3.720   6.267   0.003  0.00  0.00    +0.068 C 
BRANCH  19  20
ATOM     20  C   UNL     1       3.697   7.768   0.137  0.00  0.00    -0.013 A 
ATOM     21  C   UNL     1       3.113   8.636  -0.705  0.00  0.00    +0.088 A 
ATOM     22  N   UNL     1       3.297   9.915  -0.257  0.00  0.00    -0.360 N 
ATOM     23  H   UNL     1       2.963  10.713  -0.696  0.00  0.00    +0.165 HD
ATOM     24  C   UNL     1       4.031   9.903   0.908  0.00  0.00    +0.047 A 
ATOM     25  C   UNL     1       4.314   8.557   1.206  0.00  0.00    +0.003 A 
ATOM     26  C   UNL     1       5.053   8.236   2.345  0.00  0.00    +0.010 A 
ATOM     27  C   UNL     1       5.500   9.233   3.167  0.00  0.00    +0.001 A 
ATOM     28  C   UNL     1       5.224  10.562   2.878  0.00  0.00    +0.002 A 
ATOM     29  C   UNL     1       4.495  10.901   1.758  0.00  0.00    +0.026 A 
ENDBRANCH  19  20
BRANCH  19  30
ATOM     30  C   UNL     1       4.387   5.888  -1.294  0.00  0.00    -0.038 A 
ATOM     31  C   UNL     1       3.856   6.318  -2.496  0.00  0.00    +0.004 A 
ATOM     32  C   UNL     1       4.471   5.974  -3.685  0.00  0.00    +0.000 A 
ATOM     33  C   UNL     1       5.611   5.193  -3.674  0.00  0.00    +0.000 A 
ATOM     34  C   UNL     1       6.139   4.759  -2.472  0.00  0.00    +0.000 A 
ATOM     35  C   UNL     1       5.527   5.106  -1.282  0.00  0.00    +0.004 A 
ENDBRANCH  19  30
ENDBRANCH   1  19
TORSDOF 5
