REMARK  Name = ZINC38670487
REMARK  8 active torsions:
REMARK  status: ('A' for Active; 'I' for Inactive)
REMARK    1  A    between atoms: C_1  and  N_2
REMARK    2  A    between atoms: C_10  and  C_12
REMARK    3  A    between atoms: C_12  and  C_14
REMARK    4  A    between atoms: C_12  and  N_31
REMARK    5  A    between atoms: C_14  and  N_15
REMARK    6  A    between atoms: C_16  and  C_18
REMARK    7  A    between atoms: C_21  and  O_24
REMARK    8  A    between atoms: O_24  and  C_25
REMARK                            x       y       z     vdW  Elec       q    Type
REMARK                         _______ _______ _______ _____ _____    ______ ____
ROOT
ATOM      1  C   UNL     1       4.975  -2.253  -0.138  0.00  0.00    -0.020 C 
ENDROOT
BRANCH   1  11
ATOM      2  C   UNL     1       0.046   1.780   1.282  0.00  0.00    +0.129 C 
ATOM      3  N   UNL     1       0.077   0.328   1.096  0.00  0.00    -0.333 N 
ATOM      4  C   UNL     1      -1.153  -0.468   1.220  0.00  0.00    +0.105 C 
ATOM      5  C   UNL     1      -0.825  -1.710   2.057  0.00  0.00    +0.024 C 
ATOM      6  C   UNL     1       0.206  -2.554   1.307  0.00  0.00    +0.038 C 
ATOM      7  C   UNL     1       1.379  -1.705   0.890  0.00  0.00    -0.026 A 
ATOM      8  C   UNL     1       1.277  -0.325   0.792  0.00  0.00    +0.033 A 
ATOM      9  C   UNL     1       2.376   0.429   0.395  0.00  0.00    +0.023 A 
ATOM     10  C   UNL     1       3.570  -0.196   0.094  0.00  0.00    +0.004 A 
ATOM     11  C   UNL     1       3.671  -1.571   0.189  0.00  0.00    -0.059 A 
ATOM     12  C   UNL     1       2.581  -2.324   0.594  0.00  0.00    +0.007 A 
ENDBRANCH   1  11
BRANCH   1  13
ATOM     13  N   UNL     1       5.583  -1.610  -1.311  0.00  0.00    +0.385 N 
ATOM     14  C   UNL     1       6.799  -2.353  -1.729  0.00  0.00    -0.078 C 
ATOM     15  C   UNL     1       6.976  -1.939  -3.211  0.00  0.00    -0.020 C 
ATOM     16  C   UNL     1       5.519  -1.863  -3.725  0.00  0.00    -0.020 C 
ATOM     17  C   UNL     1       4.658  -1.670  -2.463  0.00  0.00    -0.078 C 
ATOM     18  H   UNL     1       5.815  -0.651  -1.101  0.00  0.00    -0.081 HD
ENDBRANCH   1  13
BRANCH   1  19
ATOM     19  C   UNL     1       5.924  -2.138   1.056  0.00  0.00    +0.094 C 
BRANCH  19  20
ATOM     20  N   UNL     1       5.378  -2.893   2.187  0.00  0.00    -0.313 N 
ATOM     21  C   UNL     1       6.092  -3.012   3.325  0.00  0.00    +0.244 C 
ATOM     22  O   UNL     1       7.188  -2.493   3.412  0.00  0.00    -0.270 OA
ATOM     23  H   UNL     1       4.504  -3.306   2.118  0.00  0.00    +0.149 HD
BRANCH  21  24
ATOM     24  C   UNL     1       5.543  -3.772   4.464  0.00  0.00    +0.037 A 
ATOM     25  C   UNL     1       4.285  -4.373   4.364  0.00  0.00    +0.016 A 
ATOM     26  C   UNL     1       3.776  -5.082   5.429  0.00  0.00    +0.047 A 
ATOM     27  C   UNL     1       4.511  -5.199   6.604  0.00  0.00    +0.128 A 
ATOM     28  C   UNL     1       5.763  -4.602   6.707  0.00  0.00    +0.047 A 
ATOM     29  C   UNL     1       6.281  -3.896   5.644  0.00  0.00    +0.016 A 
BRANCH  27  30
ATOM     30  O   UNL     1       4.006  -5.897   7.652  0.00  0.00    -0.456 OA
BRANCH  30  31
ATOM     31  C   UNL     1       4.050  -7.254   7.595  0.00  0.00    +0.128 A 
ATOM     32  C   UNL     1       4.712  -7.885   6.551  0.00  0.00    +0.046 A 
ATOM     33  C   UNL     1       4.756  -9.264   6.496  0.00  0.00    +0.004 A 
ATOM     34  C   UNL     1       4.140 -10.017   7.479  0.00  0.00    +0.000 A 
ATOM     35  C   UNL     1       3.479  -9.391   8.520  0.00  0.00    +0.004 A 
ATOM     36  C   UNL     1       3.438  -8.011   8.584  0.00  0.00    +0.046 A 
ENDBRANCH  30  31
ENDBRANCH  27  30
ENDBRANCH  21  24
ENDBRANCH  19  20
ENDBRANCH   1  19
TORSDOF 7
