REMARK  Name = ZINC43254564
REMARK  8 active torsions:
REMARK  status: ('A' for Active; 'I' for Inactive)
REMARK    1  A    between atoms: C_1  and  C_2
REMARK    2  A    between atoms: C_3  and  C_33
REMARK    3  A    between atoms: C_5  and  C_13
REMARK    4  A    between atoms: N_6  and  C_7
REMARK    5  A    between atoms: C_7  and  C_8
REMARK    6  A    between atoms: C_13  and  C_15
REMARK    7  A    between atoms: C_15  and  N_16
REMARK    8  A    between atoms: C_22  and  C_24
REMARK                            x       y       z     vdW  Elec       q    Type
REMARK                         _______ _______ _______ _____ _____    ______ ____
ROOT
ATOM      1  C   UNL     1       1.799  -3.522   0.614  0.00  0.00    +0.193 C 
ATOM      2  O   UNL     1       1.345  -3.210   1.696  0.00  0.00    -0.289 OA
ENDROOT
BRANCH   1   7
ATOM      3  C   UNL     1       2.886   0.968  -1.262  0.00  0.00    +0.064 C 
ATOM      4  C   UNL     1       2.734  -0.524  -1.119  0.00  0.00    +0.029 A 
ATOM      5  C   UNL     1       3.093  -1.466  -2.067  0.00  0.00    +0.058 A 
ATOM      6  C   UNL     1       2.784  -2.734  -1.533  0.00  0.00    +0.044 A 
ATOM      7  C   UNL     1       2.249  -2.521  -0.280  0.00  0.00    +0.087 A 
ATOM      8  N   UNL     1       2.235  -1.161  -0.048  0.00  0.00    -0.336 N 
BRANCH   5   9
ATOM      9  C   UNL     1       3.686  -1.194  -3.389  0.00  0.00    +0.243 C 
ATOM     10  O   UNL     1       3.905  -0.048  -3.733  0.00  0.00    -0.270 OA
ATOM     11  N   UNL     1       3.987  -2.215  -4.215  0.00  0.00    -0.325 N 
ATOM     12  H   UNL     1       3.813  -3.129  -3.940  0.00  0.00    +0.145 HD
ATOM     13  H   UNL     1       4.378  -2.036  -5.085  0.00  0.00    +0.145 HD
ENDBRANCH   5   9
BRANCH   8  14
ATOM     14  C   UNL     1       1.748  -0.513   1.172  0.00  0.00    +0.164 C 
BRANCH  14  15
ATOM     15  C   UNL     1       0.278  -0.213   1.029  0.00  0.00    +0.009 A 
ATOM     16  C   UNL     1      -0.787  -0.983   1.361  0.00  0.00    +0.013 A 
ATOM     17  C   UNL     1      -2.062  -0.497   1.138  0.00  0.00    +0.008 A 
ATOM     18  C   UNL     1      -2.209   0.736   0.595  0.00  0.00    +0.045 A 
ATOM     19  S   UNL     1      -0.513   1.253   0.387  0.00  0.00    -0.100 S 
ENDBRANCH  14  15
ENDBRANCH   8  14
ENDBRANCH   1   7
BRANCH   1  20
ATOM     20  C   UNL     1       1.885  -4.975   0.223  0.00  0.00    +0.165 C 
BRANCH  20  21
ATOM     21  N   UNL     1       1.359  -5.807   1.313  0.00  0.00    -0.292 NA
ATOM     22  C   UNL     1       2.208  -5.708   2.508  0.00  0.00    +0.104 C 
ATOM     23  C   UNL     1       1.534  -6.440   3.672  0.00  0.00    +0.123 C 
ATOM     24  N   UNL     1       1.220  -7.812   3.244  0.00  0.00    -0.295 N 
ATOM     25  C   UNL     1       0.488  -7.996   1.981  0.00  0.00    +0.123 C 
ATOM     26  C   UNL     1       1.204  -7.203   0.883  0.00  0.00    +0.104 C 
ATOM     27  C   UNL     1       1.594  -8.872   3.988  0.00  0.00    +0.253 C 
ATOM     28  O   UNL     1       2.301  -8.710   4.964  0.00  0.00    -0.269 OA
BRANCH  27  29
ATOM     29  C   UNL     1       1.147 -10.223   3.619  0.00  0.00    +0.075 A 
ATOM     30  C   UNL     1       1.670 -11.420   3.995  0.00  0.00    +0.029 A 
ATOM     31  C   UNL     1       1.092 -12.615   3.530  0.00  0.00    -0.010 A 
ATOM     32  C   UNL     1       1.490 -13.949   3.807  0.00  0.00    +0.009 A 
ATOM     33  C   UNL     1       0.817 -15.000   3.271  0.00  0.00    +0.001 A 
ATOM     34  C   UNL     1      -0.278 -14.814   2.436  0.00  0.00    +0.001 A 
ATOM     35  C   UNL     1      -0.699 -13.534   2.141  0.00  0.00    +0.015 A 
ATOM     36  C   UNL     1      -0.026 -12.457   2.678  0.00  0.00    +0.020 A 
ATOM     37  S   UNL     1      -0.220 -10.695   2.573  0.00  0.00    -0.084 S 
ENDBRANCH  27  29
ENDBRANCH  20  21
ENDBRANCH   1  20
TORSDOF 7
