REMARK  Name = ZINC09425925
REMARK  8 active torsions:
REMARK  status: ('A' for Active; 'I' for Inactive)
REMARK    1  A    between atoms: C_1  and  C_2
REMARK    2  A    between atoms: C_2  and  C_3
REMARK    3  A    between atoms: N_13  and  C_14
REMARK    4  A    between atoms: C_17  and  C_20
REMARK    5  A    between atoms: C_20  and  O_22
REMARK    6  A    between atoms: O_22  and  C_23
REMARK    7  A    between atoms: C_23  and  C_24
REMARK    8  A    between atoms: C_23  and  C_25
REMARK                            x       y       z     vdW  Elec       q    Type
REMARK                         _______ _______ _______ _____ _____    ______ ____
ROOT
ATOM      1  C   UNL     1      -0.053   3.857   0.023  0.00  0.00    -0.025 A 
ATOM      2  C   UNL     1      -1.233   3.138   0.030  0.00  0.00    +0.020 A 
ATOM      3  C   UNL     1      -1.216   1.753   0.017  0.00  0.00    +0.019 A 
ATOM      4  C   UNL     1      -0.013   1.076   0.008  0.00  0.00    +0.027 A 
ATOM      5  C   UNL     1       1.182   1.791   0.000  0.00  0.00    +0.028 A 
ATOM      6  C   UNL     1       1.168   3.194   0.008  0.00  0.00    +0.046 A 
ATOM      7  N   UNL     1       2.476   3.670  -0.001  0.00  0.00    -0.279 N 
ATOM      8  C   UNL     1       3.365   2.662  -0.015  0.00  0.00    +0.267 C 
ATOM      9  O   UNL     1       4.575   2.774  -0.025  0.00  0.00    -0.268 OA
ATOM     10  C   UNL     1       2.603   1.385  -0.015  0.00  0.00    +0.135 C 
ATOM     11  N   UNL     1       3.086   0.166  -0.026  0.00  0.00    -0.242 NA
ATOM     12 BR   UNL     1      -2.843   0.789   0.019  0.00  0.00    -0.050 Br
ATOM     13  H   UNL     1       2.716   4.610   0.002  0.00  0.00    +0.155 HD
ENDROOT
BRANCH  11  14
ATOM     14  C   UNL     1       4.431  -0.032  -0.039  0.00  0.00    +0.065 A 
ATOM     15  C   UNL     1       5.242   0.715  -0.904  0.00  0.00    +0.028 A 
ATOM     16  C   UNL     1       6.593   0.519  -0.912  0.00  0.00    +0.017 A 
ATOM     17  C   UNL     1       7.167  -0.436  -0.066  0.00  0.00    +0.059 A 
ATOM     18  C   UNL     1       6.358  -1.186   0.793  0.00  0.00    +0.017 A 
ATOM     19  C   UNL     1       5.007  -0.988   0.808  0.00  0.00    +0.028 A 
BRANCH  17  20
ATOM     20  C   UNL     1       8.627  -0.651  -0.080  0.00  0.00    +0.339 C 
ATOM     21  O   UNL     1       9.126  -1.479   0.655  0.00  0.00    -0.245 OA
BRANCH  20  22
ATOM     22  O   UNL     1       9.407   0.072  -0.907  0.00  0.00    -0.458 OA
BRANCH  22  23
ATOM     23  C   UNL     1      10.834  -0.192  -0.867  0.00  0.00    +0.171 C 
ATOM     24  C   UNL     1      11.178  -1.289  -1.878  0.00  0.00    +0.052 C 
ATOM     25  C   UNL     1      11.600   1.085  -1.220  0.00  0.00    +0.052 C 
ENDBRANCH  22  23
ENDBRANCH  20  22
ENDBRANCH  17  20
ENDBRANCH  11  14
BRANCH   1  27
ATOM     26  C   UNL     1       0.010   5.884  -1.403  0.00  0.00    +0.009 C 
ATOM     27  C   UNL     1      -0.090   5.363   0.032  0.00  0.00    +0.033 C 
ENDBRANCH   1  27
TORSDOF 5
