REMARK  Name = ZINC27697133
REMARK  10 active torsions:
REMARK  status: ('A' for Active; 'I' for Inactive)
REMARK    1  A    between atoms: C_1  and  N_2
REMARK    2  A    between atoms: N_2  and  C_3
REMARK    3  A    between atoms: N_2  and  C_30
REMARK    4  A    between atoms: C_3  and  C_4
REMARK    5  A    between atoms: C_4  and  C_6
REMARK    6  A    between atoms: C_4  and  O_29
REMARK    7  A    between atoms: C_6  and  N_7
REMARK    8  A    between atoms: C_15  and  C_16
REMARK    9  A    between atoms: C_16  and  C_17
REMARK   10  A    between atoms: C_20  and  C_23
REMARK                            x       y       z     vdW  Elec       q    Type
REMARK                         _______ _______ _______ _____ _____    ______ ____
ROOT
ATOM      1  N   UNL     1       2.275   4.627   0.020  0.00  0.00    -0.325 N 
ATOM      2  C   UNL     1       1.139   3.843  -0.023  0.00  0.00    +0.069 A 
ATOM      3  C   UNL     1       0.911   2.475  -0.093  0.00  0.00    +0.028 A 
ATOM      4  C   UNL     1      -0.383   2.000  -0.121  0.00  0.00    +0.002 A 
ATOM      5  C   UNL     1      -1.456   2.878  -0.087  0.00  0.00    +0.002 A 
ATOM      6  C   UNL     1      -1.251   4.227  -0.013  0.00  0.00    +0.030 A 
ATOM      7  C   UNL     1       0.052   4.732   0.017  0.00  0.00    +0.089 A 
ATOM      8  N   UNL     1       0.569   5.986   0.082  0.00  0.00    -0.232 NA
ATOM      9  C   UNL     1       1.868   5.924   0.084  0.00  0.00    +0.115 A 
ENDROOT
BRANCH   1  10
ATOM     10  C   UNL     1       3.660   4.151   0.002  0.00  0.00    +0.153 C 
BRANCH  10  11
ATOM     11  C   UNL     1       4.148   4.057  -1.445  0.00  0.00    +0.118 C 
BRANCH  11  12
ATOM     12  O   UNL     1       4.190   5.365  -2.019  0.00  0.00    -0.392 OA
ATOM     13  H   UNL     1       3.271   5.966  -2.087  0.00  0.00    +0.210 HD
ENDBRANCH  11  12
BRANCH  11  14
ATOM     14  C   UNL     1       5.549   3.443  -1.472  0.00  0.00    -0.045 C 
BRANCH  14  16
ATOM     15  C   UNL     1       7.451   3.091  -2.928  0.00  0.00    -0.096 C 
ATOM     16  N   UNL     1       6.001   3.315  -2.864  0.00  0.00    +0.381 N 
ATOM     17  H   UNL     1       5.782   4.262  -3.379  0.00  0.00    -0.082 HD
BRANCH  16  18
ATOM     18  C   UNL     1       5.271   2.245  -3.558  0.00  0.00    -0.069 C 
ATOM     19  C   UNL     1       5.610   0.898  -2.916  0.00  0.00    -0.015 C 
ATOM     20  C   UNL     1       4.851  -0.216  -3.639  0.00  0.00    -0.002 C 
ATOM     21  C   UNL     1       5.257  -0.237  -5.114  0.00  0.00    -0.000 C 
ATOM     22  C   UNL     1       4.919   1.110  -5.755  0.00  0.00    -0.002 C 
ATOM     23  C   UNL     1       5.678   2.224  -5.033  0.00  0.00    -0.015 C 
ENDBRANCH  16  18
ENDBRANCH  14  16
ENDBRANCH  11  14
ENDBRANCH  10  11
ENDBRANCH   1  10
BRANCH   9  24
ATOM     24  C   UNL     1       2.790   7.115   0.146  0.00  0.00    +0.109 C 
BRANCH  24  25
ATOM     25  C   UNL     1       3.092   7.441   1.587  0.00  0.00    -0.040 A 
ATOM     26  C   UNL     1       2.284   8.326   2.277  0.00  0.00    +0.004 A 
ATOM     27  C   UNL     1       2.554   8.624   3.597  0.00  0.00    +0.009 A 
ATOM     28  C   UNL     1       3.648   8.039   4.232  0.00  0.00    -0.018 A 
ATOM     29  C   UNL     1       4.461   7.152   3.530  0.00  0.00    +0.009 A 
ATOM     30  C   UNL     1       4.179   6.857   2.211  0.00  0.00    +0.004 A 
BRANCH  28  31
ATOM     31  C   UNL     1       3.946   8.361   5.649  0.00  0.00    -0.018 A 
ATOM     32  C   UNL     1       5.037   7.772   6.285  0.00  0.00    +0.008 A 
ATOM     33  C   UNL     1       5.312   8.078   7.603  0.00  0.00    +0.001 A 
ATOM     34  C   UNL     1       4.502   8.960   8.294  0.00  0.00    +0.000 A 
ATOM     35  C   UNL     1       3.414   9.543   7.670  0.00  0.00    +0.001 A 
ATOM     36  C   UNL     1       3.132   9.248   6.351  0.00  0.00    +0.008 A 
ENDBRANCH  28  31
ENDBRANCH  24  25
ENDBRANCH   9  24
TORSDOF 9
