REMARK  Name = ZINC35070706
REMARK  13 active torsions:
REMARK  status: ('A' for Active; 'I' for Inactive)
REMARK    1  A    between atoms: C_1  and  C_2
REMARK    2  A    between atoms: C_2  and  C_3
REMARK    3  A    between atoms: N_5  and  C_6
REMARK    4  A    between atoms: N_5  and  C_11
REMARK    5  A    between atoms: C_6  and  C_7
REMARK    6  A    between atoms: C_7  and  N_8
REMARK    7  A    between atoms: N_8  and  C_9
REMARK    8  A    between atoms: N_8  and  C_10
REMARK    9  A    between atoms: C_11  and  C_13
REMARK   10  A    between atoms: C_11  and  C_14
REMARK   11  A    between atoms: N_24  and  C_25
REMARK   12  A    between atoms: C_28  and  C_32
REMARK   13  A    between atoms: C_30  and  C_31
REMARK                            x       y       z     vdW  Elec       q    Type
REMARK                         _______ _______ _______ _____ _____    ______ ____
ROOT
ATOM      1  C   UNL     1       0.242  -2.433  -1.236  0.00  0.00    +0.138 A 
ATOM      2  N   UNL     1       0.179  -1.384  -1.998  0.00  0.00    -0.231 NA
ATOM      3  C   UNL     1       1.259  -0.939  -2.687  0.00  0.00    +0.078 A 
ATOM      4  C   UNL     1       1.191   0.190  -3.506  0.00  0.00    +0.028 A 
ATOM      5  C   UNL     1       2.312   0.607  -4.188  0.00  0.00    +0.002 A 
ATOM      6  C   UNL     1       3.513  -0.082  -4.072  0.00  0.00    +0.001 A 
ATOM      7  C   UNL     1       3.605  -1.199  -3.270  0.00  0.00    +0.015 A 
ATOM      8  C   UNL     1       2.482  -1.637  -2.571  0.00  0.00    +0.065 A 
ATOM      9  C   UNL     1       2.521  -2.821  -1.701  0.00  0.00    +0.266 A 
ATOM     10  O   UNL     1       3.543  -3.467  -1.557  0.00  0.00    -0.267 OA
ATOM     11  N   UNL     1       1.378  -3.162  -1.061  0.00  0.00    -0.263 N 
ENDROOT
BRANCH  11  12
ATOM     12  C   UNL     1       1.362  -4.279  -0.216  0.00  0.00    +0.054 A 
ATOM     13  C   UNL     1       0.842  -5.485  -0.666  0.00  0.00    +0.027 A 
ATOM     14  C   UNL     1       0.829  -6.585   0.170  0.00  0.00    +0.005 A 
ATOM     15  C   UNL     1       1.333  -6.485   1.454  0.00  0.00    -0.050 A 
ATOM     16  C   UNL     1       1.851  -5.286   1.905  0.00  0.00    +0.008 A 
ATOM     17  C   UNL     1       1.873  -4.184   1.072  0.00  0.00    -0.026 A 
ATOM     18  C   UNL     1       2.444  -2.878   1.563  0.00  0.00    +0.046 C 
ATOM     19  C   UNL     1       1.317  -7.687   2.363  0.00  0.00    +0.044 C 
ENDBRANCH  11  12
BRANCH   1  20
ATOM     20  C   UNL     1      -1.003  -2.862  -0.504  0.00  0.00    +0.139 C 
ATOM     21  C   UNL     1      -0.714  -2.933   0.997  0.00  0.00    +0.036 C 
BRANCH  20  24
ATOM     22  C   UNL     1      -1.964  -0.635  -0.276  0.00  0.00    +0.216 C 
ATOM     23  O   UNL     1      -2.885   0.144  -0.408  0.00  0.00    -0.276 OA
ATOM     24  N   UNL     1      -2.073  -1.892  -0.750  0.00  0.00    -0.293 N 
BRANCH  22  26
ATOM     25  C   UNL     1      -0.754   1.310   0.672  0.00  0.00    +0.013 C 
ATOM     26  C   UNL     1      -0.700  -0.197   0.417  0.00  0.00    +0.092 C 
ENDBRANCH  22  26
BRANCH  24  27
ATOM     27  C   UNL     1      -3.260  -2.288  -1.511  0.00  0.00    +0.090 C 
BRANCH  27  28
ATOM     28  C   UNL     1      -3.025  -2.021  -2.999  0.00  0.00    -0.060 C 
BRANCH  28  29
ATOM     29  N   UNL     1      -4.215  -2.418  -3.763  0.00  0.00    +0.377 N 
ATOM     30  C   UNL     1      -5.346  -1.560  -3.388  0.00  0.00    -0.097 C 
ATOM     31  C   UNL     1      -3.946  -2.275  -5.199  0.00  0.00    -0.097 C 
ATOM     32  H   UNL     1      -4.441  -3.380  -3.557  0.00  0.00    -0.083 HD
ENDBRANCH  28  29
ENDBRANCH  27  28
ENDBRANCH  24  27
ENDBRANCH  20  24
ENDBRANCH   1  20
TORSDOF 7
