REMARK  Name = ZINC25681553
REMARK  9 active torsions:
REMARK  status: ('A' for Active; 'I' for Inactive)
REMARK    1  A    between atoms: C_1  and  C_2
REMARK    2  A    between atoms: C_2  and  N_3
REMARK    3  A    between atoms: C_4  and  C_6
REMARK    4  A    between atoms: C_6  and  C_8
REMARK    5  A    between atoms: C_6  and  N_9
REMARK    6  A    between atoms: C_10  and  C_12
REMARK    7  A    between atoms: C_13  and  C_23
REMARK    8  A    between atoms: C_15  and  C_22
REMARK    9  A    between atoms: C_17  and  C_21
REMARK                            x       y       z     vdW  Elec       q    Type
REMARK                         _______ _______ _______ _____ _____    ______ ____
ROOT
ATOM      1  N   UNL     1      -0.828  -6.387   3.253  0.00  0.00    -0.300 N 
ATOM      2  C   UNL     1      -0.618  -6.111   1.951  0.00  0.00    +0.252 C 
ATOM      3  O   UNL     1      -0.665  -7.002   1.125  0.00  0.00    -0.270 OA
ATOM      4  H   UNL     1      -0.785  -5.581   4.001  0.00  0.00    +0.150 HD
ENDROOT
BRANCH   2   5
ATOM      5  C   UNL     1      -0.331  -4.732   1.530  0.00  0.00    +0.079 A 
ATOM      6  C   UNL     1      -0.094  -4.262   0.276  0.00  0.00    -0.022 A 
ATOM      7  C   UNL     1       0.163  -2.894   0.079  0.00  0.00    +0.014 A 
ATOM      8  C   UNL     1       0.431  -2.212  -1.137  0.00  0.00    -0.039 A 
ATOM      9  C   UNL     1       0.650  -0.867  -1.108  0.00  0.00    +0.027 A 
ATOM     10  C   UNL     1       0.624  -0.171   0.092  0.00  0.00    +0.040 A 
ATOM     11  N   UNL     1       0.375  -0.801   1.224  0.00  0.00    -0.245 NA
ATOM     12  C   UNL     1       0.152  -2.095   1.248  0.00  0.00    +0.110 A 
ATOM     13  S   UNL     1      -0.208  -3.265   2.537  0.00  0.00    -0.064 S 
ATOM     14  C   UNL     1       0.875   1.315   0.102  0.00  0.00    +0.065 C 
ATOM     15  C   UNL     1       0.468  -2.964  -2.442  0.00  0.00    +0.044 C 
ATOM     16  C   UNL     1      -0.108  -5.205  -0.899  0.00  0.00    +0.046 C 
ENDBRANCH   2   5
BRANCH   1  17
ATOM     17  C   UNL     1      -1.114  -7.761   3.674  0.00  0.00    +0.156 C 
ATOM     18  C   UNL     1       0.201  -8.516   3.877  0.00  0.00    +0.038 C 
BRANCH  17  20
ATOM     19  N   UNL     1      -2.262  -8.898   5.547  0.00  0.00    -0.314 N 
ATOM     20  C   UNL     1      -1.886  -7.740   4.968  0.00  0.00    +0.233 C 
ATOM     21  O   UNL     1      -2.170  -6.682   5.487  0.00  0.00    -0.274 OA
ATOM     22  H   UNL     1      -2.004  -9.858   5.076  0.00  0.00    +0.149 HD
BRANCH  19  24
ATOM     23  C   UNL     1      -3.311 -10.312   7.244  0.00  0.00    +0.024 C 
ATOM     24  C   UNL     1      -3.013  -8.877   6.805  0.00  0.00    +0.101 C 
ENDBRANCH  19  24
ENDBRANCH  17  20
ENDBRANCH   1  17
TORSDOF 4
