REMARK  Name = ZINC56854647
REMARK  10 active torsions:
REMARK  status: ('A' for Active; 'I' for Inactive)
REMARK    1  A    between atoms: C_1  and  C_2
REMARK    2  A    between atoms: C_2  and  C_4
REMARK    3  A    between atoms: C_2  and  N_13
REMARK    4  A    between atoms: C_4  and  O_5
REMARK    5  A    between atoms: O_5  and  C_6
REMARK    6  A    between atoms: N_16  and  N_17
REMARK    7  A    between atoms: C_18  and  C_20
REMARK    8  A    between atoms: C_20  and  O_21
REMARK    9  A    between atoms: O_21  and  C_22
REMARK   10  A    between atoms: C_27  and  C_28
REMARK                            x       y       z     vdW  Elec       q    Type
REMARK                         _______ _______ _______ _____ _____    ______ ____
ROOT
ATOM      1  N   UNL     1      -1.372  -0.511   0.012  0.00  0.00    -0.292 N 
ATOM      2  C   UNL     1      -2.029  -0.655   1.181  0.00  0.00    +0.316 C 
ATOM      3  O   UNL     1      -1.480  -0.364   2.226  0.00  0.00    -0.251 OA
ATOM      4  N   UNL     1      -3.293  -1.122   1.190  0.00  0.00    -0.218 N 
ATOM      5  H   UNL     1      -1.810  -0.743  -0.822  0.00  0.00    +0.151 HD
ATOM      6  H   UNL     1      -3.765  -1.225   2.031  0.00  0.00    +0.174 HD
ENDROOT
BRANCH   4   7
ATOM      7  N   UNL     1      -3.925  -1.457  -0.014  0.00  0.00    -0.230 N 
ATOM      8  C   UNL     1      -5.190  -1.923  -0.005  0.00  0.00    +0.267 C 
ATOM      9  O   UNL     1      -5.780  -2.053   1.047  0.00  0.00    -0.271 OA
ATOM     10  H   UNL     1      -3.453  -1.353  -0.855  0.00  0.00    +0.173 HD
BRANCH   8  11
ATOM     11  C   UNL     1      -5.870  -2.284  -1.300  0.00  0.00    +0.326 C 
BRANCH  11  12
ATOM     12  O   UNL     1      -7.193  -2.750  -1.030  0.00  0.00    -0.481 OA
BRANCH  12  13
ATOM     13  C   UNL     1      -7.946  -3.119  -2.097  0.00  0.00    +0.138 A 
ATOM     14  C   UNL     1      -7.424  -3.040  -3.379  0.00  0.00    +0.047 A 
ATOM     15  C   UNL     1      -8.191  -3.415  -4.464  0.00  0.00    +0.004 A 
ATOM     16  C   UNL     1      -9.486  -3.872  -4.282  0.00  0.00    +0.001 A 
ATOM     17  C   UNL     1     -10.022  -3.957  -3.014  0.00  0.00    +0.022 A 
ATOM     18  C   UNL     1      -9.254  -3.586  -1.908  0.00  0.00    +0.093 A 
BRANCH  18  19
ATOM     19  C   UNL     1      -9.802  -3.677  -0.588  0.00  0.00    +0.103 C 
ATOM     20  N   UNL     1     -10.237  -3.750   0.459  0.00  0.00    -0.191 NA
ENDBRANCH  18  19
ENDBRANCH  12  13
ENDBRANCH  11  12
ENDBRANCH   8  11
ENDBRANCH   4   7
BRANCH   1  22
ATOM     21  C   UNL     1      -0.019   1.526   0.010  0.00  0.00    +0.031 C 
ATOM     22  C   UNL     1       0.002  -0.004   0.002  0.00  0.00    +0.109 C 
BRANCH  22  23
ATOM     23  C   UNL     1       0.718  -0.497  -1.257  0.00  0.00    +0.251 C 
BRANCH  23  24
ATOM     24  O   UNL     1       0.097   0.070  -2.412  0.00  0.00    -0.487 OA
BRANCH  24  25
ATOM     25  C   UNL     1       0.616  -0.269  -3.622  0.00  0.00    +0.156 A 
ATOM     26  C   UNL     1       1.697  -1.135  -3.696  0.00  0.00    +0.048 A 
ATOM     27  C   UNL     1       2.223  -1.478  -4.926  0.00  0.00    +0.004 A 
ATOM     28  C   UNL     1       1.674  -0.960  -6.084  0.00  0.00    +0.003 A 
ATOM     29  C   UNL     1       0.597  -0.096  -6.015  0.00  0.00    +0.042 A 
ATOM     30  C   UNL     1       0.062   0.246  -4.786  0.00  0.00    +0.165 A 
ATOM     31  F   UNL     1      -0.995   1.085  -4.718  0.00  0.00    -0.202 F 
ENDBRANCH  24  25
ENDBRANCH  23  24
ENDBRANCH  22  23
ENDBRANCH   1  22
TORSDOF 9
