REMARK  Name = ZINC40569733
REMARK  11 active torsions:
REMARK  status: ('A' for Active; 'I' for Inactive)
REMARK    1  A    between atoms: C_1  and  C_2
REMARK    2  A    between atoms: C_2  and  C_3
REMARK    3  A    between atoms: C_3  and  C_4
REMARK    4  A    between atoms: N_10  and  C_11
REMARK    5  A    between atoms: C_11  and  C_12
REMARK    6  A    between atoms: C_18  and  C_28
REMARK    7  A    between atoms: C_20  and  C_24
REMARK    8  A    between atoms: C_21  and  N_23
REMARK    9  A    between atoms: C_24  and  O_26
REMARK   10  A    between atoms: O_26  and  C_27
REMARK   11  A    between atoms: C_31  and  C_34
REMARK                            x       y       z     vdW  Elec       q    Type
REMARK                         _______ _______ _______ _____ _____    ______ ____
ROOT
ATOM      1  C   UNL     1      -1.222  -2.272  -0.153  0.00  0.00    +0.026 A 
ATOM      2  C   UNL     1      -1.519  -3.128   0.848  0.00  0.00    +0.068 A 
ATOM      3  C   UNL     1      -1.494  -4.518   0.611  0.00  0.00    +0.141 A 
ATOM      4  C   UNL     1      -1.163  -4.975  -0.646  0.00  0.00    +0.071 A 
ATOM      5  C   UNL     1      -0.862  -4.050  -1.654  0.00  0.00    +0.259 A 
ATOM      6  O   UNL     1      -0.568  -4.441  -2.773  0.00  0.00    -0.267 OA
ATOM      7  N   UNL     1      -0.902  -2.730  -1.392  0.00  0.00    -0.309 N 
ATOM      8  C   UNL     1      -1.125  -6.449  -0.944  0.00  0.00    +0.100 C 
ATOM      9  C   UNL     1      -1.086  -7.235   0.338  0.00  0.00    +0.105 C 
ATOM     10  C   UNL     1      -1.416  -6.662   1.524  0.00  0.00    +0.195 C 
ATOM     11  O   UNL     1      -1.791  -5.375   1.611  0.00  0.00    -0.441 OA
ENDROOT
BRANCH   8  12
ATOM     12  C   UNL     1      -2.356  -6.833  -1.724  0.00  0.00    -0.035 A 
ATOM     13  C   UNL     1      -3.611  -6.628  -1.181  0.00  0.00    +0.005 A 
ATOM     14  C   UNL     1      -4.739  -6.980  -1.897  0.00  0.00    +0.012 A 
ATOM     15  C   UNL     1      -4.614  -7.538  -3.156  0.00  0.00    +0.055 A 
ATOM     16  C   UNL     1      -3.359  -7.743  -3.699  0.00  0.00    +0.012 A 
ATOM     17  C   UNL     1      -2.230  -7.386  -2.985  0.00  0.00    +0.005 A 
BRANCH  15  18
ATOM     18  C   UNL     1      -5.844  -7.923  -3.936  0.00  0.00    +0.417 C 
ATOM     19  F   UNL     1      -6.261  -6.838  -4.714  0.00  0.00    -0.166 F 
ATOM     20  F   UNL     1      -5.548  -9.008  -4.768  0.00  0.00    -0.166 F 
ATOM     21  F   UNL     1      -6.865  -8.281  -3.049  0.00  0.00    -0.166 F 
ENDBRANCH  15  18
ENDBRANCH   8  12
BRANCH  10  22
ATOM     22  N   UNL     1      -1.366  -7.419   2.664  0.00  0.00    -0.329 N 
ATOM     23  H   UNL     1      -1.017  -8.324   2.630  0.00  0.00    +0.145 HD
ATOM     24  H   UNL     1      -1.679  -7.050   3.504  0.00  0.00    +0.145 HD
ENDBRANCH  10  22
BRANCH   9  25
ATOM     25  C   UNL     1      -0.701  -8.583   0.307  0.00  0.00    +0.341 C 
ATOM     26  O   UNL     1       0.478  -8.879   0.225  0.00  0.00    -0.245 OA
BRANCH  25  27
ATOM     27  O   UNL     1      -1.638  -9.554   0.369  0.00  0.00    -0.465 OA
ATOM     28  C   UNL     1      -1.175 -10.906   0.334  0.00  0.00    +0.280 C 
ENDBRANCH  25  27
ENDBRANCH   9  25
BRANCH   1  29
ATOM     29  C   UNL     1      -1.251  -0.787   0.105  0.00  0.00    +0.053 C 
BRANCH  29  31
ATOM     30  C   UNL     1       0.133   1.202   0.714  0.00  0.00    +0.004 C 
ATOM     31  C   UNL     1       0.137  -0.319   0.546  0.00  0.00    +0.003 C 
ENDBRANCH  29  31
ENDBRANCH   1  29
BRANCH   7  32
ATOM     32  C   UNL     1      -0.590  -1.774  -2.457  0.00  0.00    +0.156 C 
BRANCH  32  33
ATOM     33  C   UNL     1      -1.884  -1.347  -3.154  0.00  0.00    +0.138 C 
ATOM     34  C   UNL     1      -1.570  -0.387  -4.329  0.00  0.00    +0.035 C 
ATOM     35  C   UNL     1      -2.815  -0.608  -5.230  0.00  0.00    +0.031 C 
ATOM     36  C   UNL     1      -3.127  -2.102  -5.000  0.00  0.00    +0.160 C 
ATOM     37  O   UNL     1      -2.524  -2.483  -3.756  0.00  0.00    -0.375 OA
ENDBRANCH  32  33
ENDBRANCH   7  32
TORSDOF 9
