REMARK  Name = ZINC59782503
REMARK  11 active torsions:
REMARK  status: ('A' for Active; 'I' for Inactive)
REMARK    1  A    between atoms: C_1  and  C_2
REMARK    2  A    between atoms: C_2  and  C_4
REMARK    3  A    between atoms: C_2  and  S_24
REMARK    4  A    between atoms: N_6  and  C_7
REMARK    5  A    between atoms: C_7  and  C_8
REMARK    6  A    between atoms: C_8  and  C_10
REMARK    7  A    between atoms: C_8  and  N_18
REMARK    8  A    between atoms: C_15  and  O_16
REMARK    9  A    between atoms: O_16  and  C_17
REMARK   10  A    between atoms: S_24  and  C_25
REMARK   11  A    between atoms: C_28  and  N_31
REMARK                            x       y       z     vdW  Elec       q    Type
REMARK                         _______ _______ _______ _____ _____    ______ ____
ROOT
ATOM      1  C   UNL     1       2.638  -1.278   2.460  0.00  0.00    +0.093 C 
ENDROOT
BRANCH   1   4
ATOM      2  C   UNL     1       1.095   0.143   3.699  0.00  0.00    +0.226 C 
ATOM      3  O   UNL     1       0.231  -0.690   3.521  0.00  0.00    -0.275 OA
ATOM      4  N   UNL     1       2.334  -0.056   3.209  0.00  0.00    -0.316 N 
ATOM      5  H   UNL     1       3.025   0.610   3.351  0.00  0.00    +0.149 HD
BRANCH   2   7
ATOM      6  C   UNL     1       1.286   1.257   5.907  0.00  0.00    +0.029 C 
ATOM      7  C   UNL     1       0.782   1.400   4.469  0.00  0.00    +0.134 C 
BRANCH   7   8
ATOM      8  S   UNL     1      -1.012   1.671   4.482  0.00  0.00    -0.113 S 
BRANCH   8   9
ATOM      9  C   UNL     1      -1.388   2.115   2.819  0.00  0.00    +0.009 A 
ATOM     10  C   UNL     1      -0.380   2.152   1.863  0.00  0.00    +0.017 A 
ATOM     11  C   UNL     1      -0.678   2.500   0.560  0.00  0.00    +0.034 A 
ATOM     12  C   UNL     1      -1.978   2.813   0.207  0.00  0.00    +0.126 A 
ATOM     13  C   UNL     1      -2.984   2.778   1.156  0.00  0.00    +0.034 A 
ATOM     14  C   UNL     1      -2.694   2.425   2.459  0.00  0.00    +0.017 A 
BRANCH  12  15
ATOM     15  N   UNL     1      -2.294   3.186  -1.190  0.00  0.00    +0.056 N 
ATOM     16  O   UNL     1      -1.416   3.217  -2.021  0.00  0.00    -0.126 OA
ATOM     17  O   UNL     1      -3.430   3.460  -1.500  0.00  0.00    -0.126 OA
ENDBRANCH  12  15
ENDBRANCH   8   9
ENDBRANCH   7   8
ENDBRANCH   2   7
ENDBRANCH   1   4
BRANCH   1  18
ATOM     18  C   UNL     1       4.130  -1.313   2.125  0.00  0.00    -0.017 C 
BRANCH  18  19
ATOM     19  N   UNL     1       4.501  -0.084   1.412  0.00  0.00    +0.385 N 
ATOM     20  C   UNL     1       3.645   0.072   0.230  0.00  0.00    -0.078 C 
ATOM     21  C   UNL     1       3.972   1.392  -0.471  0.00  0.00    -0.019 C 
ATOM     22  C   UNL     1       5.442   1.385  -0.901  0.00  0.00    -0.004 C 
ATOM     23  C   UNL     1       6.322   1.147   0.329  0.00  0.00    -0.019 C 
ATOM     24  C   UNL     1       5.908  -0.164   1.001  0.00  0.00    -0.078 C 
ATOM     25  H   UNL     1       4.375   0.710   2.023  0.00  0.00    -0.081 HD
ENDBRANCH  18  19
BRANCH  18  26
ATOM     26  C   UNL     1       4.929  -1.415   3.399  0.00  0.00    -0.018 A 
ATOM     27  C   UNL     1       5.422  -0.273   4.000  0.00  0.00    +0.005 A 
ATOM     28  C   UNL     1       6.155  -0.365   5.168  0.00  0.00    +0.000 A 
ATOM     29  C   UNL     1       6.396  -1.602   5.739  0.00  0.00    +0.004 A 
ATOM     30  C   UNL     1       5.905  -2.747   5.143  0.00  0.00    +0.046 A 
ATOM     31  C   UNL     1       5.165  -2.656   3.973  0.00  0.00    +0.122 A 
BRANCH  31  32
ATOM     32  O   UNL     1       4.676  -3.780   3.388  0.00  0.00    -0.495 OA
ATOM     33  C   UNL     1       4.957  -5.023   4.035  0.00  0.00    +0.277 C 
ENDBRANCH  31  32
ENDBRANCH  18  26
ENDBRANCH   1  18
TORSDOF 9
