REMARK  Name = ZINC16351586
REMARK  8 active torsions:
REMARK  status: ('A' for Active; 'I' for Inactive)
REMARK    1  A    between atoms: C_1  and  C_2
REMARK    2  A    between atoms: C_5  and  C_8
REMARK    3  A    between atoms: C_8  and  N_46
REMARK    4  A    between atoms: C_9  and  N_46
REMARK    5  A    between atoms: C_10  and  N_11
REMARK    6  A    between atoms: C_10  and  N_46
REMARK    7  A    between atoms: C_16  and  C_18
REMARK    8  A    between atoms: C_21  and  C_24
REMARK                            x       y       z     vdW  Elec       q    Type
REMARK                         _______ _______ _______ _____ _____    ______ ____
ROOT
ATOM      1  N   UNL     1       1.614   5.936   2.835  0.00  0.00    -0.257 N 
ATOM      2  C   UNL     1       2.811   6.002   3.453  0.00  0.00    +0.174 A 
ATOM      3  S   UNL     1       4.329   5.624   2.757  0.00  0.00    -0.012 S 
ATOM      4  N   UNL     1       2.597   6.421   4.716  0.00  0.00    -0.317 N 
ATOM      5  H   UNL     1       3.278   6.560   5.392  0.00  0.00    +0.169 HD
ATOM      6  C   UNL     1       1.240   6.617   4.883  0.00  0.00    +0.160 A 
ATOM      7  N   UNL     1       0.640   6.335   3.760  0.00  0.00    -0.153 NA
ENDROOT
BRANCH   6   8
ATOM      8  C   UNL     1       0.579   7.076   6.124  0.00  0.00    +0.019 A 
ATOM      9  C   UNL     1       1.339   7.347   7.263  0.00  0.00    +0.012 A 
ATOM     10  C   UNL     1       0.717   7.779   8.416  0.00  0.00    +0.004 A 
ATOM     11  C   UNL     1      -0.657   7.936   8.448  0.00  0.00    -0.050 A 
ATOM     12  C   UNL     1      -1.416   7.663   7.324  0.00  0.00    +0.004 A 
ATOM     13  C   UNL     1      -0.806   7.235   6.163  0.00  0.00    +0.012 A 
ATOM     14  C   UNL     1      -1.330   8.403   9.713  0.00  0.00    +0.044 C 
ENDBRANCH   6   8
BRANCH   1  15
ATOM     15  C   UNL     1       1.376   5.527   1.449  0.00  0.00    +0.072 C 
BRANCH  15  17
ATOM     16  C   UNL     1      -0.085   3.705   2.089  0.00  0.00    -0.093 C 
ATOM     17  N   UNL     1       1.179   4.062   1.411  0.00  0.00    +0.394 N 
ATOM     18  H   UNL     1       1.959   3.608   1.899  0.00  0.00    -0.079 HD
BRANCH  17  19
ATOM     19  C   UNL     1       1.151   3.592   0.010  0.00  0.00    -0.041 C 
BRANCH  19  24
ATOM     20  C   UNL     1       1.229  -2.186  -0.022  0.00  0.00    +0.044 C 
ATOM     21  C   UNL     1       1.208  -0.679  -0.014  0.00  0.00    -0.050 A 
ATOM     22  C   UNL     1       0.002  -0.004   0.002  0.00  0.00    +0.003 A 
ATOM     23  C   UNL     1      -0.017   1.378   0.010  0.00  0.00    +0.002 A 
ATOM     24  C   UNL     1       1.171   2.086   0.002  0.00  0.00    -0.064 A 
ATOM     25  C   UNL     1       2.377   1.411  -0.014  0.00  0.00    +0.002 A 
ATOM     26  C   UNL     1       2.396   0.029  -0.021  0.00  0.00    +0.003 A 
ENDBRANCH  19  24
ENDBRANCH  17  19
ENDBRANCH  15  17
ENDBRANCH   1  15
TORSDOF 5
