REMARK  Name = ZINC39997228
REMARK  11 active torsions:
REMARK  status: ('A' for Active; 'I' for Inactive)
REMARK    1  A    between atoms: C_1  and  C_2
REMARK    2  A    between atoms: C_2  and  C_4
REMARK    3  A    between atoms: C_2  and  N_37
REMARK    4  A    between atoms: C_8  and  S_17
REMARK    5  A    between atoms: N_9  and  C_10
REMARK    6  A    between atoms: S_17  and  C_18
REMARK    7  A    between atoms: C_18  and  C_20
REMARK    8  A    between atoms: C_18  and  C_26
REMARK    9  A    between atoms: C_26  and  C_28
REMARK   10  A    between atoms: N_37  and  C_38
REMARK   11  A    between atoms: N_37  and  C_39
REMARK                            x       y       z     vdW  Elec       q    Type
REMARK                         _______ _______ _______ _____ _____    ______ ____
ROOT
ATOM      1  S   UNL     1      -3.588  -1.016   3.836  0.00  0.00    -0.072 S 
ENDROOT
BRANCH   1   5
ATOM      2  C   UNL     1      -1.384  -0.675   0.508  0.00  0.00    +0.168 C 
ATOM      3  N   UNL     1      -1.305  -2.109   0.835  0.00  0.00    -0.248 N 
ATOM      4  N   UNL     1      -2.063  -2.286   1.998  0.00  0.00    -0.162 NA
ATOM      5  C   UNL     1      -2.575  -1.173   2.404  0.00  0.00    +0.180 C 
ATOM      6  N   UNL     1      -2.232  -0.112   1.572  0.00  0.00    -0.260 N 
ATOM      7  H   UNL     1      -0.824  -2.793   0.343  0.00  0.00    +0.170 HD
BRANCH   6   8
ATOM      8  C   UNL     1      -2.616   1.225   1.717  0.00  0.00    +0.038 A 
ATOM      9  C   UNL     1      -3.390   1.836   0.739  0.00  0.00    +0.026 A 
ATOM     10  C   UNL     1      -3.767   3.157   0.884  0.00  0.00    +0.040 A 
ATOM     11  C   UNL     1      -3.375   3.871   2.004  0.00  0.00    +0.124 A 
ATOM     12  C   UNL     1      -2.603   3.264   2.980  0.00  0.00    +0.040 A 
ATOM     13  C   UNL     1      -2.228   1.942   2.842  0.00  0.00    +0.026 A 
ATOM     14  F   UNL     1      -3.745   5.163   2.143  0.00  0.00    -0.205 F 
ENDBRANCH   6   8
BRANCH   2  16
ATOM     15  C   UNL     1       0.598  -0.172   1.944  0.00  0.00    -0.010 C 
ATOM     16  C   UNL     1       0.008  -0.039   0.539  0.00  0.00    -0.032 C 
BRANCH  16  17
ATOM     17  N   UNL     1      -0.095   1.382   0.183  0.00  0.00    +0.380 N 
ATOM     18  C   UNL     1       1.235   2.002   0.254  0.00  0.00    -0.096 C 
ATOM     19  C   UNL     1      -0.622   1.508  -1.182  0.00  0.00    -0.096 C 
ATOM     20  H   UNL     1      -0.717   1.846   0.828  0.00  0.00    -0.082 HD
ENDBRANCH  16  17
ENDBRANCH   2  16
ENDBRANCH   1   5
BRANCH   1  21
ATOM     21  C   UNL     1      -3.682  -2.704   4.494  0.00  0.00    +0.155 C 
BRANCH  21  22
ATOM     22  C   UNL     1      -2.313  -3.145   4.944  0.00  0.00    -0.027 A 
ATOM     23  C   UNL     1      -1.651  -2.442   5.933  0.00  0.00    +0.005 A 
ATOM     24  C   UNL     1      -0.395  -2.846   6.346  0.00  0.00    +0.000 A 
ATOM     25  C   UNL     1       0.199  -3.954   5.769  0.00  0.00    +0.000 A 
ATOM     26  C   UNL     1      -0.463  -4.657   4.781  0.00  0.00    +0.000 A 
ATOM     27  C   UNL     1      -1.721  -4.255   4.371  0.00  0.00    +0.005 A 
ENDBRANCH  21  22
BRANCH  21  28
ATOM     28  C   UNL     1      -4.629  -2.735   5.666  0.00  0.00    +0.179 C 
ATOM     29  O   UNL     1      -4.833  -1.725   6.308  0.00  0.00    -0.291 OA
BRANCH  28  30
ATOM     30  C   UNL     1      -5.280  -3.937   6.016  0.00  0.00    +0.025 C 
ATOM     31  C   UNL     1      -6.176  -4.132   7.052  0.00  0.00    +0.006 A 
ATOM     32  C   UNL     1      -6.709  -3.270   8.038  0.00  0.00    +0.010 A 
ATOM     33  C   UNL     1      -7.590  -3.740   8.950  0.00  0.00    +0.001 A 
ATOM     34  C   UNL     1      -8.014  -5.078   8.969  0.00  0.00    +0.002 A 
ATOM     35  C   UNL     1      -7.565  -5.983   8.072  0.00  0.00    +0.026 A 
ATOM     36  C   UNL     1      -6.603  -5.553   7.043  0.00  0.00    +0.043 A 
ATOM     37  N   UNL     1      -6.019  -6.199   6.075  0.00  0.00    -0.380 N 
ATOM     38  C   UNL     1      -5.148  -5.281   5.334  0.00  0.00    +0.152 C 
ATOM     39  H   UNL     1      -6.143  -7.140   5.873  0.00  0.00    +0.160 HD
ENDBRANCH  28  30
ENDBRANCH  21  28
ENDBRANCH   1  21
TORSDOF 8
