REMARK  Name = ZINC62986025
REMARK  5 active torsions:
REMARK  status: ('A' for Active; 'I' for Inactive)
REMARK    1  A    between atoms: C_1  and  C_2
REMARK    2  A    between atoms: N_6  and  C_9
REMARK    3  A    between atoms: C_9  and  C_10
REMARK    4  A    between atoms: C_11  and  C_17
REMARK    5  A    between atoms: N_13  and  C_16
REMARK                            x       y       z     vdW  Elec       q    Type
REMARK                         _______ _______ _______ _____ _____    ______ ____
ROOT
ATOM      1  C   UNL     1       0.053  -2.805   2.461  0.00  0.00    +0.164 C 
ENDROOT
BRANCH   1   7
ATOM      2  C   UNL     1      -0.018   1.503   0.010  0.00  0.00    +0.049 C 
ATOM      3  C   UNL     1       0.002  -0.004   0.002  0.00  0.00    +0.014 A 
ATOM      4  C   UNL     1       0.006  -0.687  -1.179  0.00  0.00    +0.010 A 
ATOM      5  C   UNL     1       0.025  -2.088  -1.160  0.00  0.00    +0.018 A 
ATOM      6  C   UNL     1       0.040  -2.748   0.022  0.00  0.00    +0.089 A 
ATOM      7  N   UNL     1       0.037  -2.067   1.196  0.00  0.00    -0.311 N 
ATOM      8  C   UNL     1       0.023  -0.721   1.211  0.00  0.00    +0.254 A 
ATOM      9  O   UNL     1       0.025  -0.122   2.275  0.00  0.00    -0.267 OA
ENDBRANCH   1   7
BRANCH   1  10
ATOM     10  C   UNL     1       1.479  -3.038   2.888  0.00  0.00    +0.031 A 
ATOM     11  C   UNL     1       2.271  -4.140   2.547  0.00  0.00    +0.066 A 
ATOM     12  N   UNL     1       3.445  -3.987   3.104  0.00  0.00    -0.175 NA
ATOM     13  N   UNL     1       3.439  -2.783   3.818  0.00  0.00    -0.256 N 
ATOM     14  C   UNL     1       2.223  -2.216   3.666  0.00  0.00    +0.132 A 
ATOM     15 CL   UNL     1       1.705  -0.706   4.348  0.00  0.00    -0.062 Cl
ATOM     16  C   UNL     1       4.556  -2.232   4.589  0.00  0.00    +0.174 C 
ATOM     17  C   UNL     1       1.845  -5.302   1.688  0.00  0.00    +0.068 C 
ENDBRANCH   1  10
TORSDOF 2
