REMARK  Name = ZINC41338269
REMARK  9 active torsions:
REMARK  status: ('A' for Active; 'I' for Inactive)
REMARK    1  A    between atoms: C_1  and  C_2
REMARK    2  A    between atoms: N_11  and  C_15
REMARK    3  A    between atoms: C_15  and  C_16
REMARK    4  A    between atoms: N_18  and  C_19
REMARK    5  A    between atoms: C_19  and  C_20
REMARK    6  A    between atoms: C_20  and  C_22
REMARK    7  A    between atoms: C_20  and  O_30
REMARK    8  A    between atoms: C_22  and  O_23
REMARK    9  A    between atoms: O_23  and  C_24
REMARK                            x       y       z     vdW  Elec       q    Type
REMARK                         _______ _______ _______ _____ _____    ______ ____
ROOT
ATOM      1  C   UNL     1       1.154   0.526   5.534  0.00  0.00    +0.231 C 
ATOM      2  O   UNL     1       1.567  -0.591   5.305  0.00  0.00    -0.274 OA
ATOM      3  N   UNL     1       1.032   0.953   6.806  0.00  0.00    -0.311 N 
ATOM      4  H   UNL     1       0.701   1.846   6.989  0.00  0.00    +0.149 HD
ENDROOT
BRANCH   1   5
ATOM      5  C   UNL     1       0.777   1.438   4.394  0.00  0.00    +0.213 C 
BRANCH   5  15
ATOM      6  C   UNL     1      -0.019   1.526   0.010  0.00  0.00    +0.010 C 
ATOM      7  C   UNL     1       0.002  -0.004   0.002  0.00  0.00    +0.018 C 
ATOM      8  C   UNL     1       0.718  -0.498  -1.258  0.00  0.00    +0.006 C 
ATOM      9  C   UNL     1       0.756  -2.027  -1.255  0.00  0.00    +0.000 C 
ATOM     10  C   UNL     1       1.516  -2.519  -0.021  0.00  0.00    +0.003 C 
ATOM     11  C   UNL     1       0.803  -2.032   1.243  0.00  0.00    +0.035 C 
ATOM     12  C   UNL     1       0.739  -0.509   1.238  0.00  0.00    +0.115 C 
ATOM     13  C   UNL     1       0.069  -0.004   2.495  0.00  0.00    +0.247 C 
ATOM     14  O   UNL     1      -1.064  -0.228   2.863  0.00  0.00    -0.273 OA
ATOM     15  N   UNL     1       0.998   0.746   3.122  0.00  0.00    -0.215 N 
ATOM     16  C   UNL     1       2.148   0.781   2.437  0.00  0.00    +0.310 C 
ATOM     17  O   UNL     1       3.133   1.393   2.801  0.00  0.00    -0.252 OA
ATOM     18  N   UNL     1       2.091   0.063   1.300  0.00  0.00    -0.285 N 
ATOM     19  H   UNL     1       2.801  -0.054   0.650  0.00  0.00    +0.151 HD
ENDBRANCH   5  15
ENDBRANCH   1   5
BRANCH   3  20
ATOM     20  C   UNL     1       1.399   0.067   7.914  0.00  0.00    +0.139 C 
BRANCH  20  21
ATOM     21  C   UNL     1       1.167   0.789   9.243  0.00  0.00    +0.169 C 
BRANCH  21  22
ATOM     22  O   UNL     1       1.972   1.969   9.290  0.00  0.00    -0.387 OA
ATOM     23  H   UNL     1       2.921   1.801   9.219  0.00  0.00    +0.210 HD
ENDBRANCH  21  22
BRANCH  21  24
ATOM     24  C   UNL     1       1.550  -0.137  10.400  0.00  0.00    +0.261 C 
BRANCH  24  25
ATOM     25  O   UNL     1       1.225   0.493  11.641  0.00  0.00    -0.489 OA
BRANCH  25  26
ATOM     26  C   UNL     1       1.504  -0.201  12.776  0.00  0.00    +0.121 A 
ATOM     27  C   UNL     1       2.084  -1.458  12.697  0.00  0.00    +0.045 A 
ATOM     28  C   UNL     1       2.366  -2.161  13.852  0.00  0.00    +0.004 A 
ATOM     29  C   UNL     1       2.072  -1.612  15.086  0.00  0.00    +0.000 A 
ATOM     30  C   UNL     1       1.494  -0.359  15.168  0.00  0.00    +0.004 A 
ATOM     31  C   UNL     1       1.215   0.351  14.015  0.00  0.00    +0.045 A 
ENDBRANCH  25  26
ENDBRANCH  24  25
ENDBRANCH  21  24
ENDBRANCH  20  21
ENDBRANCH   3  20
TORSDOF 8
