REMARK  Name = ZINC13501096
REMARK  13 active torsions:
REMARK  status: ('A' for Active; 'I' for Inactive)
REMARK    1  A    between atoms: C_1  and  C_2
REMARK    2  A    between atoms: C_2  and  C_3
REMARK    3  A    between atoms: C_3  and  C_5
REMARK    4  A    between atoms: C_3  and  N_15
REMARK    5  A    between atoms: N_9  and  C_10
REMARK    6  A    between atoms: N_15  and  C_16
REMARK    7  A    between atoms: N_15  and  C_25
REMARK    8  A    between atoms: C_16  and  C_17
REMARK    9  A    between atoms: C_17  and  C_18
REMARK   10  A    between atoms: C_18  and  N_19
REMARK   11  A    between atoms: C_25  and  C_26
REMARK   12  A    between atoms: C_30  and  C_39
REMARK   13  A    between atoms: C_32  and  C_38
REMARK                            x       y       z     vdW  Elec       q    Type
REMARK                         _______ _______ _______ _____ _____    ______ ____
ROOT
ATOM      1  N   UNL     1      -1.766   2.271  -0.880  0.00  0.00    +0.389 N 
ATOM      2  H   UNL     1      -0.862   2.825  -1.173  0.00  0.00    -0.080 HD
ENDROOT
BRANCH   1   3
ATOM      3  C   UNL     1      -2.120   1.367  -1.982  0.00  0.00    +0.003 C 
BRANCH   3   4
ATOM      4  C   UNL     1      -3.609   1.140  -1.987  0.00  0.00    +0.138 A 
ATOM      5  N   UNL     1      -4.541   2.058  -2.075  0.00  0.00    -0.115 NA
ATOM      6  N   UNL     1      -5.685   1.468  -2.048  0.00  0.00    -0.023 NA
ATOM      7  N   UNL     1      -5.509   0.197  -1.938  0.00  0.00    -0.044 NA
ATOM      8  N   UNL     1      -4.242  -0.045  -1.897  0.00  0.00    -0.228 N 
BRANCH   8   9
ATOM      9  C   UNL     1      -3.611  -1.361  -1.775  0.00  0.00    +0.111 C 
ATOM     10  C   UNL     1      -3.997  -2.245  -2.979  0.00  0.00    +0.027 C 
ATOM     11  C   UNL     1      -4.156  -3.663  -2.372  0.00  0.00    +0.002 C 
ATOM     12  C   UNL     1      -4.812  -3.376  -0.999  0.00  0.00    +0.002 C 
ATOM     13  C   UNL     1      -4.129  -2.079  -0.517  0.00  0.00    +0.027 C 
ENDBRANCH   8   9
ENDBRANCH   3   4
BRANCH   3  15
ATOM     14  C   UNL     1      -0.171   2.126  -3.349  0.00  0.00    +0.002 C 
ATOM     15  C   UNL     1      -1.694   1.993  -3.312  0.00  0.00    -0.011 C 
ENDBRANCH   3  15
ENDBRANCH   1   3
BRANCH   1  16
ATOM     16  C   UNL     1      -2.835   3.249  -0.638  0.00  0.00    -0.076 C 
BRANCH  16  17
ATOM     17  C   UNL     1      -2.958   4.179  -1.846  0.00  0.00    -0.003 C 
BRANCH  17  18
ATOM     18  C   UNL     1      -3.943   5.306  -1.524  0.00  0.00    +0.083 C 
BRANCH  18  19
ATOM     19  N   UNL     1      -4.061   6.199  -2.685  0.00  0.00    -0.298 NA
ATOM     20  C   UNL     1      -2.798   6.908  -2.936  0.00  0.00    +0.112 C 
ATOM     21  C   UNL     1      -2.948   7.779  -4.185  0.00  0.00    +0.175 C 
ATOM     22  O   UNL     1      -4.046   8.677  -4.005  0.00  0.00    -0.377 OA
ATOM     23  C   UNL     1      -5.293   8.020  -3.760  0.00  0.00    +0.175 C 
ATOM     24  C   UNL     1      -5.167   7.151  -2.506  0.00  0.00    +0.112 C 
ENDBRANCH  18  19
ENDBRANCH  17  18
ENDBRANCH  16  17
ENDBRANCH   1  16
BRANCH   1  25
ATOM     25  C   UNL     1      -1.457   1.516   0.342  0.00  0.00    -0.037 C 
BRANCH  25  26
ATOM     26  C   UNL     1      -0.042   1.002   0.270  0.00  0.00    +0.001 A 
ATOM     27  C   UNL     1       0.971   1.734   0.796  0.00  0.00    +0.017 A 
ATOM     28  C   UNL     1       2.334   1.208   0.705  0.00  0.00    -0.001 A 
ATOM     29  C   UNL     1       3.420   1.917   1.230  0.00  0.00    +0.013 A 
ATOM     30  C   UNL     1       4.680   1.400   1.128  0.00  0.00    -0.050 A 
ATOM     31  C   UNL     1       4.893   0.176   0.507  0.00  0.00    +0.008 A 
ATOM     32  C   UNL     1       3.839  -0.539  -0.017  0.00  0.00    -0.026 A 
ATOM     33  C   UNL     1       2.547  -0.033   0.075  0.00  0.00    +0.052 A 
ATOM     34  N   UNL     1       1.473  -0.728  -0.441  0.00  0.00    -0.322 N 
ATOM     35  H   UNL     1       1.632  -1.698  -0.934  0.00  0.00    +0.169 HD
ATOM     36  C   UNL     1       0.225  -0.238  -0.351  0.00  0.00    +0.251 A 
ATOM     37  O   UNL     1      -0.700  -0.879  -0.818  0.00  0.00    -0.268 OA
ATOM     38  C   UNL     1       4.085  -1.867  -0.687  0.00  0.00    +0.046 C 
ATOM     39  C   UNL     1       5.849   2.164   1.694  0.00  0.00    +0.044 C 
ENDBRANCH  25  26
ENDBRANCH   1  25
TORSDOF 10
