REMARK  Name = ZINC25126289
REMARK  8 active torsions:
REMARK  status: ('A' for Active; 'I' for Inactive)
REMARK    1  A    between atoms: C_1  and  C_2
REMARK    2  A    between atoms: C_2  and  C_4
REMARK    3  A    between atoms: C_2  and  N_18
REMARK    4  A    between atoms: C_4  and  N_5
REMARK    5  A    between atoms: C_6  and  C_8
REMARK    6  A    between atoms: C_8  and  C_9
REMARK    7  A    between atoms: C_12  and  S_14
REMARK    8  A    between atoms: S_14  and  N_17
REMARK                            x       y       z     vdW  Elec       q    Type
REMARK                         _______ _______ _______ _____ _____    ______ ____
ROOT
ATOM      1  N   UNL     1       3.670   3.052  -1.250  0.00  0.00    -0.317 N 
ATOM      2  C   UNL     1       4.989   3.282  -1.405  0.00  0.00    +0.218 C 
ATOM      3  O   UNL     1       5.515   4.207  -0.825  0.00  0.00    -0.275 OA
ATOM      4  H   UNL     1       3.192   2.212  -1.777  0.00  0.00    +0.149 HD
ENDROOT
BRANCH   1   5
ATOM      5  C   UNL     1       2.872   3.920  -0.381  0.00  0.00    +0.089 C 
BRANCH   5   7
ATOM      6  C   UNL     1       0.611   4.271   0.622  0.00  0.00    -0.012 C 
ATOM      7  C   UNL     1       1.418   3.444  -0.381  0.00  0.00    -0.054 C 
BRANCH   7   8
ATOM      8  N   UNL     1       1.366   2.026  -0.000  0.00  0.00    +0.385 N 
ATOM      9  C   UNL     1      -0.019   1.534   0.011  0.00  0.00    -0.073 C 
ATOM     10  C   UNL     1       0.002  -0.004   0.002  0.00  0.00    +0.024 C 
ATOM     11  C   UNL     1       0.994  -0.451   1.026  0.00  0.00    -0.011 A 
ATOM     12  C   UNL     1       1.935   0.321   1.638  0.00  0.00    -0.054 A 
ATOM     13  C   UNL     1       2.754  -0.316   2.567  0.00  0.00    +0.009 A 
ATOM     14  C   UNL     1       2.594  -1.637   2.817  0.00  0.00    +0.045 A 
ATOM     15  S   UNL     1       1.241  -2.057   1.728  0.00  0.00    -0.101 S 
ATOM     16  C   UNL     1       2.041   1.801   1.284  0.00  0.00    -0.042 C 
ATOM     17  H   UNL     1       1.911   1.445  -0.758  0.00  0.00    -0.081 HD
ENDBRANCH   7   8
ENDBRANCH   5   7
ENDBRANCH   1   5
BRANCH   2  18
ATOM     18  C   UNL     1       5.809   2.389  -2.300  0.00  0.00    +0.138 C 
BRANCH  18  19
ATOM     19  C   UNL     1       7.241   2.857  -2.300  0.00  0.00    +0.000 A 
ATOM     20  C   UNL     1       8.259   2.492  -1.482  0.00  0.00    +0.013 A 
ATOM     21  C   UNL     1       9.506   3.058  -1.669  0.00  0.00    +0.036 A 
ATOM     22  C   UNL     1       9.674   3.962  -2.665  0.00  0.00    +0.142 A 
ATOM     23  S   UNL     1       8.041   4.031  -3.382  0.00  0.00    -0.073 S 
BRANCH  22  24
ATOM     24  S   UNL     1      11.130   4.838  -3.135  0.00  0.00    +0.062 S 
ATOM     25  O   UNL     1      10.698   6.014  -3.805  0.00  0.00    -0.153 OA
ATOM     26  O   UNL     1      11.967   4.879  -1.987  0.00  0.00    -0.153 OA
BRANCH  24  27
ATOM     27  N   UNL     1      11.915   3.912  -4.261  0.00  0.00    -0.203 NA
ATOM     28  H   UNL     1      12.834   4.426  -4.582  0.00  0.00    +0.144 HD
ATOM     29  H   UNL     1      11.259   3.758  -5.131  0.00  0.00    +0.144 HD
ENDBRANCH  24  27
ENDBRANCH  22  24
ENDBRANCH  18  19
ENDBRANCH   2  18
TORSDOF 7
