REMARK  Name = ZINC19500858
REMARK  11 active torsions:
REMARK  status: ('A' for Active; 'I' for Inactive)
REMARK    1  A    between atoms: C_1  and  C_2
REMARK    2  A    between atoms: C_2  and  C_3
REMARK    3  A    between atoms: N_7  and  C_23
REMARK    4  A    between atoms: C_10  and  C_15
REMARK    5  A    between atoms: C_15  and  C_17
REMARK    6  A    between atoms: C_15  and  O_22
REMARK    7  A    between atoms: C_23  and  C_24
REMARK    8  A    between atoms: N_26  and  C_27
REMARK    9  A    between atoms: C_28  and  C_34
REMARK   10  A    between atoms: N_30  and  C_33
REMARK   11  A    between atoms: C_31  and  C_32
REMARK                            x       y       z     vdW  Elec       q    Type
REMARK                         _______ _______ _______ _____ _____    ______ ____
ROOT
ATOM      1  C   UNL     1       3.523   4.751   2.935  0.00  0.00    +0.259 C 
ATOM      2  C   UNL     1       2.677   4.360   1.750  0.00  0.00    +0.261 C 
ATOM      3  O   UNL     1       3.168   4.305   0.642  0.00  0.00    -0.271 OA
ATOM      4  N   UNL     1       1.370   4.071   1.927  0.00  0.00    -0.256 N 
ATOM      5  C   UNL     1       0.792   4.269   3.189  0.00  0.00    +0.079 A 
ATOM      6  C   UNL     1      -0.470   3.771   3.471  0.00  0.00    +0.033 A 
ATOM      7  C   UNL     1      -1.020   3.963   4.725  0.00  0.00    -0.010 A 
ATOM      8  C   UNL     1      -0.315   4.649   5.697  0.00  0.00    +0.010 A 
ATOM      9  C   UNL     1       0.944   5.143   5.423  0.00  0.00    +0.048 A 
ATOM     10  C   UNL     1       1.498   4.965   4.166  0.00  0.00    +0.143 A 
ATOM     11  O   UNL     1       2.726   5.473   3.877  0.00  0.00    -0.478 OA
ENDROOT
BRANCH   1  13
ATOM     12  C   UNL     1       5.039   3.891   4.725  0.00  0.00    +0.008 C 
ATOM     13  C   UNL     1       4.081   3.492   3.600  0.00  0.00    +0.051 C 
ENDBRANCH   1  13
BRANCH   7  14
ATOM     14  C   UNL     1      -2.393   3.422   5.034  0.00  0.00    +0.210 C 
BRANCH  14  15
ATOM     15  C   UNL     1      -3.420   4.503   4.812  0.00  0.00    +0.138 A 
ATOM     16  C   UNL     1      -4.200   4.635   3.725  0.00  0.00    +0.047 A 
ATOM     17  C   UNL     1      -5.008   5.776   3.937  0.00  0.00    +0.041 A 
ATOM     18  C   UNL     1      -4.673   6.272   5.142  0.00  0.00    +0.195 A 
ATOM     19  O   UNL     1      -3.714   5.494   5.670  0.00  0.00    -0.465 OA
ENDBRANCH  14  15
BRANCH  14  20
ATOM     20  O   UNL     1      -2.440   2.992   6.396  0.00  0.00    -0.379 OA
ATOM     21  H   UNL     1      -3.367   2.565   6.806  0.00  0.00    +0.211 HD
ENDBRANCH  14  20
ENDBRANCH   7  14
BRANCH   4  22
ATOM     22  C   UNL     1       0.565   3.563   0.814  0.00  0.00    +0.209 C 
BRANCH  22  23
ATOM     23  C   UNL     1       0.632   2.058   0.792  0.00  0.00    +0.235 C 
ATOM     24  O   UNL     1       1.288   1.467   1.624  0.00  0.00    -0.274 OA
ATOM     25  N   UNL     1      -0.037   1.367  -0.153  0.00  0.00    -0.281 N 
ATOM     26  H   UNL     1      -0.562   1.903  -0.958  0.00  0.00    +0.155 HD
BRANCH  25  27
ATOM     27  C   UNL     1      -0.064  -0.039  -0.110  0.00  0.00    +0.077 A 
ATOM     28  C   UNL     1       0.984  -0.897  -0.473  0.00  0.00    +0.081 A 
ATOM     29  N   UNL     1       0.586  -2.131  -0.299  0.00  0.00    -0.175 NA
ATOM     30  N   UNL     1      -0.730  -2.106   0.182  0.00  0.00    -0.270 N 
ATOM     31  C   UNL     1      -1.108  -0.807   0.296  0.00  0.00    +0.057 A 
ATOM     32  C   UNL     1      -2.444  -0.308   0.782  0.00  0.00    +0.067 C 
ATOM     33  C   UNL     1      -1.550  -3.275   0.510  0.00  0.00    +0.172 C 
ATOM     34  C   UNL     1       2.338  -0.471  -0.979  0.00  0.00    +0.069 C 
ENDBRANCH  25  27
ENDBRANCH  22  23
ENDBRANCH   4  22
TORSDOF 7
