REMARK  Name = ZINC14005323
REMARK  11 active torsions:
REMARK  status: ('A' for Active; 'I' for Inactive)
REMARK    1  A    between atoms: C_1  and  C_2
REMARK    2  A    between atoms: C_2  and  C_3
REMARK    3  A    between atoms: C_3  and  C_5
REMARK    4  A    between atoms: C_3  and  C_6
REMARK    5  A    between atoms: C_9  and  O_12
REMARK    6  A    between atoms: O_12  and  C_13
REMARK    7  A    between atoms: C_13  and  C_14
REMARK    8  A    between atoms: N_16  and  N_17
REMARK    9  A    between atoms: N_17  and  C_18
REMARK   10  A    between atoms: C_18  and  N_20
REMARK   11  A    between atoms: C_21  and  C_23
REMARK                            x       y       z     vdW  Elec       q    Type
REMARK                         _______ _______ _______ _____ _____    ______ ____
ROOT
ATOM      1  C   UNL     1       3.522   2.039  -0.021  0.00  0.00    +0.267 C 
ATOM      2  O   UNL     1       3.506   3.252  -0.014  0.00  0.00    -0.271 OA
ATOM      3  N   UNL     1       2.364   1.349  -0.013  0.00  0.00    -0.232 N 
ATOM      4  H   UNL     1       2.377   0.379  -0.019  0.00  0.00    +0.173 HD
ENDROOT
BRANCH   3   5
ATOM      5  N   UNL     1       1.142   2.033   0.002  0.00  0.00    -0.245 N 
ATOM      6  H   UNL     1       1.129   3.003   0.007  0.00  0.00    +0.172 HD
BRANCH   5   7
ATOM      7  C   UNL     1      -0.016   1.344   0.009  0.00  0.00    +0.153 C 
ATOM      8  S   UNL     1      -1.510   2.179   0.021  0.00  0.00    -0.017 S 
BRANCH   7   9
ATOM      9  N   UNL     1       0.002  -0.004   0.002  0.00  0.00    -0.263 N 
ATOM     10  C   UNL     1      -1.156  -0.694   0.009  0.00  0.00    +0.250 C 
ATOM     11  O   UNL     1      -2.216  -0.101   0.023  0.00  0.00    -0.270 OA
ATOM     12  H   UNL     1       0.849  -0.478  -0.009  0.00  0.00    +0.157 HD
BRANCH  10  13
ATOM     13  C   UNL     1      -1.136  -2.171   0.001  0.00  0.00    +0.038 A 
ATOM     14  C   UNL     1       0.081  -2.856  -0.020  0.00  0.00    +0.013 A 
ATOM     15  C   UNL     1       0.093  -4.235  -0.022  0.00  0.00    +0.002 A 
ATOM     16  C   UNL     1      -1.097  -4.941  -0.015  0.00  0.00    +0.020 A 
ATOM     17  C   UNL     1      -2.307  -4.269   0.001  0.00  0.00    +0.042 A 
ATOM     18  C   UNL     1      -2.333  -2.889   0.009  0.00  0.00    +0.033 A 
ATOM     19 CL   UNL     1      -3.795  -5.164   0.009  0.00  0.00    -0.084 Cl
ENDBRANCH  10  13
ENDBRANCH   7   9
ENDBRANCH   5   7
ENDBRANCH   3   5
BRANCH   1  20
ATOM     20  C   UNL     1       4.837   1.303  -0.037  0.00  0.00    +0.326 C 
BRANCH  20  21
ATOM     21  O   UNL     1       5.911   2.247  -0.042  0.00  0.00    -0.483 OA
BRANCH  21  25
ATOM     22  C   UNL     1       9.744   0.722  -0.087  0.00  0.00    -0.044 A 
ATOM     23  C   UNL     1       9.545   2.090  -0.078  0.00  0.00    +0.007 A 
ATOM     24  C   UNL     1       8.263   2.603  -0.063  0.00  0.00    +0.046 A 
ATOM     25  C   UNL     1       7.173   1.744  -0.057  0.00  0.00    +0.121 A 
ATOM     26  C   UNL     1       7.375   0.372  -0.061  0.00  0.00    +0.046 A 
ATOM     27  C   UNL     1       8.660  -0.136  -0.082  0.00  0.00    +0.007 A 
BRANCH  22  28
ATOM     28  C   UNL     1      11.144   0.165  -0.104  0.00  0.00    +0.016 C 
ATOM     29  C   UNL     1      11.363  -0.701   1.139  0.00  0.00    +0.012 C 
BRANCH  28  31
ATOM     30  C   UNL     1      12.795  -1.150  -1.440  0.00  0.00    +0.004 C 
ATOM     31  C   UNL     1      11.339  -0.687  -1.359  0.00  0.00    +0.004 C 
ENDBRANCH  28  31
ENDBRANCH  22  28
ENDBRANCH  21  25
ENDBRANCH  20  21
ENDBRANCH   1  20
TORSDOF 9
