REMARK  Name = ZINC00877800
REMARK  10 active torsions:
REMARK  status: ('A' for Active; 'I' for Inactive)
REMARK    1  A    between atoms: C_1  and  C_2
REMARK    2  A    between atoms: C_3  and  N_9
REMARK    3  A    between atoms: C_10  and  C_12
REMARK    4  A    between atoms: C_12  and  S_13
REMARK    5  A    between atoms: S_13  and  C_14
REMARK    6  A    between atoms: C_17  and  C_26
REMARK    7  A    between atoms: N_18  and  C_19
REMARK    8  A    between atoms: C_19  and  C_20
REMARK    9  A    between atoms: C_26  and  N_27
REMARK   10  A    between atoms: N_27  and  C_28
REMARK                            x       y       z     vdW  Elec       q    Type
REMARK                         _______ _______ _______ _____ _____    ______ ____
ROOT
ATOM      1  C   UNL     1       5.103  -3.329   0.386  0.00  0.00    +0.192 A 
ATOM      2  N   UNL     1       6.191  -2.595   0.368  0.00  0.00    -0.122 NA
ATOM      3  N   UNL     1       7.228  -3.349   0.461  0.00  0.00    -0.132 NA
ATOM      4  C   UNL     1       6.867  -4.599   0.535  0.00  0.00    +0.151 A 
ATOM      5  N   UNL     1       5.501  -4.631   0.490  0.00  0.00    -0.302 N 
ENDROOT
BRANCH   1   6
ATOM      6  S   UNL     1       3.443  -2.746   0.287  0.00  0.00    -0.077 S 
BRANCH   6   7
ATOM      7  C   UNL     1       3.743  -0.964   0.175  0.00  0.00    +0.173 C 
BRANCH   7   9
ATOM      8  N   UNL     1       2.402   1.106  -0.015  0.00  0.00    -0.285 N 
ATOM      9  C   UNL     1       2.426  -0.239   0.078  0.00  0.00    +0.227 C 
ATOM     10  O   UNL     1       1.387  -0.864   0.085  0.00  0.00    -0.275 OA
ATOM     11  H   UNL     1       3.233   1.601  -0.087  0.00  0.00    +0.155 HD
BRANCH   8  14
ATOM     12  C   UNL     1       2.289   3.655   1.243  0.00  0.00    +0.047 C 
ATOM     13  C   UNL     1       1.080   3.033   0.593  0.00  0.00    -0.011 A 
ATOM     14  C   UNL     1       1.180   1.786  -0.010  0.00  0.00    +0.038 A 
ATOM     15  C   UNL     1       0.064   1.216  -0.608  0.00  0.00    +0.023 A 
ATOM     16  C   UNL     1      -1.141   1.892  -0.607  0.00  0.00    +0.003 A 
ATOM     17  C   UNL     1      -1.239   3.131  -0.001  0.00  0.00    +0.020 A 
ATOM     18  C   UNL     1      -0.129   3.703   0.596  0.00  0.00    +0.046 A 
ATOM     19 CL   UNL     1      -0.255   5.262   1.349  0.00  0.00    -0.083 Cl
ENDBRANCH   8  14
ENDBRANCH   7   9
ENDBRANCH   6   7
ENDBRANCH   1   6
BRANCH   5  20
ATOM     20  C   UNL     1       4.642  -5.817   0.543  0.00  0.00    +0.157 C 
BRANCH  20  21
ATOM     21  C   UNL     1       4.394  -6.330  -0.877  0.00  0.00    +0.138 C 
ATOM     22  C   UNL     1       3.531  -7.617  -0.841  0.00  0.00    +0.035 C 
ATOM     23  C   UNL     1       2.885  -7.579  -2.252  0.00  0.00    +0.031 C 
ATOM     24  C   UNL     1       2.705  -6.064  -2.489  0.00  0.00    +0.160 C 
ATOM     25  O   UNL     1       3.616  -5.379  -1.622  0.00  0.00    -0.375 OA
ENDBRANCH  20  21
ENDBRANCH   5  20
BRANCH   4  26
ATOM     26  C   UNL     1       7.786  -5.788   0.649  0.00  0.00    +0.178 C 
BRANCH  26  27
ATOM     27  N   UNL     1       8.131  -6.269  -0.691  0.00  0.00    -0.337 N 
ATOM     28  H   UNL     1       7.772  -5.822  -1.473  0.00  0.00    +0.147 HD
BRANCH  27  29
ATOM     29  C   UNL     1       8.978  -7.371  -0.841  0.00  0.00    +0.028 A 
ATOM     30  C   UNL     1       9.496  -8.008   0.279  0.00  0.00    +0.026 A 
ATOM     31  C   UNL     1      10.328  -9.100   0.128  0.00  0.00    +0.040 A 
ATOM     32  C   UNL     1      10.653  -9.554  -1.139  0.00  0.00    +0.124 A 
ATOM     33  C   UNL     1      10.142  -8.917  -2.257  0.00  0.00    +0.040 A 
ATOM     34  C   UNL     1       9.306  -7.828  -2.111  0.00  0.00    +0.026 A 
ATOM     35  F   UNL     1      11.471 -10.620  -1.285  0.00  0.00    -0.205 F 
ENDBRANCH  27  29
ENDBRANCH  26  27
ENDBRANCH   4  26
TORSDOF 9
