REMARK  Name = ZINC09593249
REMARK  12 active torsions:
REMARK  status: ('A' for Active; 'I' for Inactive)
REMARK    1  A    between atoms: C_1  and  C_2
REMARK    2  A    between atoms: C_2  and  C_3
REMARK    3  A    between atoms: C_3  and  N_4
REMARK    4  A    between atoms: N_4  and  C_5
REMARK    5  A    between atoms: C_5  and  C_6
REMARK    6  A    between atoms: C_9  and  C_11
REMARK    7  A    between atoms: C_16  and  C_18
REMARK    8  A    between atoms: C_18  and  S_19
REMARK    9  A    between atoms: S_19  and  C_20
REMARK   10  A    between atoms: C_23  and  C_27
REMARK   11  A    between atoms: N_24  and  C_25
REMARK   12  A    between atoms: C_25  and  C_26
REMARK                            x       y       z     vdW  Elec       q    Type
REMARK                         _______ _______ _______ _____ _____    ______ ____
ROOT
ATOM      1  N   UNL     1       4.142   0.503   1.490  0.00  0.00    -0.292 N 
ATOM      2  C   UNL     1       4.253   1.717   2.067  0.00  0.00    +0.226 C 
ATOM      3  O   UNL     1       3.940   2.712   1.448  0.00  0.00    -0.275 OA
ENDROOT
BRANCH   1   4
ATOM      4  C   UNL     1       4.519  -0.699   2.237  0.00  0.00    +0.108 C 
BRANCH   4   6
ATOM      5  C   UNL     1       6.394  -2.260   2.778  0.00  0.00    +0.005 C 
ATOM      6  C   UNL     1       5.999  -1.004   1.998  0.00  0.00    +0.016 C 
ENDBRANCH   4   6
ENDBRANCH   1   4
BRANCH   1   7
ATOM      7  C   UNL     1       3.643   0.387   0.118  0.00  0.00    +0.205 C 
BRANCH   7   8
ATOM      8  C   UNL     1       2.144   0.235   0.138  0.00  0.00    +0.235 A 
ATOM      9  N   UNL     1       1.273   1.203   0.098  0.00  0.00    -0.110 NA
ATOM     10  N   UNL     1       0.083   0.714   0.132  0.00  0.00    -0.107 NA
ATOM     11  C   UNL     1       0.156  -0.598   0.196  0.00  0.00    +0.255 A 
ATOM     12  O   UNL     1       1.464  -0.924   0.201  0.00  0.00    -0.418 OA
BRANCH  11  13
ATOM     13  C   UNL     1      -0.978  -1.533   0.252  0.00  0.00    +0.076 A 
ATOM     14  C   UNL     1      -2.333  -1.260   0.255  0.00  0.00    +0.021 A 
ATOM     15  C   UNL     1      -3.213  -2.316   0.309  0.00  0.00    +0.008 A 
ATOM     16  C   UNL     1      -2.727  -3.584   0.368  0.00  0.00    +0.046 A 
ATOM     17  S   UNL     1      -0.963  -3.316   0.340  0.00  0.00    -0.092 S 
ENDBRANCH  11  13
ENDBRANCH   7   8
ENDBRANCH   1   7
BRANCH   2  18
ATOM     18  C   UNL     1       4.765   1.836   3.479  0.00  0.00    +0.173 C 
BRANCH  18  19
ATOM     19  S   UNL     1       4.797   3.580   3.963  0.00  0.00    -0.077 S 
BRANCH  19  20
ATOM     20  C   UNL     1       5.418   3.430   5.605  0.00  0.00    +0.192 A 
ATOM     21  N   UNL     1       5.733   2.311   6.221  0.00  0.00    -0.122 NA
ATOM     22  N   UNL     1       6.156   2.565   7.408  0.00  0.00    -0.128 NA
ATOM     23  C   UNL     1       6.128   3.859   7.626  0.00  0.00    +0.165 A 
ATOM     24  N   UNL     1       5.654   4.452   6.478  0.00  0.00    -0.302 N 
BRANCH  23  25
ATOM     25  C   UNL     1       6.530   4.549   8.869  0.00  0.00    +0.022 A 
ATOM     26  C   UNL     1       7.343   3.912   9.815  0.00  0.00    +0.031 A 
ATOM     27  C   UNL     1       7.699   4.595  10.959  0.00  0.00    +0.111 A 
ATOM     28  N   UNL     1       7.275   5.827  11.172  0.00  0.00    -0.263 NA
ATOM     29  C   UNL     1       6.504   6.462  10.309  0.00  0.00    +0.111 A 
ATOM     30  C   UNL     1       6.105   5.856   9.137  0.00  0.00    +0.031 A 
ENDBRANCH  23  25
BRANCH  24  31
ATOM     31  C   UNL     1       5.447   5.883   6.241  0.00  0.00    +0.122 C 
ATOM     32  C   UNL     1       3.993   6.246   6.550  0.00  0.00    +0.027 C 
ENDBRANCH  24  31
ENDBRANCH  19  20
ENDBRANCH  18  19
ENDBRANCH   2  18
TORSDOF 10
