REMARK  Name = ZINC09608566
REMARK  11 active torsions:
REMARK  status: ('A' for Active; 'I' for Inactive)
REMARK    1  A    between atoms: C_1  and  C_2
REMARK    2  A    between atoms: C_2  and  C_3
REMARK    3  A    between atoms: C_3  and  C_4
REMARK    4  A    between atoms: C_4  and  C_5
REMARK    5  A    between atoms: C_5  and  S_6
REMARK    6  A    between atoms: S_6  and  C_7
REMARK    7  A    between atoms: C_12  and  C_22
REMARK    8  A    between atoms: C_25  and  O_30
REMARK    9  A    between atoms: C_26  and  O_28
REMARK   10  A    between atoms: O_28  and  C_29
REMARK   11  A    between atoms: O_30  and  C_31
REMARK                            x       y       z     vdW  Elec       q    Type
REMARK                         _______ _______ _______ _____ _____    ______ ____
ROOT
ATOM      1  C   UNL     1       2.402  -4.784   3.933  0.00  0.00    +0.210 A 
ATOM      2  N   UNL     1       2.903  -3.911   4.819  0.00  0.00    -0.187 NA
ATOM      3  C   UNL     1       3.486  -4.561   5.789  0.00  0.00    +0.219 A 
ATOM      4  N   UNL     1       3.372  -5.888   5.537  0.00  0.00    -0.220 N 
ATOM      5  N   UNL     1       2.664  -6.007   4.341  0.00  0.00    -0.141 NA
ATOM      6  C   UNL     1       3.917  -6.920   6.409  0.00  0.00    +0.176 C 
ATOM      7  C   UNL     1       4.296  -6.321   7.745  0.00  0.00    +0.041 C 
ATOM      8  C   UNL     1       4.393  -4.988   7.932  0.00  0.00    +0.020 C 
ATOM      9  N   UNL     1       4.133  -4.094   6.921  0.00  0.00    -0.287 N 
ATOM     10  C   UNL     1       4.797  -4.420   9.272  0.00  0.00    +0.052 C 
ATOM     11  C   UNL     1       4.306  -5.341  10.390  0.00  0.00    +0.014 C 
ATOM     12  C   UNL     1       4.915  -6.730  10.173  0.00  0.00    +0.080 C 
ATOM     13  C   UNL     1       4.546  -7.217   8.800  0.00  0.00    +0.163 C 
ATOM     14  O   UNL     1       4.460  -8.413   8.597  0.00  0.00    -0.292 OA
ATOM     15  H   UNL     1       4.395  -3.163   6.998  0.00  0.00    +0.155 HD
ENDROOT
BRANCH   6  16
ATOM     16  C   UNL     1       5.142  -7.521   5.767  0.00  0.00    -0.015 A 
ATOM     17  C   UNL     1       6.231  -6.721   5.478  0.00  0.00    +0.010 A 
ATOM     18  C   UNL     1       7.357  -7.268   4.889  0.00  0.00    +0.050 A 
ATOM     19  C   UNL     1       7.394  -8.620   4.588  0.00  0.00    +0.162 A 
ATOM     20  C   UNL     1       6.297  -9.425   4.880  0.00  0.00    +0.162 A 
ATOM     21  C   UNL     1       5.174  -8.872   5.474  0.00  0.00    +0.055 A 
BRANCH  20  22
ATOM     22  O   UNL     1       6.329 -10.752   4.587  0.00  0.00    -0.491 OA
ATOM     23  C   UNL     1       5.168 -11.517   4.915  0.00  0.00    +0.277 C 
ENDBRANCH  20  22
BRANCH  19  24
ATOM     24  O   UNL     1       8.500  -9.159   4.009  0.00  0.00    -0.491 OA
ATOM     25  C   UNL     1       9.588  -8.272   3.738  0.00  0.00    +0.277 C 
ENDBRANCH  19  24
ENDBRANCH   6  16
BRANCH   1  26
ATOM     26  S   UNL     1       1.527  -4.361   2.463  0.00  0.00    -0.084 S 
BRANCH  26  27
ATOM     27  C   UNL     1       1.503  -2.548   2.473  0.00  0.00    +0.077 C 
BRANCH  27  28
ATOM     28  C   UNL     1       0.763  -2.041   1.233  0.00  0.00    +0.011 C 
BRANCH  28  29
ATOM     29  C   UNL     1       0.742  -0.511   1.242  0.00  0.00    +0.001 C 
BRANCH  29  31
ATOM     30  C   UNL     1      -0.019   1.526   0.010  0.00  0.00    +0.004 C 
ATOM     31  C   UNL     1       0.002  -0.004   0.002  0.00  0.00    -0.003 C 
ENDBRANCH  29  31
ENDBRANCH  28  29
ENDBRANCH  27  28
ENDBRANCH  26  27
ENDBRANCH   1  26
TORSDOF 8
