REMARK  Name = ZINC36548570
REMARK  16 active torsions:
REMARK  status: ('A' for Active; 'I' for Inactive)
REMARK    1  A    between atoms: C_1  and  C_2
REMARK    2  A    between atoms: C_2  and  C_3
REMARK    3  A    between atoms: C_2  and  C_4
REMARK    4  A    between atoms: C_2  and  C_5
REMARK    5  A    between atoms: C_5  and  C_6
REMARK    6  A    between atoms: C_6  and  C_7
REMARK    7  A    between atoms: C_6  and  C_8
REMARK    8  A    between atoms: C_6  and  N_9
REMARK    9  A    between atoms: C_10  and  C_12
REMARK   10  A    between atoms: C_12  and  C_14
REMARK   11  A    between atoms: C_12  and  N_23
REMARK   12  A    between atoms: C_17  and  O_22
REMARK   13  A    between atoms: C_18  and  O_20
REMARK   14  A    between atoms: O_20  and  C_21
REMARK   15  A    between atoms: N_23  and  C_24
REMARK   16  A    between atoms: C_31  and  C_33
REMARK                            x       y       z     vdW  Elec       q    Type
REMARK                         _______ _______ _______ _____ _____    ______ ____
ROOT
ATOM      1  C   UNL     1       5.354  -0.506  -4.204  0.00  0.00    +0.197 C 
ENDROOT
BRANCH   1   2
ATOM      2  C   UNL     1       4.705   0.215  -5.357  0.00  0.00    -0.014 A 
ATOM      3  C   UNL     1       4.185   1.483  -5.172  0.00  0.00    +0.010 A 
ATOM      4  C   UNL     1       3.589   2.149  -6.226  0.00  0.00    +0.049 A 
ATOM      5  C   UNL     1       3.511   1.547  -7.472  0.00  0.00    +0.158 A 
ATOM      6  C   UNL     1       4.034   0.271  -7.658  0.00  0.00    +0.162 A 
ATOM      7  C   UNL     1       4.635  -0.389  -6.598  0.00  0.00    +0.055 A 
BRANCH   6   8
ATOM      8  O   UNL     1       3.961  -0.325  -8.878  0.00  0.00    -0.491 OA
ATOM      9  C   UNL     1       4.519  -1.635  -8.995  0.00  0.00    +0.277 C 
ENDBRANCH   6   8
BRANCH   5  10
ATOM     10  O   UNL     1       2.924   2.200  -8.510  0.00  0.00    -0.503 OA
ATOM     11  H   UNL     1       3.534   2.742  -9.029  0.00  0.00    +0.292 HD
ENDBRANCH   5  10
ENDBRANCH   1   2
BRANCH   1  13
ATOM     12  N   UNL     1       3.323  -0.448  -2.793  0.00  0.00    -0.308 N 
ATOM     13  C   UNL     1       4.633  -0.162  -2.926  0.00  0.00    +0.239 C 
ATOM     14  O   UNL     1       5.232   0.373  -2.017  0.00  0.00    -0.273 OA
ATOM     15  H   UNL     1       2.844  -0.876  -3.520  0.00  0.00    +0.149 HD
BRANCH  12  16
ATOM     16  C   UNL     1       2.622  -0.113  -1.551  0.00  0.00    +0.030 C 
ATOM     17  C   UNL     1       2.829   1.369  -1.232  0.00  0.00    +0.031 C 
ATOM     18  C   UNL     1       3.179  -0.963  -0.406  0.00  0.00    +0.031 C 
BRANCH  16  19
ATOM     19  C   UNL     1       1.128  -0.396  -1.716  0.00  0.00    +0.031 C 
BRANCH  19  21
ATOM     20  C   UNL     1       1.010  -0.899  -4.160  0.00  0.00    +0.010 C 
ATOM     21  C   UNL     1       0.658   0.122  -3.076  0.00  0.00    -0.036 C 
ATOM     22  C   UNL     1       1.351   1.451  -3.383  0.00  0.00    +0.010 C 
ATOM     23  C   UNL     1      -0.857   0.332  -3.047  0.00  0.00    +0.010 C 
ENDBRANCH  19  21
ENDBRANCH  16  19
ENDBRANCH  12  16
ENDBRANCH   1  13
BRANCH   1  24
ATOM     24  N   UNL     1       6.756  -0.097  -4.099  0.00  0.00    -0.252 N 
ATOM     25  C   UNL     1       7.065   1.180  -3.798  0.00  0.00    +0.241 C 
ATOM     26  O   UNL     1       6.182   1.990  -3.614  0.00  0.00    -0.273 OA
BRANCH  24  27
ATOM     27  C   UNL     1       7.776  -1.032  -4.311  0.00  0.00    +0.056 A 
ATOM     28  C   UNL     1       8.393  -1.119  -5.552  0.00  0.00    +0.025 A 
ATOM     29  C   UNL     1       9.399  -2.043  -5.759  0.00  0.00    +0.002 A 
ATOM     30  C   UNL     1       9.792  -2.881  -4.731  0.00  0.00    +0.002 A 
ATOM     31  C   UNL     1       9.180  -2.798  -3.494  0.00  0.00    +0.022 A 
ATOM     32  C   UNL     1       8.177  -1.871  -3.279  0.00  0.00    +0.062 A 
ATOM     33 CL   UNL     1       7.415  -1.762  -1.724  0.00  0.00    -0.082 Cl
ENDBRANCH  24  27
BRANCH  25  34
ATOM     34  C   UNL     1       8.508   1.601  -3.690  0.00  0.00    +0.160 C 
ATOM     35  C   UNL     1       9.075   1.218  -2.305  0.00  0.00    +0.041 C 
ATOM     36  C   UNL     1       8.842   2.517  -1.499  0.00  0.00    +0.098 C 
ATOM     37  C   UNL     1       8.800   3.603  -2.551  0.00  0.00    +0.214 C 
ATOM     38  O   UNL     1       8.915   4.790  -2.328  0.00  0.00    -0.276 OA
ATOM     39  N   UNL     1       8.618   3.062  -3.770  0.00  0.00    -0.304 N 
ATOM     40  H   UNL     1       8.566   3.571  -4.594  0.00  0.00    +0.149 HD
ENDBRANCH  25  34
ENDBRANCH   1  24
TORSDOF 10
