REMARK  Name = ZINC17702360
REMARK  9 active torsions:
REMARK  status: ('A' for Active; 'I' for Inactive)
REMARK    1  A    between atoms: C_1  and  C_2
REMARK    2  A    between atoms: C_5  and  N_8
REMARK    3  A    between atoms: N_8  and  S_9
REMARK    4  A    between atoms: S_9  and  C_12
REMARK    5  A    between atoms: C_16  and  C_18
REMARK    6  A    between atoms: N_20  and  C_21
REMARK    7  A    between atoms: C_21  and  C_22
REMARK    8  A    between atoms: C_22  and  C_24
REMARK    9  A    between atoms: C_22  and  N_29
REMARK                            x       y       z     vdW  Elec       q    Type
REMARK                         _______ _______ _______ _____ _____    ______ ____
ROOT
ATOM      1  C   UNL     1       0.256  -4.434   2.595  0.00  0.00    +0.109 A 
ATOM      2  C   UNL     1       0.442  -3.178   3.146  0.00  0.00    +0.029 A 
ATOM      3  C   UNL     1      -0.094  -2.873   4.384  0.00  0.00    +0.003 A 
ATOM      4  C   UNL     1      -0.817  -3.820   5.079  0.00  0.00    +0.013 A 
ATOM      5  C   UNL     1      -1.008  -5.089   4.529  0.00  0.00    +0.039 A 
ATOM      6  C   UNL     1      -0.470  -5.388   3.277  0.00  0.00    +0.041 A 
ENDROOT
BRANCH   5   7
ATOM      7  C   UNL     1      -1.782  -6.109   5.268  0.00  0.00    +0.244 C 
ATOM      8  O   UNL     1      -1.946  -7.213   4.787  0.00  0.00    -0.270 OA
ATOM      9  N   UNL     1      -2.304  -5.815   6.475  0.00  0.00    -0.312 N 
ATOM     10  H   UNL     1      -2.173  -4.934   6.859  0.00  0.00    +0.149 HD
BRANCH   9  11
ATOM     11  C   UNL     1      -3.071  -6.827   7.208  0.00  0.00    +0.097 C 
BRANCH  11  12
ATOM     12  C   UNL     1      -3.437  -6.286   8.591  0.00  0.00    +0.016 C 
BRANCH  12  13
ATOM     13  N   UNL     1      -4.325  -7.239   9.270  0.00  0.00    +0.387 N 
ATOM     14  C   UNL     1      -4.785  -6.677  10.566  0.00  0.00    -0.078 C 
ATOM     15  C   UNL     1      -6.079  -7.477  10.860  0.00  0.00    -0.020 C 
ATOM     16  C   UNL     1      -6.713  -7.637   9.459  0.00  0.00    -0.020 C 
ATOM     17  C   UNL     1      -5.548  -7.456   8.468  0.00  0.00    -0.078 C 
ATOM     18  H   UNL     1      -3.847  -8.115   9.420  0.00  0.00    -0.081 HD
ENDBRANCH  12  13
BRANCH  12  19
ATOM     19  C   UNL     1      -2.182  -6.101   9.406  0.00  0.00    +0.093 A 
ATOM     20  C   UNL     1      -1.543  -4.935   9.613  0.00  0.00    +0.043 A 
ATOM     21  C   UNL     1      -0.424  -5.220  10.427  0.00  0.00    +0.041 A 
ATOM     22  C   UNL     1      -0.445  -6.543  10.670  0.00  0.00    +0.195 A 
ATOM     23  O   UNL     1      -1.516  -7.070  10.054  0.00  0.00    -0.469 OA
ENDBRANCH  12  19
ENDBRANCH  11  12
ENDBRANCH   9  11
ENDBRANCH   5   7
BRANCH   1  24
ATOM     24  S   UNL     1       0.942  -4.812   1.017  0.00  0.00    +0.072 S 
ATOM     25  O   UNL     1       0.967  -6.229   0.914  0.00  0.00    -0.150 OA
ATOM     26  O   UNL     1       2.113  -4.018   0.882  0.00  0.00    -0.150 OA
BRANCH  24  27
ATOM     27  N   UNL     1      -0.129  -4.273  -0.125  0.00  0.00    -0.216 N 
ATOM     28  H   UNL     1       0.142  -3.592  -0.761  0.00  0.00    +0.174 HD
BRANCH  27  33
ATOM     29  C   UNL     1      -5.381  -6.404  -0.317  0.00  0.00    +0.044 C 
ATOM     30  C   UNL     1      -3.985  -5.838  -0.266  0.00  0.00    -0.050 A 
ATOM     31  C   UNL     1      -3.792  -4.470  -0.340  0.00  0.00    +0.005 A 
ATOM     32  C   UNL     1      -2.515  -3.948  -0.293  0.00  0.00    +0.025 A 
ATOM     33  C   UNL     1      -1.423  -4.798  -0.172  0.00  0.00    +0.048 A 
ATOM     34  C   UNL     1      -1.620  -6.171  -0.097  0.00  0.00    +0.025 A 
ATOM     35  C   UNL     1      -2.900  -6.686  -0.139  0.00  0.00    +0.005 A 
ENDBRANCH  27  33
ENDBRANCH  24  27
ENDBRANCH   1  24
TORSDOF 8
