REMARK  Name = ZINC35545769
REMARK  5 active torsions:
REMARK  status: ('A' for Active; 'I' for Inactive)
REMARK    1  A    between atoms: C_1  and  C_2
REMARK    2  A    between atoms: C_2  and  N_3
REMARK    3  A    between atoms: N_3  and  C_4
REMARK    4  A    between atoms: C_4  and  C_6
REMARK    5  A    between atoms: C_4  and  C_18
REMARK                            x       y       z     vdW  Elec       q    Type
REMARK                         _______ _______ _______ _____ _____    ______ ____
ROOT
ATOM      1  C   UNL     1       0.710  -1.947  -1.215  0.00  0.00    -0.003 C 
ENDROOT
BRANCH   1   2
ATOM      2  C   UNL     1       1.520  -2.432  -2.389  0.00  0.00    -0.055 A 
ATOM      3  C   UNL     1       1.420  -1.785  -3.609  0.00  0.00    +0.004 A 
ATOM      4  C   UNL     1       2.159  -2.222  -4.691  0.00  0.00    +0.028 A 
ATOM      5  C   UNL     1       3.004  -3.313  -4.554  0.00  0.00    +0.067 A 
ATOM      6  C   UNL     1       3.105  -3.965  -3.324  0.00  0.00    +0.067 A 
ATOM      7  C   UNL     1       2.363  -3.515  -2.242  0.00  0.00    +0.030 A 
ATOM      8  N   UNL     1       4.016  -5.004  -3.492  0.00  0.00    -0.306 N 
ATOM      9  H   UNL     1       4.292  -5.635  -2.808  0.00  0.00    +0.170 HD
ATOM     10  C   UNL     1       4.450  -4.986  -4.766  0.00  0.00    +0.325 A 
ATOM     11  O   UNL     1       5.256  -5.763  -5.244  0.00  0.00    -0.247 OA
ATOM     12  N   UNL     1       3.858  -3.977  -5.433  0.00  0.00    -0.306 N 
ATOM     13  H   UNL     1       4.001  -3.751  -6.365  0.00  0.00    +0.170 HD
ENDBRANCH   1   2
BRANCH   1  14
ATOM     14  C   UNL     1      -0.700  -2.467  -1.328  0.00  0.00    -0.019 A 
ATOM     15  C   UNL     1      -1.274  -3.520  -0.696  0.00  0.00    +0.011 A 
ATOM     16  C   UNL     1      -2.599  -3.818  -0.957  0.00  0.00    +0.023 A 
ATOM     17  C   UNL     1      -3.284  -3.047  -1.838  0.00  0.00    +0.055 A 
ATOM     18  S   UNL     1      -2.049  -1.853  -2.323  0.00  0.00    -0.088 S 
ATOM     19 BR   UNL     1      -5.084  -3.195  -2.400  0.00  0.00    -0.043 Br
ENDBRANCH   1  14
BRANCH   1  20
ATOM     20  N   UNL     1       0.690  -0.478  -1.207  0.00  0.00    +0.386 N 
ATOM     21  H   UNL     1       0.202  -0.144  -2.024  0.00  0.00    -0.085 HD
ATOM     22  H   UNL     1       1.636  -0.129  -1.214  0.00  0.00    -0.085 HD
BRANCH  20  24
ATOM     23  C   UNL     1      -0.019   1.526   0.010  0.00  0.00    -0.017 C 
ATOM     24  C   UNL     1       0.002  -0.004   0.002  0.00  0.00    -0.085 C 
ENDBRANCH  20  24
ENDBRANCH   1  20
TORSDOF 4
