REMARK  Name = ZINC02954928
REMARK  6 active torsions:
REMARK  status: ('A' for Active; 'I' for Inactive)
REMARK    1  A    between atoms: C_9  and  O_33
REMARK    2  A    between atoms: C_10  and  C_11
REMARK    3  A    between atoms: C_13  and  N_22
REMARK    4  A    between atoms: C_20  and  O_21
REMARK    5  A    between atoms: N_22  and  S_23
REMARK    6  A    between atoms: S_23  and  C_26
REMARK                            x       y       z     vdW  Elec       q    Type
REMARK                         _______ _______ _______ _____ _____    ______ ____
ROOT
ATOM      1  C   UNL     1      -2.337   4.970   0.456  0.00  0.00    +0.030 A 
ATOM      2  C   UNL     1      -1.186   5.755   0.280  0.00  0.00    +0.037 A 
ATOM      3  C   UNL     1       0.047   5.178   0.197  0.00  0.00    +0.057 A 
ATOM      4  C   UNL     1       0.177   3.775   0.285  0.00  0.00    +0.008 A 
ATOM      5  C   UNL     1       1.435   3.158   0.201  0.00  0.00    +0.010 A 
ATOM      6  C   UNL     1       1.530   1.802   0.289  0.00  0.00    +0.001 A 
ATOM      7  C   UNL     1       0.394   1.014   0.463  0.00  0.00    +0.001 A 
ATOM      8  C   UNL     1      -0.843   1.577   0.543  0.00  0.00    +0.012 A 
ATOM      9  C   UNL     1      -0.978   2.973   0.462  0.00  0.00    +0.026 A 
ATOM     10  C   UNL     1      -2.241   3.588   0.547  0.00  0.00    +0.132 A 
ENDROOT
BRANCH   1  20
ATOM     11  C   UNL     1      -5.234   6.831   4.233  0.00  0.00    +0.001 A 
ATOM     12  C   UNL     1      -3.984   6.220   4.173  0.00  0.00    +0.001 A 
ATOM     13  C   UNL     1      -3.456   5.820   2.982  0.00  0.00    +0.009 A 
ATOM     14  C   UNL     1      -4.182   6.019   1.799  0.00  0.00    -0.007 A 
ATOM     15  C   UNL     1      -5.452   6.645   1.857  0.00  0.00    -0.017 A 
ATOM     16  C   UNL     1      -5.964   7.045   3.104  0.00  0.00    +0.008 A 
ATOM     17  C   UNL     1      -6.179   6.852   0.673  0.00  0.00    +0.012 A 
ATOM     18  C   UNL     1      -5.665   6.457  -0.524  0.00  0.00    +0.046 A 
ATOM     19  C   UNL     1      -4.414   5.844  -0.603  0.00  0.00    +0.125 A 
ATOM     20  C   UNL     1      -3.663   5.622   0.544  0.00  0.00    +0.035 A 
BRANCH  19  21
ATOM     21  O   UNL     1      -3.926   5.462  -1.812  0.00  0.00    -0.506 OA
ATOM     22  H   UNL     1      -4.167   4.560  -2.066  0.00  0.00    +0.292 HD
ENDBRANCH  19  21
ENDBRANCH   1  20
BRANCH  10  23
ATOM     23  O   UNL     1      -3.359   2.834   0.716  0.00  0.00    -0.506 OA
ATOM     24  H   UNL     1      -3.593   2.680   1.642  0.00  0.00    +0.292 HD
ENDBRANCH  10  23
BRANCH   3  25
ATOM     25  N   UNL     1       1.181   5.976   0.023  0.00  0.00    -0.216 N 
ATOM     26  H   UNL     1       1.919   5.658  -0.522  0.00  0.00    +0.174 HD
BRANCH  25  27
ATOM     27  S   UNL     1       1.267   7.463   0.747  0.00  0.00    +0.072 S 
ATOM     28  O   UNL     1       2.573   7.963   0.494  0.00  0.00    -0.150 OA
ATOM     29  O   UNL     1       0.094   8.168   0.365  0.00  0.00    -0.150 OA
BRANCH  27  30
ATOM     30  C   UNL     1       1.155   7.203   2.486  0.00  0.00    +0.109 A 
ATOM     31  C   UNL     1      -0.081   7.205   3.106  0.00  0.00    +0.031 A 
ATOM     32  C   UNL     1      -0.171   6.997   4.469  0.00  0.00    +0.040 A 
ATOM     33  C   UNL     1       0.978   6.796   5.215  0.00  0.00    +0.124 A 
ATOM     34  C   UNL     1       2.216   6.798   4.594  0.00  0.00    +0.040 A 
ATOM     35  C   UNL     1       2.302   7.002   3.230  0.00  0.00    +0.031 A 
ATOM     36  F   UNL     1       0.892   6.596   6.549  0.00  0.00    -0.205 F 
ENDBRANCH  27  30
ENDBRANCH  25  27
ENDBRANCH   3  25
TORSDOF 6
