REMARK  Name = ZINC55270291
REMARK  10 active torsions:
REMARK  status: ('A' for Active; 'I' for Inactive)
REMARK    1  A    between atoms: C_1  and  C_2
REMARK    2  A    between atoms: C_6  and  C_8
REMARK    3  A    between atoms: C_8  and  N_9
REMARK    4  A    between atoms: C_12  and  N_15
REMARK    5  A    between atoms: C_18  and  C_21
REMARK    6  A    between atoms: N_23  and  C_24
REMARK    7  A    between atoms: N_23  and  C_25
REMARK    8  A    between atoms: C_25  and  C_26
REMARK    9  A    between atoms: C_26  and  O_28
REMARK   10  A    between atoms: O_28  and  C_29
REMARK                            x       y       z     vdW  Elec       q    Type
REMARK                         _______ _______ _______ _____ _____    ______ ____
ROOT
ATOM      1  N   UNL     1       1.829  -4.420   2.110  0.00  0.00    +0.383 N 
ATOM      2  C   UNL     1       2.315  -3.043   1.962  0.00  0.00    -0.077 C 
ATOM      3  C   UNL     1       3.736  -2.938   2.520  0.00  0.00    +0.000 C 
ATOM      4  C   UNL     1       3.726  -3.320   4.003  0.00  0.00    +0.053 C 
ATOM      5  C   UNL     1       3.147  -4.730   4.152  0.00  0.00    +0.000 C 
ATOM      6  C   UNL     1       1.748  -4.770   3.534  0.00  0.00    -0.077 C 
ATOM      7  H   UNL     1       2.464  -5.051   1.646  0.00  0.00    -0.081 HD
ENDROOT
BRANCH   4   8
ATOM      8  N   UNL     1       5.098  -3.294   4.526  0.00  0.00    -0.299 NA
ATOM      9  C   UNL     1       5.951  -4.255   3.814  0.00  0.00    +0.085 C 
ATOM     10  C   UNL     1       7.399  -4.098   4.283  0.00  0.00    +0.028 C 
ATOM     11  C   UNL     1       7.472  -4.344   5.793  0.00  0.00    +0.078 C 
ATOM     12  C   UNL     1       6.538  -3.362   6.506  0.00  0.00    +0.028 C 
ATOM     13  C   UNL     1       5.115  -3.540   5.973  0.00  0.00    +0.085 C 
BRANCH  11  14
ATOM     14  C   UNL     1       8.885  -4.133   6.270  0.00  0.00    +0.219 C 
ATOM     15  O   UNL     1       9.723  -3.696   5.510  0.00  0.00    -0.275 OA
ATOM     16  N   UNL     1       9.218  -4.429   7.542  0.00  0.00    -0.294 N 
ATOM     17  C   UNL     1       8.246  -5.086   8.419  0.00  0.00    +0.132 C 
BRANCH  16  18
ATOM     18  C   UNL     1      10.552  -4.094   8.047  0.00  0.00    +0.227 C 
BRANCH  18  19
ATOM     19  C   UNL     1      10.531  -2.709   8.641  0.00  0.00    +0.324 C 
ATOM     20  O   UNL     1       9.507  -2.068   8.643  0.00  0.00    -0.249 OA
BRANCH  19  21
ATOM     21  O   UNL     1      11.650  -2.189   9.169  0.00  0.00    -0.467 OA
ATOM     22  C   UNL     1      11.558  -0.871   9.715  0.00  0.00    +0.280 C 
ENDBRANCH  19  21
ENDBRANCH  18  19
ENDBRANCH  16  18
ENDBRANCH  11  14
ENDBRANCH   4   8
BRANCH   1  23
ATOM     23  C   UNL     1       0.496  -4.535   1.504  0.00  0.00    -0.022 C 
BRANCH  23  29
ATOM     24  C   UNL     1       0.614  -1.380  -2.217  0.00  0.00    +0.065 C 
ATOM     25  C   UNL     1       0.653  -2.808  -1.737  0.00  0.00    +0.038 A 
ATOM     26  C   UNL     1       0.778  -3.834  -2.655  0.00  0.00    +0.023 A 
ATOM     27  C   UNL     1       0.814  -5.144  -2.203  0.00  0.00    +0.003 A 
ATOM     28  C   UNL     1       0.721  -5.374  -0.839  0.00  0.00    +0.021 A 
ATOM     29  C   UNL     1       0.597  -4.297   0.019  0.00  0.00    +0.025 A 
ATOM     30  N   UNL     1       0.573  -3.063  -0.446  0.00  0.00    -0.259 NA
ENDBRANCH  23  29
ENDBRANCH   1  23
TORSDOF 7
