REMARK  Name = ZINC36584281
REMARK  13 active torsions:
REMARK  status: ('A' for Active; 'I' for Inactive)
REMARK    1  A    between atoms: C_1  and  C_2
REMARK    2  A    between atoms: C_2  and  C_3
REMARK    3  A    between atoms: C_2  and  C_4
REMARK    4  A    between atoms: C_2  and  N_5
REMARK    5  A    between atoms: C_6  and  C_8
REMARK    6  A    between atoms: C_8  and  C_10
REMARK    7  A    between atoms: C_8  and  N_17
REMARK    8  A    between atoms: N_17  and  C_27
REMARK    9  A    between atoms: C_18  and  C_20
REMARK   10  A    between atoms: C_25  and  O_26
REMARK   11  A    between atoms: C_27  and  C_28
REMARK   12  A    between atoms: C_27  and  C_29
REMARK   13  A    between atoms: C_27  and  C_30
REMARK                            x       y       z     vdW  Elec       q    Type
REMARK                         _______ _______ _______ _____ _____    ______ ____
ROOT
ATOM      1  C   UNL     1       7.162  -0.290  -0.222  0.00  0.00    +0.193 C 
ENDROOT
BRANCH   1   2
ATOM      2  C   UNL     1       8.327   0.094   0.654  0.00  0.00    -0.018 A 
ATOM      3  C   UNL     1       8.777   1.401   0.673  0.00  0.00    +0.007 A 
ATOM      4  C   UNL     1       9.845   1.753   1.476  0.00  0.00    +0.020 A 
ATOM      5  C   UNL     1      10.465   0.797   2.261  0.00  0.00    +0.041 A 
ATOM      6  C   UNL     1      10.014  -0.510   2.242  0.00  0.00    +0.020 A 
ATOM      7  C   UNL     1       8.942  -0.861   1.443  0.00  0.00    +0.007 A 
ATOM      8 CL   UNL     1      11.807   1.239   3.269  0.00  0.00    -0.084 Cl
ENDBRANCH   1   2
BRANCH   1  10
ATOM      9  N   UNL     1       6.127  -1.865   1.380  0.00  0.00    -0.309 N 
ATOM     10  C   UNL     1       6.013  -0.743   0.641  0.00  0.00    +0.239 C 
ATOM     11  O   UNL     1       4.986  -0.099   0.670  0.00  0.00    -0.273 OA
ATOM     12  H   UNL     1       6.948  -2.380   1.356  0.00  0.00    +0.149 HD
BRANCH   9  14
ATOM     13  C   UNL     1       3.783  -2.563   1.340  0.00  0.00    +0.031 C 
ATOM     14  C   UNL     1       5.009  -2.305   2.219  0.00  0.00    +0.026 C 
ATOM     15  C   UNL     1       4.682  -1.218   3.244  0.00  0.00    +0.031 C 
ATOM     16  C   UNL     1       5.396  -3.594   2.947  0.00  0.00    +0.031 C 
ENDBRANCH   9  14
ENDBRANCH   1  10
BRANCH   1  17
ATOM     17  N   UNL     1       6.748   0.868  -1.018  0.00  0.00    -0.277 N 
ATOM     18  C   UNL     1       6.529   2.055  -0.418  0.00  0.00    +0.251 C 
ATOM     19  O   UNL     1       6.299   2.100   0.774  0.00  0.00    -0.270 OA
BRANCH  18  20
ATOM     20  C   UNL     1       6.570   3.300  -1.209  0.00  0.00    +0.078 A 
ATOM     21  C   UNL     1       5.742   3.451  -2.324  0.00  0.00    +0.017 A 
ATOM     22  C   UNL     1       5.784   4.616  -3.058  0.00  0.00    +0.001 A 
ATOM     23  C   UNL     1       6.644   5.640  -2.696  0.00  0.00    +0.004 A 
ATOM     24  C   UNL     1       7.468   5.504  -1.597  0.00  0.00    +0.046 A 
ATOM     25  C   UNL     1       7.435   4.340  -0.843  0.00  0.00    +0.129 A 
BRANCH  25  26
ATOM     26  O   UNL     1       8.240   4.206   0.240  0.00  0.00    -0.506 OA
ATOM     27  H   UNL     1       9.105   3.822   0.043  0.00  0.00    +0.292 HD
ENDBRANCH  25  26
ENDBRANCH  18  20
BRANCH  17  28
ATOM     28  C   UNL     1       6.572   0.736  -2.467  0.00  0.00    +0.030 C 
ATOM     29  C   UNL     1       7.306  -0.514  -2.958  0.00  0.00    +0.031 C 
ATOM     30  C   UNL     1       5.082   0.612  -2.790  0.00  0.00    +0.031 C 
ATOM     31  C   UNL     1       7.144   1.971  -3.165  0.00  0.00    +0.031 C 
ENDBRANCH  17  28
ENDBRANCH   1  17
TORSDOF 7
