REMARK  Name = ZINC00710739
REMARK  7 active torsions:
REMARK  status: ('A' for Active; 'I' for Inactive)
REMARK    1  A    between atoms: C_1  and  C_2
REMARK    2  A    between atoms: C_2  and  C_7
REMARK    3  A    between atoms: C_7  and  C_8
REMARK    4  A    between atoms: N_10  and  N_11
REMARK    5  A    between atoms: C_12  and  C_13
REMARK    6  A    between atoms: N_15  and  C_22
REMARK    7  A    between atoms: C_22  and  C_23
REMARK                            x       y       z     vdW  Elec       q    Type
REMARK                         _______ _______ _______ _____ _____    ______ ____
ROOT
ATOM      1  C   UNL     1       0.169  -3.432  -3.271  0.00  0.00    +0.020 A 
ATOM      2  C   UNL     1      -0.068  -3.038  -1.990  0.00  0.00    +0.096 A 
ATOM      3  N   UNL     1       1.103  -2.668  -1.399  0.00  0.00    -0.342 N 
ATOM      4  C   UNL     1       2.152  -2.819  -2.281  0.00  0.00    +0.050 A 
ATOM      5  C   UNL     1       1.621  -3.302  -3.489  0.00  0.00    +0.009 A 
ATOM      6  C   UNL     1       2.462  -3.550  -4.571  0.00  0.00    +0.010 A 
ATOM      7  C   UNL     1       3.815  -3.319  -4.451  0.00  0.00    +0.001 A 
ATOM      8  C   UNL     1       4.340  -2.842  -3.259  0.00  0.00    +0.002 A 
ATOM      9  C   UNL     1       3.521  -2.592  -2.180  0.00  0.00    +0.026 A 
ENDROOT
BRANCH   1  11
ATOM     10  N   UNL     1      -0.454  -4.254  -5.439  0.00  0.00    -0.188 NA
ATOM     11  C   UNL     1      -0.828  -3.903  -4.245  0.00  0.00    +0.140 C 
BRANCH  10  14
ATOM     12  C   UNL     1      -1.016  -5.066  -7.605  0.00  0.00    +0.237 C 
ATOM     13  O   UNL     1       0.155  -5.006  -7.916  0.00  0.00    -0.274 OA
ATOM     14  N   UNL     1      -1.404  -4.701  -6.367  0.00  0.00    -0.207 N 
ATOM     15  H   UNL     1      -2.340  -4.749  -6.118  0.00  0.00    +0.177 HD
BRANCH  12  16
ATOM     16  C   UNL     1      -2.038  -5.547  -8.603  0.00  0.00    +0.162 C 
BRANCH  16  18
ATOM     17  C   UNL     1      -2.374  -6.377 -10.938  0.00  0.00    +0.074 C 
ATOM     18  C   UNL     1      -1.340  -5.895  -9.920  0.00  0.00    +0.176 C 
ATOM     19  O   UNL     1      -0.370  -6.931  -9.693  0.00  0.00    -0.346 OA
ATOM     20  C   UNL     1       0.727  -6.613 -10.583  0.00  0.00    +0.191 C 
ATOM     21  C   UNL     1       0.733  -5.064 -10.533  0.00  0.00    +0.191 C 
ATOM     22  O   UNL     1      -0.667  -4.736 -10.428  0.00  0.00    -0.346 OA
ENDBRANCH  16  18
ENDBRANCH  12  16
ENDBRANCH  10  14
ENDBRANCH   1  11
BRANCH   3  23
ATOM     23  C   UNL     1       1.230  -2.186  -0.021  0.00  0.00    +0.158 C 
BRANCH  23  24
ATOM     24  C   UNL     1       1.210  -0.679  -0.013  0.00  0.00    -0.009 A 
ATOM     25  C   UNL     1       2.397   0.028  -0.021  0.00  0.00    +0.008 A 
ATOM     26  C   UNL     1       2.379   1.410  -0.014  0.00  0.00    +0.020 A 
ATOM     27  C   UNL     1       1.172   2.087   0.002  0.00  0.00    +0.042 A 
ATOM     28  C   UNL     1      -0.017   1.379   0.010  0.00  0.00    +0.040 A 
ATOM     29  C   UNL     1       0.002  -0.004   0.002  0.00  0.00    +0.047 A 
ATOM     30 CL   UNL     1      -1.489  -0.893   0.011  0.00  0.00    -0.083 Cl
ATOM     31 CL   UNL     1       1.149   3.822   0.011  0.00  0.00    -0.083 Cl
ENDBRANCH  23  24
ENDBRANCH   3  23
TORSDOF 6
