REMARK  Name = ZINC12322218
REMARK  8 active torsions:
REMARK  status: ('A' for Active; 'I' for Inactive)
REMARK    1  A    between atoms: C_1  and  O_2
REMARK    2  A    between atoms: O_2  and  C_3
REMARK    3  A    between atoms: C_6  and  C_9
REMARK    4  A    between atoms: C_14  and  C_23
REMARK    5  A    between atoms: C_26  and  O_31
REMARK    6  A    between atoms: C_27  and  O_29
REMARK    7  A    between atoms: O_29  and  C_30
REMARK    8  A    between atoms: O_31  and  C_32
REMARK                            x       y       z     vdW  Elec       q    Type
REMARK                         _______ _______ _______ _____ _____    ______ ____
ROOT
ATOM      1  C   UNL     1      -0.379   1.263   0.284  0.00  0.00    +0.032 C 
ATOM      2  C   UNL     1       1.050   1.785   0.142  0.00  0.00    +0.059 C 
ATOM      3  C   UNL     1       1.922   1.210   1.246  0.00  0.00    +0.019 C 
ATOM      4  C   UNL     1       1.417   0.947   2.461  0.00  0.00    +0.037 C 
ATOM      5  C   UNL     1       2.078   0.354   3.687  0.00  0.00    +0.137 C 
ATOM      6  N   UNL     1       3.528   0.291   3.647  0.00  0.00    -0.313 N 
ATOM      7  C   UNL     1       4.149  -0.436   2.632  0.00  0.00    +0.205 A 
ATOM      8  C   UNL     1       3.949  -0.106   1.228  0.00  0.00    +0.208 A 
ATOM      9  N   UNL     1       4.543  -0.994   0.498  0.00  0.00    -0.032 NA
ATOM     10  O   UNL     1       5.194  -1.898   1.381  0.00  0.00    -0.239 OA
ATOM     11  N   UNL     1       4.907  -1.484   2.710  0.00  0.00    -0.032 NA
ATOM     12  N   UNL     1       3.223   1.024   0.880  0.00  0.00    -0.297 N 
ATOM     13  C   UNL     1       0.045   1.236   2.709  0.00  0.00    +0.163 C 
ATOM     14  O   UNL     1      -0.384   1.077   3.835  0.00  0.00    -0.292 OA
ATOM     15  C   UNL     1      -0.894   1.725   1.653  0.00  0.00    +0.088 C 
ATOM     16  H   UNL     1       4.059   0.748   4.318  0.00  0.00    +0.149 HD
ATOM     17  H   UNL     1       3.659   1.712   0.353  0.00  0.00    +0.153 HD
ENDROOT
BRANCH   1  21
ATOM     18  C   UNL     1      -2.834   2.874  -2.820  0.00  0.00    +0.120 A 
ATOM     19  C   UNL     1      -2.690   1.501  -2.691  0.00  0.00    +0.046 A 
ATOM     20  C   UNL     1      -1.896   0.982  -1.686  0.00  0.00    +0.007 A 
ATOM     21  C   UNL     1      -1.245   1.831  -0.810  0.00  0.00    -0.043 A 
ATOM     22  C   UNL     1      -1.391   3.200  -0.934  0.00  0.00    +0.007 A 
ATOM     23  C   UNL     1      -2.180   3.724  -1.940  0.00  0.00    +0.046 A 
BRANCH  18  25
ATOM     24  C   UNL     1      -3.717   4.810  -3.881  0.00  0.00    +0.277 C 
ATOM     25  O   UNL     1      -3.615   3.387  -3.808  0.00  0.00    -0.495 OA
ENDBRANCH  18  25
ENDBRANCH   1  21
BRANCH   5  26
ATOM     26  C   UNL     1       1.549  -1.043   3.881  0.00  0.00    -0.019 A 
ATOM     27  C   UNL     1       1.856  -2.030   2.963  0.00  0.00    +0.009 A 
ATOM     28  C   UNL     1       1.378  -3.315   3.140  0.00  0.00    +0.050 A 
ATOM     29  C   UNL     1       0.579  -3.614   4.232  0.00  0.00    +0.162 A 
ATOM     30  C   UNL     1       0.266  -2.619   5.153  0.00  0.00    +0.162 A 
ATOM     31  C   UNL     1       0.753  -1.334   4.974  0.00  0.00    +0.055 A 
BRANCH  30  32
ATOM     32  O   UNL     1      -0.517  -2.906   6.227  0.00  0.00    -0.491 OA
ATOM     33  C   UNL     1      -0.798  -1.835   7.131  0.00  0.00    +0.277 C 
ENDBRANCH  30  32
BRANCH  29  34
ATOM     34  O   UNL     1       0.103  -4.876   4.404  0.00  0.00    -0.491 OA
ATOM     35  C   UNL     1       0.466  -5.846   3.420  0.00  0.00    +0.277 C 
ENDBRANCH  29  34
ENDBRANCH   5  26
TORSDOF 5
