REMARK  Name = ZINC25978892
REMARK  11 active torsions:
REMARK  status: ('A' for Active; 'I' for Inactive)
REMARK    1  A    between atoms: C_1  and  C_2
REMARK    2  A    between atoms: N_5  and  S_11
REMARK    3  A    between atoms: C_7  and  C_10
REMARK    4  A    between atoms: S_11  and  C_14
REMARK    5  A    between atoms: C_18  and  C_20
REMARK    6  A    between atoms: N_22  and  C_23
REMARK    7  A    between atoms: C_23  and  C_25
REMARK    8  A    between atoms: C_23  and  C_36
REMARK    9  A    between atoms: C_25  and  C_26
REMARK   10  A    between atoms: C_36  and  O_38
REMARK   11  A    between atoms: O_38  and  C_39
REMARK                            x       y       z     vdW  Elec       q    Type
REMARK                         _______ _______ _______ _____ _____    ______ ____
ROOT
ATOM      1  C   UNL     1       0.872   0.607  -5.767  0.00  0.00    +0.245 C 
ATOM      2  O   UNL     1       0.166   1.593  -5.689  0.00  0.00    -0.270 OA
ATOM      3  N   UNL     1       1.643   0.415  -6.855  0.00  0.00    -0.298 N 
ATOM      4  H   UNL     1       2.283  -0.478  -6.926  0.00  0.00    +0.150 HD
ENDROOT
BRANCH   1   9
ATOM      5  C   UNL     1       0.105  -1.110  -2.516  0.00  0.00    +0.106 A 
ATOM      6  C   UNL     1       0.910  -2.232  -2.607  0.00  0.00    +0.028 A 
ATOM      7  C   UNL     1       1.703  -2.433  -3.724  0.00  0.00    +0.003 A 
ATOM      8  C   UNL     1       1.695  -1.514  -4.753  0.00  0.00    +0.013 A 
ATOM      9  C   UNL     1       0.885  -0.381  -4.668  0.00  0.00    +0.039 A 
ATOM     10  C   UNL     1       0.084  -0.187  -3.541  0.00  0.00    +0.041 A 
BRANCH   5  11
ATOM     11  S   UNL     1      -0.899  -0.863  -1.090  0.00  0.00    +0.061 S 
ATOM     12  O   UNL     1      -1.115  -2.146  -0.518  0.00  0.00    -0.153 OA
ATOM     13  O   UNL     1      -1.969  -0.017  -1.488  0.00  0.00    -0.153 OA
BRANCH  11  17
ATOM     14  C   UNL     1       1.446   3.487   0.202  0.00  0.00    +0.039 C 
ATOM     15  C   UNL     1       1.430   1.970  -0.001  0.00  0.00    +0.131 C 
ATOM     16  C   UNL     1      -0.018   1.467   0.010  0.00  0.00    +0.140 C 
ATOM     17  N   UNL     1       0.002  -0.004   0.002  0.00  0.00    -0.172 NA
ATOM     18  C   UNL     1       0.847  -0.690   0.993  0.00  0.00    +0.140 C 
ATOM     19  C   UNL     1       2.252  -0.082   0.934  0.00  0.00    +0.131 C 
ATOM     20  O   UNL     1       2.156   1.340   1.057  0.00  0.00    -0.371 OA
ATOM     21  C   UNL     1       2.907  -0.437  -0.402  0.00  0.00    +0.039 C 
ENDBRANCH  11  17
ENDBRANCH   5  11
ENDBRANCH   1   9
BRANCH   3  22
ATOM     22  C   UNL     1       1.631   1.394  -7.945  0.00  0.00    +0.186 C 
BRANCH  22  23
ATOM     23  C   UNL     1       2.600   2.505  -7.633  0.00  0.00    +0.328 C 
ATOM     24  O   UNL     1       3.236   2.481  -6.606  0.00  0.00    -0.249 OA
BRANCH  23  25
ATOM     25  O   UNL     1       2.756   3.521  -8.496  0.00  0.00    -0.467 OA
ATOM     26  C   UNL     1       3.707   4.556  -8.131  0.00  0.00    +0.280 C 
ENDBRANCH  23  25
ENDBRANCH  22  23
BRANCH  22  27
ATOM     27  C   UNL     1       2.042   0.710  -9.250  0.00  0.00    +0.071 C 
BRANCH  27  28
ATOM     28  C   UNL     1       1.006  -0.319  -9.626  0.00  0.00    -0.020 A 
ATOM     29  C   UNL     1       1.047  -1.631  -9.348  0.00  0.00    +0.087 A 
ATOM     30  N   UNL     1      -0.069  -2.248  -9.846  0.00  0.00    -0.360 N 
ATOM     31  H   UNL     1      -0.207  -3.330  -9.705  0.00  0.00    +0.165 HD
ATOM     32  C   UNL     1      -0.870  -1.326 -10.480  0.00  0.00    +0.047 A 
ATOM     33  C   UNL     1      -0.232  -0.076 -10.370  0.00  0.00    +0.003 A 
ATOM     34  C   UNL     1      -0.823   1.059 -10.928  0.00  0.00    +0.010 A 
ATOM     35  C   UNL     1      -2.020   0.951 -11.578  0.00  0.00    +0.001 A 
ATOM     36  C   UNL     1      -2.654  -0.280 -11.689  0.00  0.00    +0.002 A 
ATOM     37  C   UNL     1      -2.088  -1.413 -11.146  0.00  0.00    +0.026 A 
ENDBRANCH  27  28
ENDBRANCH  22  27
ENDBRANCH   3  22
TORSDOF 8
