REMARK  Name = ZINC09269023
REMARK  12 active torsions:
REMARK  status: ('A' for Active; 'I' for Inactive)
REMARK    1  A    between atoms: C_1  and  C_2
REMARK    2  A    between atoms: C_2  and  C_3
REMARK    3  A    between atoms: C_2  and  C_4
REMARK    4  A    between atoms: C_2  and  C_5
REMARK    5  A    between atoms: C_8  and  O_12
REMARK    6  A    between atoms: O_12  and  C_13
REMARK    7  A    between atoms: C_13  and  C_14
REMARK    8  A    between atoms: N_16  and  C_17
REMARK    9  A    between atoms: C_20  and  S_23
REMARK   10  A    between atoms: S_23  and  N_26
REMARK   11  A    between atoms: N_26  and  C_27
REMARK   12  A    between atoms: C_27  and  C_28
REMARK                            x       y       z     vdW  Elec       q    Type
REMARK                         _______ _______ _______ _____ _____    ______ ____
ROOT
ATOM      1  C   UNL     1      -1.010   1.599  -8.468  0.00  0.00    +0.255 C 
ATOM      2  O   UNL     1      -0.629   2.611  -7.918  0.00  0.00    -0.272 OA
ATOM      3  N   UNL     1      -1.708   0.677  -7.776  0.00  0.00    -0.283 N 
ATOM      4  H   UNL     1      -1.947  -0.165  -8.193  0.00  0.00    +0.155 HD
ENDROOT
BRANCH   3   5
ATOM      5  C   UNL     1      -2.088   0.935  -6.454  0.00  0.00    +0.034 A 
ATOM      6  C   UNL     1      -2.399   2.230  -6.059  0.00  0.00    +0.025 A 
ATOM      7  C   UNL     1      -2.774   2.482  -4.754  0.00  0.00    +0.030 A 
ATOM      8  C   UNL     1      -2.841   1.446  -3.841  0.00  0.00    +0.105 A 
ATOM      9  C   UNL     1      -2.528   0.156  -4.229  0.00  0.00    +0.030 A 
ATOM     10  C   UNL     1      -2.157  -0.103  -5.534  0.00  0.00    +0.025 A 
BRANCH   8  11
ATOM     11  S   UNL     1      -3.320   1.771  -2.176  0.00  0.00    +0.058 S 
ATOM     12  O   UNL     1      -3.028   3.139  -1.930  0.00  0.00    -0.153 OA
ATOM     13  O   UNL     1      -2.777   0.722  -1.386  0.00  0.00    -0.153 OA
BRANCH  11  14
ATOM     14  N   UNL     1      -4.967   1.617  -2.102  0.00  0.00    -0.187 NA
ATOM     15  H   UNL     1      -5.517   2.390  -1.900  0.00  0.00    +0.148 HD
BRANCH  14  16
ATOM     16  C   UNL     1      -5.592   0.314  -2.340  0.00  0.00    +0.137 C 
BRANCH  16  17
ATOM     17  C   UNL     1      -7.043   0.348  -1.855  0.00  0.00    +0.134 C 
ATOM     18  C   UNL     1      -7.708  -1.021  -2.094  0.00  0.00    +0.035 C 
ATOM     19  C   UNL     1      -8.164  -1.473  -0.685  0.00  0.00    +0.031 C 
ATOM     20  C   UNL     1      -8.210  -0.130   0.087  0.00  0.00    +0.160 C 
ATOM     21  O   UNL     1      -7.083   0.601  -0.441  0.00  0.00    -0.375 OA
ENDBRANCH  16  17
ENDBRANCH  14  16
ENDBRANCH  11  14
ENDBRANCH   8  11
ENDBRANCH   3   5
BRANCH   1  22
ATOM     22  C   UNL     1      -0.703   1.373  -9.926  0.00  0.00    +0.324 C 
BRANCH  22  23
ATOM     23  O   UNL     1       0.041   2.482 -10.434  0.00  0.00    -0.482 OA
BRANCH  23  27
ATOM     24  C   UNL     1       1.133   2.343 -14.410  0.00  0.00    -0.041 A 
ATOM     25  C   UNL     1       0.412   1.301 -13.855  0.00  0.00    +0.008 A 
ATOM     26  C   UNL     1       0.046   1.346 -12.524  0.00  0.00    +0.047 A 
ATOM     27  C   UNL     1       0.401   2.436 -11.743  0.00  0.00    +0.135 A 
ATOM     28  C   UNL     1       1.121   3.482 -12.304  0.00  0.00    +0.060 A 
ATOM     29  C   UNL     1       1.489   3.431 -13.636  0.00  0.00    +0.023 A 
ATOM     30 BR   UNL     1       1.602   4.974 -11.246  0.00  0.00    -0.047 Br
BRANCH  24  32
ATOM     31  C   UNL     1       0.276   2.204 -16.733  0.00  0.00    +0.015 C 
ATOM     32  C   UNL     1       1.531   2.291 -15.863  0.00  0.00    -0.013 C 
ATOM     33  C   UNL     1       2.314   3.556 -16.222  0.00  0.00    +0.015 C 
ATOM     34  C   UNL     1       2.408   1.062 -16.108  0.00  0.00    +0.015 C 
ENDBRANCH  24  32
ENDBRANCH  23  27
ENDBRANCH  22  23
ENDBRANCH   1  22
TORSDOF 9
