REMARK  Name = ZINC11867324
REMARK  8 active torsions:
REMARK  status: ('A' for Active; 'I' for Inactive)
REMARK    1  A    between atoms: C_1  and  C_2
REMARK    2  A    between atoms: C_2  and  C_3
REMARK    3  A    between atoms: C_8  and  C_28
REMARK    4  A    between atoms: C_12  and  C_15
REMARK    5  A    between atoms: C_13  and  O_14
REMARK    6  A    between atoms: C_15  and  N_60
REMARK    7  A    between atoms: C_19  and  C_22
REMARK    8  A    between atoms: C_30  and  C_33
REMARK                            x       y       z     vdW  Elec       q    Type
REMARK                         _______ _______ _______ _____ _____    ______ ____
ROOT
ATOM      1  C   UNL     1      -6.151   3.990  -1.838  0.00  0.00    -0.005 A 
ATOM      2  C   UNL     1      -6.274   3.442  -3.084  0.00  0.00    +0.022 A 
ATOM      3  C   UNL     1      -5.750   2.175  -3.338  0.00  0.00    +0.065 A 
ATOM      4  C   UNL     1      -5.864   1.553  -4.670  0.00  0.00    +0.202 A 
ATOM      5  O   UNL     1      -6.419   2.122  -5.595  0.00  0.00    -0.286 OA
ATOM      6  C   UNL     1      -5.275   0.211  -4.829  0.00  0.00    +0.089 A 
ATOM      7  C   UNL     1      -4.670  -0.367  -3.756  0.00  0.00    +0.210 A 
ATOM      8  O   UNL     1      -4.590   0.233  -2.567  0.00  0.00    -0.462 OA
ATOM      9  C   UNL     1      -5.097   1.458  -2.320  0.00  0.00    +0.143 A 
ATOM     10  C   UNL     1      -4.980   2.029  -1.060  0.00  0.00    +0.021 A 
ATOM     11  C   UNL     1      -5.511   3.285  -0.821  0.00  0.00    +0.125 A 
ENDROOT
BRANCH   6  12
ATOM     12  C   UNL     1      -5.340  -0.491  -6.127  0.00  0.00    +0.115 A 
ATOM     13  N   UNL     1      -4.868  -1.684  -6.463  0.00  0.00    -0.244 NA
ATOM     14  C   UNL     1      -5.022  -2.159  -7.678  0.00  0.00    +0.046 A 
ATOM     15  C   UNL     1      -5.663  -1.419  -8.619  0.00  0.00    +0.070 A 
ATOM     16  S   UNL     1      -6.067   0.043  -7.671  0.00  0.00    -0.075 S 
ATOM     17  C   UNL     1      -4.481  -3.522  -8.029  0.00  0.00    +0.066 C 
ENDBRANCH   6  12
BRANCH   1  19
ATOM     18  C   UNL     1      -5.617   6.409  -1.734  0.00  0.00    +0.009 C 
ATOM     19  C   UNL     1      -6.716   5.359  -1.562  0.00  0.00    +0.035 C 
ENDBRANCH   1  19
BRANCH  11  20
ATOM     20  O   UNL     1      -5.400   3.839   0.414  0.00  0.00    -0.506 OA
ATOM     21  H   UNL     1      -4.600   4.367   0.537  0.00  0.00    +0.292 HD
ENDBRANCH  11  20
BRANCH  10  22
ATOM     22  C   UNL     1      -4.284   1.280   0.048  0.00  0.00    -0.036 C 
BRANCH  22  28
ATOM     23  C   UNL     1      -2.207   1.109  -1.184  0.00  0.00    -0.078 C 
ATOM     24  C   UNL     1      -0.756   1.594  -1.230  0.00  0.00    -0.018 C 
ATOM     25  C   UNL     1      -0.013   1.086   0.008  0.00  0.00    +0.004 C 
ATOM     26  C   UNL     1      -0.732   1.581   1.266  0.00  0.00    +0.004 C 
ATOM     27  C   UNL     1      -2.185   1.096   1.239  0.00  0.00    -0.070 C 
ATOM     28  N   UNL     1      -2.851   1.640   0.036  0.00  0.00    +0.383 N 
ATOM     29  H   UNL     1      -2.764   2.663   0.041  0.00  0.00    -0.081 HD
BRANCH  26  30
ATOM     30  C   UNL     1      -0.040   1.036   2.489  0.00  0.00    -0.028 A 
ATOM     31  C   UNL     1       0.502   1.897   3.431  0.00  0.00    +0.007 A 
ATOM     32  C   UNL     1       1.129   1.351   4.540  0.00  0.00    +0.020 A 
ATOM     33  C   UNL     1       1.194  -0.024   4.669  0.00  0.00    +0.111 A 
ATOM     34  N   UNL     1       0.667  -0.812   3.752  0.00  0.00    -0.263 NA
ATOM     35  C   UNL     1       0.058  -0.328   2.688  0.00  0.00    +0.114 A 
ENDBRANCH  26  30
ENDBRANCH  22  28
ENDBRANCH  10  22
TORSDOF 6
