REMARK  Name = ZINC42577330
REMARK  4 active torsions:
REMARK  status: ('A' for Active; 'I' for Inactive)
REMARK    1  A    between atoms: C_4  and  N_8
REMARK    2  A    between atoms: N_8  and  S_9
REMARK    3  A    between atoms: S_9  and  C_12
REMARK    4  A    between atoms: C_17  and  N_18
REMARK                            x       y       z     vdW  Elec       q    Type
REMARK                         _______ _______ _______ _____ _____    ______ ____
ROOT
ATOM      1  S   UNL     1       3.645  -2.306  -0.046  0.00  0.00    +0.096 S 
ATOM      2  O   UNL     1       3.113  -2.727   1.202  0.00  0.00    -0.148 OA
ATOM      3  O   UNL     1       3.088  -2.714  -1.288  0.00  0.00    -0.148 OA
ENDROOT
BRANCH   1   4
ATOM      4  C   UNL     1       5.336  -2.802  -0.066  0.00  0.00    +0.166 A 
ATOM      5  C   UNL     1       6.002  -3.497   0.947  0.00  0.00    +0.133 A 
ATOM      6  N   UNL     1       7.241  -3.684   0.571  0.00  0.00    -0.304 N 
ATOM      7  H   UNL     1       8.229  -3.106  -1.216  0.00  0.00    +0.188 HD
ATOM      8  N   UNL     1       7.409  -3.114  -0.698  0.00  0.00    -0.286 N 
ATOM      9  C   UNL     1       6.225  -2.581  -1.074  0.00  0.00    +0.137 A 
ATOM     10  H   UNL     1       7.927  -4.141   1.083  0.00  0.00    +0.186 HD
BRANCH   9  11
ATOM     11  N   UNL     1       5.963  -1.923  -2.272  0.00  0.00    -0.342 N 
ATOM     12  H   UNL     1       5.076  -1.571  -2.449  0.00  0.00    +0.144 HD
ATOM     13  H   UNL     1       6.667  -1.815  -2.931  0.00  0.00    +0.144 HD
ENDBRANCH   9  11
ENDBRANCH   1   4
BRANCH   1  14
ATOM     14  N   UNL     1       3.621  -0.650  -0.037  0.00  0.00    -0.097 NA
BRANCH  14  18
ATOM     15  C   UNL     1      -0.017   1.379   0.010  0.00  0.00    +0.016 A 
ATOM     16  C   UNL     1       1.170   2.090   0.002  0.00  0.00    +0.018 A 
ATOM     17  C   UNL     1       2.378   1.420  -0.013  0.00  0.00    +0.042 A 
ATOM     18  C   UNL     1       2.400   0.030  -0.021  0.00  0.00    +0.089 A 
ATOM     19  C   UNL     1       1.208  -0.680  -0.013  0.00  0.00    +0.043 A 
ATOM     20  C   UNL     1       0.002  -0.004   0.002  0.00  0.00    +0.020 A 
ATOM     21 BR   UNL     1      -1.623  -0.971   0.013  0.00  0.00    -0.050 Br
ATOM     22 BR   UNL     1       3.999   2.393  -0.025  0.00  0.00    -0.048 Br
ENDBRANCH  14  18
ENDBRANCH   1  14
TORSDOF 4
