REMARK  Name = ZINC47353242
REMARK  7 active torsions:
REMARK  status: ('A' for Active; 'I' for Inactive)
REMARK    1  A    between atoms: C_1  and  C_2
REMARK    2  A    between atoms: C_7  and  N_8
REMARK    3  A    between atoms: N_11  and  C_12
REMARK    4  A    between atoms: N_11  and  C_20
REMARK    5  A    between atoms: C_12  and  C_13
REMARK    6  A    between atoms: C_18  and  O_19
REMARK    7  A    between atoms: C_20  and  C_21
REMARK                            x       y       z     vdW  Elec       q    Type
REMARK                         _______ _______ _______ _____ _____    ______ ____
ROOT
ATOM      1  N   UNL     1       0.025  -0.013   2.418  0.00  0.00    -0.269 N 
ATOM      2  C   UNL     1      -0.056  -0.692   3.579  0.00  0.00    +0.307 C 
ATOM      3  O   UNL     1      -0.040  -1.907   3.575  0.00  0.00    -0.252 OA
ATOM      4  N   UNL     1      -0.156  -0.023   4.745  0.00  0.00    -0.274 N 
ATOM      5  H   UNL     1       0.077   0.956   2.425  0.00  0.00    +0.156 HD
ENDROOT
BRANCH   1  12
ATOM      6  C   UNL     1      -1.265   1.181   0.181  0.00  0.00    +0.046 C 
ATOM      7  C   UNL     1      -0.582  -0.159   0.084  0.00  0.00    -0.026 A 
ATOM      8  C   UNL     1      -0.566  -0.841  -1.117  0.00  0.00    +0.043 A 
ATOM      9  C   UNL     1       0.060  -2.073  -1.206  0.00  0.00    +0.124 A 
ATOM     10  C   UNL     1       0.672  -2.623  -0.092  0.00  0.00    +0.040 A 
ATOM     11  C   UNL     1       0.658  -1.944   1.111  0.00  0.00    +0.026 A 
ATOM     12  C   UNL     1       0.035  -0.706   1.200  0.00  0.00    +0.038 A 
ATOM     13  F   UNL     1       0.075  -2.739  -2.381  0.00  0.00    -0.205 F 
ENDBRANCH   1  12
BRANCH   4  14
ATOM     14  C   UNL     1      -0.244  -0.761   6.007  0.00  0.00    +0.148 C 
BRANCH  14  15
ATOM     15  C   UNL     1       1.142  -0.996   6.551  0.00  0.00    +0.011 A 
ATOM     16  C   UNL     1       1.758  -2.218   6.367  0.00  0.00    +0.009 A 
ATOM     17  C   UNL     1       3.030  -2.434   6.866  0.00  0.00    +0.001 A 
ATOM     18  C   UNL     1       3.687  -1.427   7.548  0.00  0.00    +0.004 A 
ATOM     19  C   UNL     1       3.075  -0.203   7.734  0.00  0.00    +0.046 A 
ATOM     20  C   UNL     1       1.802   0.018   7.230  0.00  0.00    +0.122 A 
BRANCH  20  21
ATOM     21  O   UNL     1       1.200   1.224   7.406  0.00  0.00    -0.506 OA
ATOM     22  H   UNL     1       0.679   1.288   8.218  0.00  0.00    +0.292 HD
ENDBRANCH  20  21
ENDBRANCH  14  15
ENDBRANCH   4  14
BRANCH   4  23
ATOM     23  C   UNL     1      -0.175   1.442   4.750  0.00  0.00    +0.183 C 
BRANCH  23  24
ATOM     24  C   UNL     1      -1.599   1.926   4.641  0.00  0.00    +0.122 A 
ATOM     25  C   UNL     1      -2.424   2.178   5.673  0.00  0.00    +0.046 A 
ATOM     26  C   UNL     1      -3.652   2.607   5.119  0.00  0.00    +0.041 A 
ATOM     27  C   UNL     1      -3.503   2.591   3.782  0.00  0.00    +0.195 A 
ATOM     28  O   UNL     1      -2.256   2.183   3.499  0.00  0.00    -0.466 OA
ENDBRANCH  23  24
ENDBRANCH   4  23
TORSDOF 6
