REMARK  Name = ZINC01453021
REMARK  8 active torsions:
REMARK  status: ('A' for Active; 'I' for Inactive)
REMARK    1  A    between atoms: C_1  and  C_2
REMARK    2  A    between atoms: C_7  and  N_8
REMARK    3  A    between atoms: N_8  and  C_9
REMARK    4  A    between atoms: C_9  and  N_11
REMARK    5  A    between atoms: N_11  and  N_12
REMARK    6  A    between atoms: C_13  and  C_14
REMARK    7  A    between atoms: C_17  and  C_19
REMARK    8  A    between atoms: C_24  and  N_25
REMARK                            x       y       z     vdW  Elec       q    Type
REMARK                         _______ _______ _______ _____ _____    ______ ____
ROOT
ATOM      1  N   UNL     1       3.163  -5.162  -2.287  0.00  0.00    -0.185 NA
ATOM      2  C   UNL     1       2.336  -5.399  -1.273  0.00  0.00    +0.176 C 
ENDROOT
BRANCH   2   3
ATOM      3  C   UNL     1       2.077  -4.405  -0.341  0.00  0.00    +0.148 A 
ATOM      4  C   UNL     1       1.192  -4.514   0.827  0.00  0.00    +0.051 A 
ATOM      5  C   UNL     1       1.243  -3.312   1.458  0.00  0.00    +0.050 A 
ATOM      6  C   UNL     1       2.112  -2.478   0.718  0.00  0.00    +0.138 A 
ATOM      7  O   UNL     1       2.592  -3.155  -0.339  0.00  0.00    -0.454 OA
BRANCH   6   8
ATOM      8  C   UNL     1       2.443  -1.095   1.054  0.00  0.00    +0.047 A 
ATOM      9  C   UNL     1       1.420  -0.168   1.328  0.00  0.00    +0.014 A 
ATOM     10  C   UNL     1       1.738   1.123   1.640  0.00  0.00    +0.001 A 
ATOM     11  C   UNL     1       3.064   1.527   1.690  0.00  0.00    +0.002 A 
ATOM     12  C   UNL     1       4.084   0.626   1.423  0.00  0.00    +0.033 A 
ATOM     13  C   UNL     1       3.787  -0.680   1.105  0.00  0.00    +0.137 A 
BRANCH  13  14
ATOM     14  N   UNL     1       4.874  -1.643   0.820  0.00  0.00    +0.057 N 
ATOM     15  O   UNL     1       6.131  -1.251   0.869  0.00  0.00    -0.126 OA
ATOM     16  O   UNL     1       4.586  -2.892   0.517  0.00  0.00    -0.126 OA
ENDBRANCH  13  14
ENDBRANCH   6   8
ENDBRANCH   2   3
BRANCH   1  17
ATOM     17  N   UNL     1       3.404  -6.086  -3.153  0.00  0.00    -0.218 N 
ATOM     18  H   UNL     1       2.982  -6.955  -3.065  0.00  0.00    +0.176 HD
BRANCH  17  19
ATOM     19  C   UNL     1       4.242  -5.845  -4.181  0.00  0.00    +0.154 C 
ATOM     20  S   UNL     1       4.561  -7.073  -5.330  0.00  0.00    -0.017 S 
BRANCH  19  21
ATOM     21  N   UNL     1       4.828  -4.638  -4.303  0.00  0.00    -0.295 N 
ATOM     22  H   UNL     1       4.587  -3.918  -3.699  0.00  0.00    +0.154 HD
BRANCH  21  29
ATOM     23  C   UNL     1       4.679  -2.228  -5.809  0.00  0.00    +0.045 C 
ATOM     24  C   UNL     1       5.748  -3.260  -6.059  0.00  0.00    -0.029 A 
ATOM     25  C   UNL     1       6.694  -3.051  -7.044  0.00  0.00    +0.005 A 
ATOM     26  C   UNL     1       7.676  -3.997  -7.274  0.00  0.00    +0.000 A 
ATOM     27  C   UNL     1       7.714  -5.156  -6.520  0.00  0.00    +0.002 A 
ATOM     28  C   UNL     1       6.774  -5.369  -5.531  0.00  0.00    +0.023 A 
ATOM     29  C   UNL     1       5.784  -4.423  -5.301  0.00  0.00    +0.036 A 
ENDBRANCH  21  29
ENDBRANCH  19  21
ENDBRANCH  17  19
ENDBRANCH   1  17
TORSDOF 7
