REMARK  Name = ZINC36588831
REMARK  15 active torsions:
REMARK  status: ('A' for Active; 'I' for Inactive)
REMARK    1  A    between atoms: C_1  and  C_2
REMARK    2  A    between atoms: C_5  and  S_8
REMARK    3  A    between atoms: S_8  and  C_11
REMARK    4  A    between atoms: C_11  and  N_12
REMARK    5  A    between atoms: C_13  and  C_15
REMARK    6  A    between atoms: C_15  and  C_17
REMARK    7  A    between atoms: C_15  and  N_26
REMARK    8  A    between atoms: C_18  and  O_25
REMARK    9  A    between atoms: C_20  and  O_24
REMARK   10  A    between atoms: C_22  and  O_23
REMARK   11  A    between atoms: N_26  and  C_35
REMARK   12  A    between atoms: C_27  and  C_29
REMARK   13  A    between atoms: C_35  and  C_36
REMARK   14  A    between atoms: C_35  and  C_37
REMARK   15  A    between atoms: C_35  and  C_38
REMARK                            x       y       z     vdW  Elec       q    Type
REMARK                         _______ _______ _______ _____ _____    ______ ____
ROOT
ATOM      1  C   UNL     1       5.062  -5.530   5.133  0.00  0.00    +0.200 C 
ENDROOT
BRANCH   1   2
ATOM      2  C   UNL     1       5.253  -5.029   6.541  0.00  0.00    +0.065 A 
ATOM      3  C   UNL     1       5.162  -5.909   7.609  0.00  0.00    +0.129 A 
ATOM      4  C   UNL     1       5.338  -5.447   8.905  0.00  0.00    +0.091 A 
ATOM      5  C   UNL     1       5.606  -4.106   9.132  0.00  0.00    +0.124 A 
ATOM      6  C   UNL     1       5.698  -3.226   8.065  0.00  0.00    +0.091 A 
ATOM      7  C   UNL     1       5.526  -3.688   6.768  0.00  0.00    +0.129 A 
BRANCH   7   8
ATOM      8  O   UNL     1       5.621  -2.827   5.722  0.00  0.00    -0.506 OA
ATOM      9  H   UNL     1       4.783  -2.412   5.477  0.00  0.00    +0.292 HD
ENDBRANCH   7   8
BRANCH   5  10
ATOM     10  O   UNL     1       5.777  -3.654  10.402  0.00  0.00    -0.507 OA
ATOM     11  H   UNL     1       6.693  -3.685  10.711  0.00  0.00    +0.292 HD
ENDBRANCH   5  10
BRANCH   3  12
ATOM     12  O   UNL     1       4.900  -7.224   7.385  0.00  0.00    -0.506 OA
ATOM     13  H   UNL     1       5.685  -7.753   7.190  0.00  0.00    +0.292 HD
ENDBRANCH   3  12
ENDBRANCH   1   2
BRANCH   1  15
ATOM     14  N   UNL     1       7.417  -6.047   4.578  0.00  0.00    -0.294 N 
ATOM     15  C   UNL     1       6.165  -6.499   4.790  0.00  0.00    +0.240 C 
ATOM     16  O   UNL     1       5.926  -7.685   4.706  0.00  0.00    -0.273 OA
ATOM     17  H   UNL     1       7.608  -5.098   4.645  0.00  0.00    +0.150 HD
BRANCH  14  18
ATOM     18  C   UNL     1       8.489  -6.989   4.245  0.00  0.00    +0.278 C 
BRANCH  18  19
ATOM     19  S   UNL     1       8.679  -7.076   2.443  0.00  0.00    +0.013 S 
ATOM     20  O   UNL     1       7.409  -7.229   1.824  0.00  0.00    -0.168 OA
ATOM     21  O   UNL     1       9.758  -7.938   2.106  0.00  0.00    -0.168 OA
BRANCH  19  26
ATOM     22  C   UNL     1      10.537  -1.574   0.807  0.00  0.00    +0.044 C 
ATOM     23  C   UNL     1      10.073  -2.948   1.216  0.00  0.00    -0.050 A 
ATOM     24  C   UNL     1      10.999  -3.922   1.541  0.00  0.00    +0.005 A 
ATOM     25  C   UNL     1      10.573  -5.182   1.916  0.00  0.00    +0.027 A 
ATOM     26  C   UNL     1       9.222  -5.469   1.966  0.00  0.00    +0.090 A 
ATOM     27  C   UNL     1       8.296  -4.495   1.642  0.00  0.00    +0.027 A 
ATOM     28  C   UNL     1       8.722  -3.233   1.271  0.00  0.00    +0.005 A 
ENDBRANCH  19  26
ENDBRANCH  18  19
ENDBRANCH  14  18
ENDBRANCH   1  15
BRANCH   1  29
ATOM     29  N   UNL     1       3.768  -6.208   5.027  0.00  0.00    -0.277 N 
ATOM     30  C   UNL     1       2.977  -6.324   6.112  0.00  0.00    +0.248 C 
ATOM     31  O   UNL     1       2.970  -5.448   6.955  0.00  0.00    -0.270 OA
BRANCH  30  32
ATOM     32  C   UNL     1       2.119  -7.516   6.277  0.00  0.00    +0.037 A 
ATOM     33  C   UNL     1       1.487  -8.083   5.170  0.00  0.00    +0.013 A 
ATOM     34  C   UNL     1       0.687  -9.196   5.331  0.00  0.00    +0.001 A 
ATOM     35  C   UNL     1       0.511  -9.749   6.587  0.00  0.00    +0.000 A 
ATOM     36  C   UNL     1       1.134  -9.191   7.689  0.00  0.00    +0.001 A 
ATOM     37  C   UNL     1       1.941  -8.082   7.541  0.00  0.00    +0.013 A 
ENDBRANCH  30  32
BRANCH  29  38
ATOM     38  C   UNL     1       3.332  -6.759   3.741  0.00  0.00    +0.030 C 
ATOM     39  C   UNL     1       4.367  -6.423   2.666  0.00  0.00    +0.031 C 
ATOM     40  C   UNL     1       3.193  -8.278   3.858  0.00  0.00    +0.031 C 
ATOM     41  C   UNL     1       1.982  -6.151   3.357  0.00  0.00    +0.031 C 
ENDBRANCH  29  38
ENDBRANCH   1  29
TORSDOF 11
