REMARK  Name = ZINC54531073
REMARK  4 active torsions:
REMARK  status: ('A' for Active; 'I' for Inactive)
REMARK    1  A    between atoms: C_1  and  C_2
REMARK    2  A    between atoms: C_3  and  C_22
REMARK    3  A    between atoms: C_7  and  C_8
REMARK    4  A    between atoms: N_11  and  C_12
REMARK                            x       y       z     vdW  Elec       q    Type
REMARK                         _______ _______ _______ _____ _____    ______ ____
ROOT
ATOM      1  C   UNL     1      -0.311   1.484   0.017  0.00  0.00    +0.046 C 
ATOM      2  C   UNL     1      -0.137  -0.013   0.005  0.00  0.00    -0.013 A 
ATOM      3  C   UNL     1      -0.150  -0.724  -1.183  0.00  0.00    +0.035 A 
ATOM      4  N   UNL     1       0.003  -2.034  -1.174  0.00  0.00    -0.280 N 
ATOM      5  N   UNL     1       0.169  -2.705  -0.093  0.00  0.00    -0.158 NA
ATOM      6  C   UNL     1       0.198  -2.126   1.101  0.00  0.00    +0.154 A 
ATOM      7  C   UNL     1       0.049  -0.729   1.196  0.00  0.00    +0.109 A 
ATOM      8  N   UNL     1       0.379  -2.887   2.240  0.00  0.00    -0.326 N 
ATOM      9  C   UNL     1      -0.341   0.001  -2.490  0.00  0.00    +0.065 C 
ATOM     10  H   UNL     1       0.381  -2.462   3.111  0.00  0.00    +0.148 HD
ATOM     11  H   UNL     1      -0.010  -2.510  -2.019  0.00  0.00    +0.189 HD
ENDROOT
BRANCH   8  12
ATOM     12  C   UNL     1       0.568  -4.336   2.130  0.00  0.00    +0.057 C 
ATOM     13  C   UNL     1      -0.794  -5.061   2.145  0.00  0.00    +0.002 C 
ATOM     14  C   UNL     1      -0.522  -6.378   2.890  0.00  0.00    -0.077 C 
ATOM     15  N   UNL     1       0.728  -6.217   3.644  0.00  0.00    +0.383 N 
ATOM     16  C   UNL     1       1.299  -4.880   3.372  0.00  0.00    -0.048 C 
ATOM     17  C   UNL     1       0.899  -4.015   4.593  0.00  0.00    -0.015 C 
ATOM     18  C   UNL     1       0.968  -5.041   5.753  0.00  0.00    -0.020 C 
ATOM     19  C   UNL     1       0.476  -6.348   5.088  0.00  0.00    -0.078 C 
ATOM     20  H   UNL     1       1.391  -6.919   3.351  0.00  0.00    -0.081 HD
ENDBRANCH   8  12
BRANCH   7  21
ATOM     21  C   UNL     1       0.081  -0.045   2.501  0.00  0.00    +0.390 C 
ATOM     22  O   UNL     1      -0.948   0.087   3.149  0.00  0.00    -0.240 OA
ATOM     23  O   UNL     1       1.137   0.392   2.937  0.00  0.00    -0.240 OA
ENDBRANCH   7  21
TORSDOF 2
