REMARK  Name = ZINC17221936
REMARK  4 active torsions:
REMARK  status: ('A' for Active; 'I' for Inactive)
REMARK    1  A    between atoms: C_3  and  C_10
REMARK    2  A    between atoms: C_5  and  N_7
REMARK    3  A    between atoms: C_15  and  C_20
REMARK    4  A    between atoms: C_23  and  N_26
REMARK                            x       y       z     vdW  Elec       q    Type
REMARK                         _______ _______ _______ _____ _____    ______ ____
ROOT
ATOM      1  C   UNL     1      -4.730   2.120  -0.585  0.00  0.00    +0.028 C 
ATOM      2  C   UNL     1      -3.514   2.471  -0.095  0.00  0.00    +0.080 C 
ATOM      3  C   UNL     1      -2.540   1.675   0.666  0.00  0.00    +0.271 C 
ATOM      4  O   UNL     1      -2.772   0.511   0.947  0.00  0.00    -0.266 OA
ATOM      5  N   UNL     1      -1.370   2.265   1.051  0.00  0.00    -0.264 N 
ATOM      6  C   UNL     1      -0.319   1.718   1.765  0.00  0.00    +0.065 A 
ATOM      7  C   UNL     1       0.772   2.459   2.052  0.00  0.00    +0.074 A 
ATOM      8  S   UNL     1       0.331   4.018   1.302  0.00  0.00    -0.070 S 
ATOM      9  C   UNL     1      -1.205   3.546   0.702  0.00  0.00    +0.127 A 
ATOM     10  S   UNL     1      -2.654   4.036  -0.183  0.00  0.00    -0.059 S 
ENDROOT
BRANCH   1  13
ATOM     11  C   UNL     1      -4.679  -1.624  -0.782  0.00  0.00    +0.003 A 
ATOM     12  C   UNL     1      -4.263  -0.310  -0.832  0.00  0.00    +0.008 A 
ATOM     13  C   UNL     1      -5.165   0.717  -0.535  0.00  0.00    -0.022 A 
ATOM     14  C   UNL     1      -6.482   0.401  -0.184  0.00  0.00    +0.040 A 
ATOM     15  C   UNL     1      -6.884  -0.917  -0.144  0.00  0.00    +0.127 A 
ATOM     16  C   UNL     1      -5.985  -1.927  -0.440  0.00  0.00    +0.033 A 
BRANCH  15  17
ATOM     17  N   UNL     1      -8.279  -1.253   0.221  0.00  0.00    +0.056 N 
ATOM     18  O   UNL     1      -8.634  -2.417   0.260  0.00  0.00    -0.126 OA
ATOM     19  O   UNL     1      -9.071  -0.365   0.481  0.00  0.00    -0.126 OA
ENDBRANCH  15  17
ENDBRANCH   1  13
BRANCH   6  20
ATOM     20  C   UNL     1      -0.389   0.307   2.212  0.00  0.00    -0.000 A 
ATOM     21  C   UNL     1       0.723  -0.525   2.081  0.00  0.00    +0.012 A 
ATOM     22  C   UNL     1       0.654  -1.837   2.505  0.00  0.00    +0.033 A 
ATOM     23  C   UNL     1      -0.519  -2.330   3.048  0.00  0.00    +0.126 A 
ATOM     24  C   UNL     1      -1.627  -1.511   3.176  0.00  0.00    +0.033 A 
ATOM     25  C   UNL     1      -1.568  -0.196   2.761  0.00  0.00    +0.012 A 
BRANCH  23  26
ATOM     26  N   UNL     1      -0.589  -3.740   3.496  0.00  0.00    +0.056 N 
ATOM     27  O   UNL     1      -1.620  -4.177   3.975  0.00  0.00    -0.126 OA
ATOM     28  O   UNL     1       0.385  -4.463   3.385  0.00  0.00    -0.126 OA
ENDBRANCH  23  26
ENDBRANCH   6  20
TORSDOF 4
