REMARK  Name = ZINC20153626
REMARK  10 active torsions:
REMARK  status: ('A' for Active; 'I' for Inactive)
REMARK    1  A    between atoms: C_1  and  C_2
REMARK    2  A    between atoms: C_7  and  O_8
REMARK    3  A    between atoms: O_8  and  C_9
REMARK    4  A    between atoms: C_9  and  C_10
REMARK    5  A    between atoms: N_12  and  C_13
REMARK    6  A    between atoms: C_13  and  N_15
REMARK    7  A    between atoms: N_15  and  C_16
REMARK    8  A    between atoms: C_18  and  C_23
REMARK    9  A    between atoms: C_26  and  C_28
REMARK   10  A    between atoms: C_28  and  O_29
REMARK                            x       y       z     vdW  Elec       q    Type
REMARK                         _______ _______ _______ _____ _____    ______ ____
ROOT
ATOM      1  N   UNL     1       0.085  -0.143   8.333  0.00  0.00    -0.295 N 
ATOM      2  H   UNL     1      -0.154  -1.076   8.451  0.00  0.00    +0.154 HD
ENDROOT
BRANCH   1   3
ATOM      3  C   UNL     1       0.190   0.699   9.446  0.00  0.00    +0.052 A 
ATOM      4  C   UNL     1      -0.417   1.944   9.432  0.00  0.00    +0.036 A 
ATOM      5  C   UNL     1      -0.310   2.780  10.544  0.00  0.00    +0.019 A 
ATOM      6  C   UNL     1       0.409   2.356  11.664  0.00  0.00    +0.013 A 
ATOM      7  C   UNL     1       1.010   1.114  11.668  0.00  0.00    +0.022 A 
ATOM      8  C   UNL     1       0.899   0.283  10.568  0.00  0.00    +0.062 A 
ATOM      9 CL   UNL     1       1.653  -1.280  10.585  0.00  0.00    -0.082 Cl
BRANCH   5  10
ATOM     10  C   UNL     1      -0.955   4.110  10.537  0.00  0.00    +0.135 A 
ATOM     11  C   UNL     1      -0.922   5.018  11.548  0.00  0.00    +0.050 A 
ATOM     12  C   UNL     1      -1.662   6.136  11.114  0.00  0.00    +0.047 A 
ATOM     13  C   UNL     1      -2.106   5.858   9.873  0.00  0.00    +0.131 A 
ATOM     14  O   UNL     1      -1.672   4.635   9.525  0.00  0.00    -0.457 OA
BRANCH  13  15
ATOM     15  C   UNL     1      -2.944   6.769   9.015  0.00  0.00    +0.230 C 
BRANCH  15  16
ATOM     16  O   UNL     1      -2.090   7.597   8.223  0.00  0.00    -0.387 OA
ATOM     17  H   UNL     1      -2.563   8.211   7.644  0.00  0.00    +0.210 HD
ENDBRANCH  15  16
ENDBRANCH  13  15
ENDBRANCH   5  10
ENDBRANCH   1   3
BRANCH   1  18
ATOM     18  C   UNL     1       0.315   0.342   7.097  0.00  0.00    +0.141 C 
ATOM     19  S   UNL     1       0.629   2.010   6.877  0.00  0.00    -0.018 S 
BRANCH  18  22
ATOM     20  C   UNL     1       0.530  -0.002   4.798  0.00  0.00    +0.256 C 
ATOM     21  O   UNL     1       0.752   1.180   4.642  0.00  0.00    -0.272 OA
ATOM     22  N   UNL     1       0.299  -0.487   6.034  0.00  0.00    -0.265 N 
ATOM     23  H   UNL     1       0.122  -1.433   6.159  0.00  0.00    +0.157 HD
BRANCH  20  24
ATOM     24  C   UNL     1       0.512  -0.929   3.610  0.00  0.00    +0.325 C 
BRANCH  24  25
ATOM     25  O   UNL     1       0.782  -0.184   2.421  0.00  0.00    -0.483 OA
BRANCH  25  32
ATOM     26  C   UNL     1       1.313   1.271   0.058  0.00  0.00    +0.047 C 
ATOM     27  C   UNL     1       1.058  -0.214   0.058  0.00  0.00    -0.009 A 
ATOM     28  C   UNL     1       1.085  -0.920  -1.129  0.00  0.00    +0.007 A 
ATOM     29  C   UNL     1       0.850  -2.283  -1.130  0.00  0.00    +0.000 A 
ATOM     30  C   UNL     1       0.589  -2.942   0.057  0.00  0.00    +0.004 A 
ATOM     31  C   UNL     1       0.562  -2.241   1.246  0.00  0.00    +0.046 A 
ATOM     32  C   UNL     1       0.803  -0.875   1.250  0.00  0.00    +0.124 A 
ENDBRANCH  25  32
ENDBRANCH  24  25
ENDBRANCH  20  24
ENDBRANCH  18  22
ENDBRANCH   1  18
TORSDOF 9
