REMARK  Name = ZINC47935764
REMARK  9 active torsions:
REMARK  status: ('A' for Active; 'I' for Inactive)
REMARK    1  A    between atoms: C_1  and  C_2
REMARK    2  A    between atoms: C_2  and  C_3
REMARK    3  A    between atoms: C_3  and  C_5
REMARK    4  A    between atoms: C_3  and  O_8
REMARK    5  A    between atoms: O_8  and  C_9
REMARK    6  A    between atoms: C_15  and  C_25
REMARK    7  A    between atoms: C_20  and  C_22
REMARK    8  A    between atoms: C_22  and  C_23
REMARK    9  A    between atoms: C_22  and  C_24
REMARK                            x       y       z     vdW  Elec       q    Type
REMARK                         _______ _______ _______ _____ _____    ______ ____
ROOT
ATOM      1  C   UNL     1       2.265   0.881   3.951  0.00  0.00    +0.122 A 
ATOM      2  C   UNL     1       3.300   1.798   3.839  0.00  0.00    +0.046 A 
ATOM      3  C   UNL     1       3.220   3.005   4.500  0.00  0.00    +0.007 A 
ATOM      4  C   UNL     1       2.110   3.316   5.276  0.00  0.00    -0.040 A 
ATOM      5  C   UNL     1       1.077   2.411   5.380  0.00  0.00    -0.016 A 
ATOM      6  C   UNL     1       1.155   1.194   4.718  0.00  0.00    +0.051 A 
ATOM      7  C   UNL     1      -0.169   2.696   6.181  0.00  0.00    +0.137 C 
ATOM      8  N   UNL     1       0.037   3.892   7.005  0.00  0.00    -0.290 N 
ATOM      9  C   UNL     1       0.680   5.052   6.364  0.00  0.00    +0.113 C 
ATOM     10  C   UNL     1       2.102   4.648   5.979  0.00  0.00    +0.054 C 
ATOM     11  C   UNL     1      -0.346   3.928   8.296  0.00  0.00    +0.219 C 
ATOM     12  O   UNL     1      -0.972   3.002   8.769  0.00  0.00    -0.275 OA
ENDROOT
BRANCH   7  13
ATOM     13  C   UNL     1      -0.472   1.520   7.072  0.00  0.00    -0.023 A 
ATOM     14  C   UNL     1       0.368   1.218   8.127  0.00  0.00    +0.006 A 
ATOM     15  C   UNL     1       0.090   0.139   8.945  0.00  0.00    +0.000 A 
ATOM     16  C   UNL     1      -1.028  -0.638   8.709  0.00  0.00    +0.000 A 
ATOM     17  C   UNL     1      -1.869  -0.335   7.654  0.00  0.00    +0.000 A 
ATOM     18  C   UNL     1      -1.593   0.746   6.838  0.00  0.00    +0.006 A 
ENDBRANCH   7  13
BRANCH  11  19
ATOM     19  C   UNL     1       0.001   5.118   9.153  0.00  0.00    +0.069 C 
ATOM     20  C   UNL     1      -1.010   6.239   8.903  0.00  0.00    +0.017 C 
ATOM     21  C   UNL     1      -0.039   4.714  10.628  0.00  0.00    +0.017 C 
ENDBRANCH  11  19
BRANCH   1  22
ATOM     22  O   UNL     1       2.337  -0.314   3.308  0.00  0.00    -0.480 OA
BRANCH  22  23
ATOM     23  C   UNL     1       3.561  -0.615   2.635  0.00  0.00    +0.258 C 
BRANCH  23  24
ATOM     24  C   UNL     1       3.898  -2.071   2.835  0.00  0.00    +0.251 C 
ATOM     25  O   UNL     1       3.119  -2.800   3.411  0.00  0.00    -0.272 OA
ATOM     26  N   UNL     1       5.066  -2.561   2.373  0.00  0.00    -0.326 N 
ATOM     27  H   UNL     1       5.689  -1.978   1.913  0.00  0.00    +0.145 HD
ATOM     28  H   UNL     1       5.283  -3.498   2.502  0.00  0.00    +0.145 HD
ENDBRANCH  23  24
BRANCH  23  30
ATOM     29  C   UNL     1       3.187   1.171   0.929  0.00  0.00    +0.008 C 
ATOM     30  C   UNL     1       3.405  -0.329   1.140  0.00  0.00    +0.051 C 
ENDBRANCH  23  30
ENDBRANCH  22  23
ENDBRANCH   1  22
TORSDOF 6
