REMARK  Name = ZINC39148949
REMARK  3 active torsions:
REMARK  status: ('A' for Active; 'I' for Inactive)
REMARK    1  A    between atoms: C_1  and  C_2
REMARK    2  A    between atoms: C_2  and  C_3
REMARK    3  A    between atoms: C_2  and  N_4
REMARK                            x       y       z     vdW  Elec       q    Type
REMARK                         _______ _______ _______ _____ _____    ______ ____
ROOT
ATOM      1  N   UNL     1      -1.372  -0.511   0.012  0.00  0.00    -0.218 N 
ATOM      2  C   UNL     1      -1.786  -1.288  -1.006  0.00  0.00    +0.257 C 
ATOM      3  O   UNL     1      -1.038  -1.569  -1.923  0.00  0.00    -0.269 OA
ATOM      4  C   UNL     1      -3.194  -1.797  -0.977  0.00  0.00    +0.067 C 
ATOM      5  C   UNL     1      -3.783  -2.628  -1.851  0.00  0.00    -0.042 C 
ATOM      6  C   UNL     1      -3.038  -3.349  -2.971  0.00  0.00    +0.033 C 
ATOM      7  C   UNL     1      -3.325  -4.847  -2.802  0.00  0.00    +0.004 C 
ATOM      8  C   UNL     1      -4.831  -5.090  -2.730  0.00  0.00    +0.002 C 
ATOM      9  C   UNL     1      -5.435  -4.412  -1.497  0.00  0.00    +0.019 C 
ATOM     10  C   UNL     1      -5.269  -2.897  -1.643  0.00  0.00    +0.079 C 
ATOM     11  S   UNL     1      -5.585  -2.075  -0.036  0.00  0.00    -0.100 S 
ATOM     12  C   UNL     1      -3.978  -1.356   0.200  0.00  0.00    +0.104 C 
ATOM     13  N   UNL     1      -3.442  -0.596   1.121  0.00  0.00    -0.155 NA
ATOM     14  C   UNL     1      -2.173  -0.190   1.038  0.00  0.00    +0.334 C 
ATOM     15  O   UNL     1      -1.725   0.507   1.931  0.00  0.00    -0.250 OA
ENDROOT
BRANCH   1  17
ATOM     16  C   UNL     1      -0.019   1.526   0.010  0.00  0.00    +0.028 C 
ATOM     17  C   UNL     1       0.002  -0.004   0.002  0.00  0.00    +0.080 C 
ATOM     18  C   UNL     1       0.742  -0.511   1.242  0.00  0.00    +0.028 C 
ENDBRANCH   1  17
TORSDOF 1
