REMARK  Name = ZINC00650061
REMARK  14 active torsions:
REMARK  status: ('A' for Active; 'I' for Inactive)
REMARK    1  A    between atoms: C_1  and  C_2
REMARK    2  A    between atoms: C_3  and  C_36
REMARK    3  A    between atoms: C_4  and  C_25
REMARK    4  A    between atoms: C_10  and  C_15
REMARK    5  A    between atoms: C_18  and  O_23
REMARK    6  A    between atoms: C_19  and  O_21
REMARK    7  A    between atoms: O_21  and  C_22
REMARK    8  A    between atoms: O_23  and  C_24
REMARK    9  A    between atoms: C_27  and  O_34
REMARK   10  A    between atoms: C_28  and  O_32
REMARK   11  A    between atoms: O_32  and  C_33
REMARK   12  A    between atoms: O_34  and  C_35
REMARK   13  A    between atoms: C_36  and  O_38
REMARK   14  A    between atoms: O_38  and  C_39
REMARK                            x       y       z     vdW  Elec       q    Type
REMARK                         _______ _______ _______ _____ _____    ______ ____
ROOT
ATOM      1  C   UNL     1      -0.018   1.503   0.010  0.00  0.00    +0.061 C 
ATOM      2  C   UNL     1       0.002  -0.004   0.002  0.00  0.00    +0.016 C 
ATOM      3  C   UNL     1      -1.155  -0.688   0.004  0.00  0.00    +0.065 C 
ATOM      4  C   UNL     1      -1.174  -2.188  -0.014  0.00  0.00    +0.093 C 
ATOM      5  C   UNL     1       0.164  -2.751   0.395  0.00  0.00    +0.024 C 
ATOM      6  C   UNL     1       1.271  -1.978   0.381  0.00  0.00    +0.016 C 
ATOM      7  N   UNL     1       1.198  -0.667  -0.013  0.00  0.00    -0.321 N 
ATOM      8  C   UNL     1       2.612  -2.532   0.794  0.00  0.00    +0.059 C 
ATOM      9  C   UNL     1       2.675  -4.025   0.462  0.00  0.00    +0.032 C 
ATOM     10  C   UNL     1       1.529  -4.734   1.190  0.00  0.00    +0.088 C 
ATOM     11  C   UNL     1       0.226  -4.099   0.788  0.00  0.00    +0.162 C 
ATOM     12  O   UNL     1      -0.791  -4.764   0.802  0.00  0.00    -0.292 OA
ATOM     13  H   UNL     1       2.000  -0.204  -0.301  0.00  0.00    +0.152 HD
ENDROOT
BRANCH   4  14
ATOM     14  C   UNL     1      -1.505  -2.662  -1.405  0.00  0.00    -0.018 A 
ATOM     15  C   UNL     1      -0.681  -2.325  -2.463  0.00  0.00    +0.055 A 
ATOM     16  C   UNL     1      -0.984  -2.761  -3.743  0.00  0.00    +0.162 A 
ATOM     17  C   UNL     1      -2.118  -3.538  -3.961  0.00  0.00    +0.163 A 
ATOM     18  C   UNL     1      -2.940  -3.872  -2.897  0.00  0.00    +0.065 A 
ATOM     19  C   UNL     1      -2.629  -3.439  -1.620  0.00  0.00    +0.026 A 
ATOM     20 BR   UNL     1      -3.748  -3.902  -0.168  0.00  0.00    -0.050 Br
BRANCH  17  21
ATOM     21  O   UNL     1      -2.419  -3.967  -5.215  0.00  0.00    -0.491 OA
ATOM     22  C   UNL     1      -3.599  -4.761  -5.364  0.00  0.00    +0.277 C 
ENDBRANCH  17  21
BRANCH  16  23
ATOM     23  O   UNL     1      -0.174  -2.430  -4.785  0.00  0.00    -0.491 OA
ATOM     24  C   UNL     1       0.972  -1.630  -4.487  0.00  0.00    +0.277 C 
ENDBRANCH  16  23
ENDBRANCH   4  14
BRANCH   9  25
ATOM     25  C   UNL     1       3.997  -4.589   0.917  0.00  0.00    -0.040 A 
ATOM     26  C   UNL     1       4.346  -4.536   2.253  0.00  0.00    +0.008 A 
ATOM     27  C   UNL     1       5.556  -5.052   2.676  0.00  0.00    +0.049 A 
ATOM     28  C   UNL     1       6.423  -5.625   1.759  0.00  0.00    +0.161 A 
ATOM     29  C   UNL     1       6.072  -5.679   0.413  0.00  0.00    +0.162 A 
ATOM     30  C   UNL     1       4.854  -5.164  -0.003  0.00  0.00    +0.053 A 
BRANCH  29  31
ATOM     31  O   UNL     1       6.919  -6.240  -0.490  0.00  0.00    -0.491 OA
ATOM     32  C   UNL     1       6.492  -6.260  -1.854  0.00  0.00    +0.277 C 
ENDBRANCH  29  31
BRANCH  28  33
ATOM     33  O   UNL     1       7.615  -6.133   2.173  0.00  0.00    -0.491 OA
ATOM     34  C   UNL     1       7.909  -6.042   3.568  0.00  0.00    +0.277 C 
ENDBRANCH  28  33
ENDBRANCH   9  25
BRANCH   3  35
ATOM     35  C   UNL     1      -2.379   0.021   0.023  0.00  0.00    +0.337 C 
ATOM     36  O   UNL     1      -2.378   1.238   0.038  0.00  0.00    -0.245 OA
BRANCH  35  37
ATOM     37  O   UNL     1      -3.549  -0.652   0.025  0.00  0.00    -0.465 OA
ATOM     38  C   UNL     1      -4.746   0.127   0.045  0.00  0.00    +0.280 C 
ENDBRANCH  35  37
ENDBRANCH   3  35
TORSDOF 8
