REMARK  Name = ZINC13954103
REMARK  12 active torsions:
REMARK  status: ('A' for Active; 'I' for Inactive)
REMARK    1  A    between atoms: C_1  and  C_2
REMARK    2  A    between atoms: C_2  and  C_3
REMARK    3  A    between atoms: C_2  and  C_4
REMARK    4  A    between atoms: C_2  and  C_5
REMARK    5  A    between atoms: C_12  and  N_17
REMARK    6  A    between atoms: C_13  and  C_14
REMARK    7  A    between atoms: C_18  and  C_20
REMARK    8  A    between atoms: C_20  and  C_21
REMARK    9  A    between atoms: C_24  and  O_29
REMARK   10  A    between atoms: C_25  and  O_27
REMARK   11  A    between atoms: O_27  and  C_28
REMARK   12  A    between atoms: O_29  and  C_30
REMARK                            x       y       z     vdW  Elec       q    Type
REMARK                         _______ _______ _______ _____ _____    ______ ____
ROOT
ATOM      1  C   UNL     1      -3.566  -1.651  -3.482  0.00  0.00    -0.000 C 
ATOM      2  C   UNL     1      -2.044  -1.718  -3.637  0.00  0.00    +0.009 C 
ATOM      3  C   UNL     1      -1.376  -0.799  -2.613  0.00  0.00    +0.037 C 
ATOM      4  C   UNL     1      -1.920  -1.129  -1.228  0.00  0.00    -0.023 A 
ATOM      5  C   UNL     1      -3.069  -1.821  -1.079  0.00  0.00    -0.004 A 
ATOM      6  S   UNL     1      -3.285  -1.969   0.672  0.00  0.00    -0.077 S 
ATOM      7  C   UNL     1      -1.865  -1.129   1.200  0.00  0.00    +0.084 A 
ATOM      8  C   UNL     1      -1.258  -0.754   0.010  0.00  0.00    +0.068 A 
ATOM      9  C   UNL     1      -3.960  -2.339  -2.166  0.00  0.00    +0.046 C 
ENDROOT
BRANCH   8  10
ATOM     10  C   UNL     1       0.002  -0.004   0.002  0.00  0.00    +0.244 C 
ATOM     11  O   UNL     1       1.064  -0.598  -0.011  0.00  0.00    -0.270 OA
ATOM     12  N   UNL     1      -0.016   1.344   0.009  0.00  0.00    -0.325 N 
ATOM     13  H   UNL     1       0.817   1.840   0.004  0.00  0.00    +0.145 HD
ATOM     14  H   UNL     1      -0.863   1.817   0.016  0.00  0.00    +0.145 HD
ENDBRANCH   8  10
BRANCH   1  16
ATOM     15  C   UNL     1      -5.754  -2.317  -4.489  0.00  0.00    +0.011 C 
ATOM     16  C   UNL     1      -4.234  -2.370  -4.656  0.00  0.00    -0.035 C 
ATOM     17  C   UNL     1      -3.840  -1.683  -5.965  0.00  0.00    +0.011 C 
ATOM     18  C   UNL     1      -3.775  -3.830  -4.688  0.00  0.00    +0.011 C 
ENDBRANCH   1  16
BRANCH   7  19
ATOM     19  N   UNL     1      -1.439  -0.888   2.498  0.00  0.00    -0.279 N 
ATOM     20  C   UNL     1      -2.168  -1.333   3.540  0.00  0.00    +0.222 C 
ATOM     21  O   UNL     1      -3.197  -1.944   3.343  0.00  0.00    -0.275 OA
ATOM     22  H   UNL     1      -0.616  -0.399   2.655  0.00  0.00    +0.155 HD
BRANCH  20  23
ATOM     23  C   UNL     1      -1.705  -1.072   4.950  0.00  0.00    +0.131 C 
BRANCH  23  24
ATOM     24  C   UNL     1      -2.690  -1.669   5.921  0.00  0.00    -0.035 A 
ATOM     25  C   UNL     1      -3.751  -0.911   6.381  0.00  0.00    +0.008 A 
ATOM     26  C   UNL     1      -4.661  -1.457   7.268  0.00  0.00    +0.049 A 
ATOM     27  C   UNL     1      -4.504  -2.761   7.707  0.00  0.00    +0.161 A 
ATOM     28  C   UNL     1      -3.432  -3.522   7.248  0.00  0.00    +0.162 A 
ATOM     29  C   UNL     1      -2.527  -2.971   6.355  0.00  0.00    +0.053 A 
BRANCH  28  30
ATOM     30  O   UNL     1      -3.274  -4.803   7.676  0.00  0.00    -0.491 OA
ATOM     31  C   UNL     1      -2.152  -5.524   7.163  0.00  0.00    +0.277 C 
ENDBRANCH  28  30
BRANCH  27  32
ATOM     32  O   UNL     1      -5.394  -3.297   8.584  0.00  0.00    -0.491 OA
ATOM     33  C   UNL     1      -6.469  -2.458   9.011  0.00  0.00    +0.277 C 
ENDBRANCH  27  32
ENDBRANCH  23  24
ENDBRANCH  20  23
ENDBRANCH   7  19
TORSDOF 7
