REMARK  Name = ZINC20572208
REMARK  3 active torsions:
REMARK  status: ('A' for Active; 'I' for Inactive)
REMARK    1  A    between atoms: C_7  and  C_11
REMARK    2  A    between atoms: C_11  and  C_12
REMARK    3  A    between atoms: N_20  and  C_23
REMARK                            x       y       z     vdW  Elec       q    Type
REMARK                         _______ _______ _______ _____ _____    ______ ____
ROOT
ATOM      1  C   UNL     1       0.381  -3.913  -1.315  0.00  0.00    +0.072 C 
ATOM      2  C   UNL     1      -0.688  -5.007  -1.521  0.00  0.00    +0.108 C 
ATOM      3  C   UNL     1      -1.700  -4.392  -2.529  0.00  0.00    +0.123 C 
ATOM      4  C   UNL     1      -2.972  -4.279  -1.719  0.00  0.00    +0.233 C 
ATOM      5  O   UNL     1      -4.028  -3.849  -2.131  0.00  0.00    -0.274 OA
ATOM      6  N   UNL     1      -2.750  -4.725  -0.477  0.00  0.00    -0.210 N 
ATOM      7  C   UNL     1      -1.491  -5.167  -0.251  0.00  0.00    +0.232 C 
ATOM      8  O   UNL     1      -1.069  -5.614   0.794  0.00  0.00    -0.274 OA
ATOM      9  C   UNL     1      -1.140  -2.997  -2.834  0.00  0.00    +0.136 C 
ATOM     10  N   UNL     1      -0.300  -2.639  -1.667  0.00  0.00    -0.295 NA
ATOM     11  C   UNL     1      -2.239  -1.993  -3.034  0.00  0.00    +0.003 A 
ATOM     12  C   UNL     1      -3.273  -1.547  -2.241  0.00  0.00    +0.008 A 
ATOM     13  C   UNL     1      -4.147  -0.586  -2.718  0.00  0.00    +0.000 A 
ATOM     14  C   UNL     1      -3.981  -0.076  -3.992  0.00  0.00    +0.002 A 
ATOM     15  C   UNL     1      -2.947  -0.520  -4.790  0.00  0.00    +0.023 A 
ATOM     16  C   UNL     1      -2.062  -1.486  -4.318  0.00  0.00    +0.039 A 
ATOM     17  N   UNL     1      -0.957  -2.087  -4.926  0.00  0.00    -0.283 N 
ATOM     18  C   UNL     1      -0.361  -2.986  -4.120  0.00  0.00    +0.243 C 
ATOM     19  O   UNL     1       0.615  -3.658  -4.381  0.00  0.00    -0.273 OA
ATOM     20  H   UNL     1      -0.859  -2.303  -0.896  0.00  0.00    +0.124 HD
ATOM     21  H   UNL     1      -0.654  -1.880  -5.824  0.00  0.00    +0.155 HD
ENDROOT
BRANCH   6  22
ATOM     22  C   UNL     1      -3.744  -4.742   0.512  0.00  0.00    +0.044 A 
ATOM     23  C   UNL     1      -4.834  -5.593   0.388  0.00  0.00    +0.027 A 
ATOM     24  C   UNL     1      -5.812  -5.608   1.363  0.00  0.00    +0.040 A 
ATOM     25  C   UNL     1      -5.707  -4.774   2.463  0.00  0.00    +0.124 A 
ATOM     26  C   UNL     1      -4.621  -3.924   2.588  0.00  0.00    +0.040 A 
ATOM     27  C   UNL     1      -3.638  -3.911   1.619  0.00  0.00    +0.027 A 
ATOM     28  F   UNL     1      -6.665  -4.790   3.416  0.00  0.00    -0.205 F 
ENDBRANCH   6  22
BRANCH   1  29
ATOM     29  C   UNL     1       0.841  -3.886   0.144  0.00  0.00    +0.056 C 
BRANCH  29  36
ATOM     30  C   UNL     1       0.858   0.743   0.879  0.00  0.00    +0.001 A 
ATOM     31  C   UNL     1       2.139   1.273   0.963  0.00  0.00    +0.002 A 
ATOM     32  C   UNL     1       3.245   0.461   0.834  0.00  0.00    +0.026 A 
ATOM     33  C   UNL     1       3.079  -0.903   0.617  0.00  0.00    +0.047 A 
ATOM     34  C   UNL     1       1.779  -1.435   0.533  0.00  0.00    +0.003 A 
ATOM     35  C   UNL     1       0.673  -0.594   0.666  0.00  0.00    +0.010 A 
ATOM     36  C   UNL     1       1.944  -2.872   0.304  0.00  0.00    -0.021 A 
ATOM     37  C   UNL     1       3.263  -3.115   0.266  0.00  0.00    +0.087 A 
ATOM     38  N   UNL     1       3.957  -1.950   0.451  0.00  0.00    -0.360 N 
ATOM     39  H   UNL     1       4.924  -1.874   0.463  0.00  0.00    +0.165 HD
ENDBRANCH  29  36
ENDBRANCH   1  29
TORSDOF 3
