REMARK  Name = ZINC31682886
REMARK  8 active torsions:
REMARK  status: ('A' for Active; 'I' for Inactive)
REMARK    1  A    between atoms: C_1  and  C_2
REMARK    2  A    between atoms: C_2  and  O_3
REMARK    3  A    between atoms: O_3  and  C_4
REMARK    4  A    between atoms: C_4  and  C_6
REMARK    5  A    between atoms: C_7  and  C_20
REMARK    6  A    between atoms: C_12  and  C_14
REMARK    7  A    between atoms: C_17  and  C_19
REMARK    8  A    between atoms: C_20  and  N_21
REMARK                            x       y       z     vdW  Elec       q    Type
REMARK                         _______ _______ _______ _____ _____    ______ ____
ROOT
ATOM      1  C   UNL     1       2.123   5.352   1.531  0.00  0.00    +0.083 C 
ATOM      2  C   UNL     1       3.467   5.292   1.646  0.00  0.00    +0.046 C 
ATOM      3  N   UNL     1       4.238   4.775   0.645  0.00  0.00    -0.271 N 
ATOM      4  C   UNL     1       3.742   4.298  -0.503  0.00  0.00    +0.304 C 
ATOM      5  O   UNL     1       4.508   3.857  -1.337  0.00  0.00    -0.252 OA
ATOM      6  N   UNL     1       2.419   4.290  -0.765  0.00  0.00    -0.285 N 
ATOM      7  C   UNL     1       1.501   4.826   0.253  0.00  0.00    +0.179 C 
ATOM      8  H   UNL     1       5.332   4.734   0.758  0.00  0.00    +0.156 HD
ATOM      9  H   UNL     1       2.022   3.895  -1.711  0.00  0.00    +0.151 HD
ENDROOT
BRANCH   7  10
ATOM     10  C   UNL     1       0.530   3.735   0.624  0.00  0.00    +0.130 A 
ATOM     11  C   UNL     1      -0.786   3.897   0.853  0.00  0.00    +0.047 A 
ATOM     12  C   UNL     1      -1.308   2.620   1.161  0.00  0.00    +0.045 A 
ATOM     13  C   UNL     1      -0.279   1.755   1.111  0.00  0.00    +0.102 A 
ATOM     14  O   UNL     1       0.831   2.436   0.783  0.00  0.00    -0.463 OA
ATOM     15  C   UNL     1      -0.359   0.274   1.374  0.00  0.00    +0.086 C 
ENDBRANCH   7  10
BRANCH   1  16
ATOM     16  C   UNL     1       1.323   5.887   2.568  0.00  0.00    +0.339 C 
ATOM     17  O   UNL     1       1.830   6.193   3.631  0.00  0.00    -0.245 OA
BRANCH  16  18
ATOM     18  O   UNL     1      -0.002   6.059   2.377  0.00  0.00    -0.462 OA
BRANCH  18  20
ATOM     19  C   UNL     1      -2.220   6.726   3.067  0.00  0.00    +0.048 C 
ATOM     20  C   UNL     1      -0.748   6.605   3.467  0.00  0.00    +0.229 C 
ENDBRANCH  18  20
ENDBRANCH  16  18
ENDBRANCH   1  16
BRANCH   2  21
ATOM     21  C   UNL     1       4.127   5.804   2.901  0.00  0.00    +0.198 C 
BRANCH  21  22
ATOM     22  N   UNL     1       4.337   4.693   3.831  0.00  0.00    -0.223 N 
ATOM     23  C   UNL     1       5.486   3.993   3.769  0.00  0.00    +0.287 A 
ATOM     24  O   UNL     1       6.341   4.283   2.947  0.00  0.00    -0.265 OA
ATOM     25  C   UNL     1       5.694   2.924   4.666  0.00  0.00    +0.126 A 
ATOM     26  C   UNL     1       4.699   2.641   5.562  0.00  0.00    +0.084 A 
ATOM     27  C   UNL     1       3.536   3.432   5.539  0.00  0.00    +0.154 A 
ATOM     28  N   UNL     1       3.419   4.407   4.681  0.00  0.00    -0.175 NA
ATOM     29 CL   UNL     1       4.867   1.340   6.699  0.00  0.00    -0.080 Cl
ATOM     30 CL   UNL     1       7.160   1.994   4.630  0.00  0.00    -0.076 Cl
ENDBRANCH  21  22
ENDBRANCH   2  21
TORSDOF 6
