REMARK  Name = ZINC20085067
REMARK  4 active torsions:
REMARK  status: ('A' for Active; 'I' for Inactive)
REMARK    1  A    between atoms: C_1  and  C_2
REMARK    2  A    between atoms: C_2  and  C_4
REMARK    3  A    between atoms: C_2  and  N_16
REMARK    4  A    between atoms: N_16  and  C_17
REMARK                            x       y       z     vdW  Elec       q    Type
REMARK                         _______ _______ _______ _____ _____    ______ ____
ROOT
ATOM      1  C   UNL     1       2.168   0.683   1.079  0.00  0.00    -0.060 A 
ATOM      2  C   UNL     1       1.602   0.144   2.221  0.00  0.00    +0.004 A 
ATOM      3  C   UNL     1       2.354  -0.653   3.062  0.00  0.00    +0.028 A 
ATOM      4  C   UNL     1       3.682  -0.914   2.760  0.00  0.00    +0.067 A 
ATOM      5  C   UNL     1       4.253  -0.370   1.608  0.00  0.00    +0.067 A 
ATOM      6  C   UNL     1       3.488   0.424   0.767  0.00  0.00    +0.029 A 
ATOM      7  N   UNL     1       5.577  -0.802   1.573  0.00  0.00    -0.306 N 
ATOM      8  H   UNL     1       6.234  -0.495   0.746  0.00  0.00    +0.170 HD
ATOM      9  C   UNL     1       5.801  -1.572   2.654  0.00  0.00    +0.325 A 
ATOM     10  O   UNL     1       6.859  -2.109   2.925  0.00  0.00    -0.247 OA
ATOM     11  N   UNL     1       4.676  -1.659   3.390  0.00  0.00    -0.306 N 
ATOM     12  H   UNL     1       4.456  -2.187   4.329  0.00  0.00    +0.170 HD
ENDROOT
BRANCH   1  14
ATOM     13  C   UNL     1       1.253   2.964   0.748  0.00  0.00    -0.009 C 
ATOM     14  C   UNL     1       1.338   1.551   0.168  0.00  0.00    -0.043 C 
BRANCH  14  15
ATOM     15  N   UNL     1      -0.013   0.987   0.052  0.00  0.00    +0.392 N 
ATOM     16  H   UNL     1      -0.324   0.577   1.024  0.00  0.00    -0.084 HD
ATOM     17  H   UNL     1      -0.715   1.777  -0.254  0.00  0.00    -0.084 HD
BRANCH  15  18
ATOM     18  C   UNL     1      -0.050  -0.089  -0.947  0.00  0.00    +0.043 C 
ATOM     19  C   UNL     1      -1.196  -1.077  -0.631  0.00  0.00    +0.036 C 
ATOM     20  C   UNL     1      -1.851  -1.269  -2.018  0.00  0.00    +0.231 C 
ATOM     21  O   UNL     1      -1.556  -0.034  -2.734  0.00  0.00    -0.466 OA
ATOM     22  C   UNL     1      -0.388   0.471  -2.312  0.00  0.00    +0.293 C 
ATOM     23  O   UNL     1       0.294   1.255  -2.929  0.00  0.00    -0.253 OA
ENDBRANCH  15  18
ENDBRANCH  14  15
ENDBRANCH   1  14
TORSDOF 3
