REMARK  Name = ZINC59639851
REMARK  15 active torsions:
REMARK  status: ('A' for Active; 'I' for Inactive)
REMARK    1  A    between atoms: C_1  and  C_2
REMARK    2  A    between atoms: C_2  and  N_3
REMARK    3  A    between atoms: N_3  and  C_4
REMARK    4  A    between atoms: N_3  and  C_6
REMARK    5  A    between atoms: C_4  and  C_5
REMARK    6  A    between atoms: C_9  and  C_13
REMARK    7  A    between atoms: C_10  and  O_12
REMARK    8  A    between atoms: N_14  and  N_15
REMARK    9  A    between atoms: C_16  and  C_18
REMARK   10  A    between atoms: C_18  and  N_19
REMARK   11  A    between atoms: C_20  and  C_32
REMARK   12  A    between atoms: C_22  and  C_28
REMARK   13  A    between atoms: C_23  and  C_26
REMARK   14  A    between atoms: C_28  and  O_29
REMARK   15  A    between atoms: O_29  and  C_30
REMARK                            x       y       z     vdW  Elec       q    Type
REMARK                         _______ _______ _______ _____ _____    ______ ____
ROOT
ATOM      1  N   UNL     1      -5.823  -2.037   6.699  0.00  0.00    -0.206 N 
ATOM      2  C   UNL     1      -7.074  -2.522   6.567  0.00  0.00    +0.252 C 
ATOM      3  O   UNL     1      -7.596  -2.565   5.473  0.00  0.00    -0.272 OA
ATOM      4  H   UNL     1      -5.407  -2.003   7.574  0.00  0.00    +0.177 HD
ENDROOT
BRANCH   1   6
ATOM      5  C   UNL     1      -3.920  -1.117   5.700  0.00  0.00    +0.142 C 
ATOM      6  N   UNL     1      -5.125  -1.584   5.572  0.00  0.00    -0.188 NA
BRANCH   5  10
ATOM      7  C   UNL     1      -1.802   0.257   2.283  0.00  0.00    +0.033 A 
ATOM      8  C   UNL     1      -1.205   0.306   3.540  0.00  0.00    +0.024 A 
ATOM      9  C   UNL     1      -1.889  -0.138   4.649  0.00  0.00    +0.015 A 
ATOM     10  C   UNL     1      -3.186  -0.641   4.515  0.00  0.00    +0.036 A 
ATOM     11  C   UNL     1      -3.786  -0.690   3.249  0.00  0.00    +0.127 A 
ATOM     12  C   UNL     1      -3.093  -0.236   2.141  0.00  0.00    +0.069 A 
BRANCH  11  13
ATOM     13  O   UNL     1      -5.046  -1.177   3.110  0.00  0.00    -0.506 OA
ATOM     14  H   UNL     1      -5.739  -0.507   3.194  0.00  0.00    +0.292 HD
ENDBRANCH  11  13
BRANCH   7  15
ATOM     15  N   UNL     1      -1.103   0.709   1.164  0.00  0.00    -0.330 N 
BRANCH  15  17
ATOM     16  C   UNL     1       0.203   2.736   1.568  0.00  0.00    +0.024 C 
ATOM     17  C   UNL     1       0.258   1.229   1.311  0.00  0.00    +0.102 C 
ENDBRANCH  15  17
BRANCH  15  18
ATOM     18  C   UNL     1      -1.731   0.663  -0.159  0.00  0.00    +0.102 C 
ATOM     19  C   UNL     1      -1.420  -0.679  -0.825  0.00  0.00    +0.024 C 
ENDBRANCH  15  18
ENDBRANCH   7  15
ENDBRANCH   5  10
ENDBRANCH   1   6
BRANCH   2  20
ATOM     20  C   UNL     1      -7.825  -3.009   7.779  0.00  0.00    +0.222 C 
BRANCH  20  21
ATOM     21  N   UNL     1      -9.151  -3.482   7.374  0.00  0.00    -0.302 N 
ATOM     22  C   UNL     1      -9.316  -4.778   7.013  0.00  0.00    +0.034 A 
ATOM     23  C   UNL     1     -10.528  -5.254   6.631  0.00  0.00    +0.044 A 
ATOM     24  C   UNL     1     -11.637  -4.406   6.606  0.00  0.00    +0.016 A 
ATOM     25  C   UNL     1     -11.476  -3.073   6.976  0.00  0.00    +0.123 A 
ATOM     26  C   UNL     1     -10.189  -2.624   7.373  0.00  0.00    +0.270 A 
ATOM     27  O   UNL     1     -10.023  -1.463   7.706  0.00  0.00    -0.266 OA
ATOM     28 BR   UNL     1     -10.716  -7.068   6.132  0.00  0.00    -0.048 Br
ATOM     29  C   UNL     1      -8.130  -5.708   7.034  0.00  0.00    +0.065 C 
BRANCH  25  30
ATOM     30  C   UNL     1     -12.589  -2.173   6.963  0.00  0.00    +0.105 C 
ATOM     31  N   UNL     1     -13.473  -1.459   6.952  0.00  0.00    -0.191 NA
ENDBRANCH  25  30
BRANCH  24  32
ATOM     32  C   UNL     1     -12.988  -4.924   6.183  0.00  0.00    +0.197 C 
BRANCH  32  33
ATOM     33  O   UNL     1     -13.945  -3.865   6.244  0.00  0.00    -0.378 OA
ATOM     34  C   UNL     1     -15.266  -4.253   5.860  0.00  0.00    +0.194 C 
ENDBRANCH  32  33
ENDBRANCH  24  32
ENDBRANCH  20  21
ENDBRANCH   2  20
TORSDOF 11
