REMARK  Name = ZINC01351855
REMARK  12 active torsions:
REMARK  status: ('A' for Active; 'I' for Inactive)
REMARK    1  A    between atoms: C_1  and  C_2
REMARK    2  A    between atoms: C_2  and  C_3
REMARK    3  A    between atoms: C_2  and  C_4
REMARK    4  A    between atoms: C_4  and  C_5
REMARK    5  A    between atoms: C_5  and  N_6
REMARK    6  A    between atoms: C_7  and  C_11
REMARK    7  A    between atoms: C_11  and  C_13
REMARK    8  A    between atoms: C_11  and  N_66
REMARK    9  A    between atoms: C_16  and  N_19
REMARK   10  A    between atoms: N_19  and  C_20
REMARK   11  A    between atoms: N_19  and  C_21
REMARK   12  A    between atoms: C_27  and  C_29
REMARK                            x       y       z     vdW  Elec       q    Type
REMARK                         _______ _______ _______ _____ _____    ______ ____
ROOT
ATOM      1  C   UNL     1      -0.087   0.966  -0.207  0.00  0.00    +0.033 C 
ENDROOT
BRANCH   1   9
ATOM      2  C   UNL     1       2.265   0.733  -0.729  0.00  0.00    -0.058 C 
ATOM      3  C   UNL     1       3.278  -0.130  -1.489  0.00  0.00    +0.089 C 
ATOM      4  N   UNL     1       2.931  -0.108  -2.918  0.00  0.00    -0.299 N 
ATOM      5  C   UNL     1       1.546  -0.418  -3.303  0.00  0.00    +0.089 C 
ATOM      6  C   UNL     1       0.602   0.456  -2.472  0.00  0.00    -0.058 C 
ATOM      7  C   UNL     1       3.858   0.189  -3.850  0.00  0.00    +0.282 C 
ATOM      8  O   UNL     1       3.528   0.329  -5.013  0.00  0.00    -0.267 OA
ATOM      9  N   UNL     1       0.902   0.250  -1.038  0.00  0.00    +0.391 N 
ATOM     10  H   UNL     1       0.850  -0.754  -0.828  0.00  0.00    -0.080 HD
BRANCH   7  11
ATOM     11  C   UNL     1       5.264   0.344  -3.463  0.00  0.00    +0.189 A 
ATOM     12  C   UNL     1       6.277   0.773  -4.272  0.00  0.00    +0.054 A 
ATOM     13  C   UNL     1       7.445   0.769  -3.494  0.00  0.00    +0.042 A 
ATOM     14  C   UNL     1       7.098   0.342  -2.259  0.00  0.00    +0.196 A 
ATOM     15  O   UNL     1       5.783   0.092  -2.243  0.00  0.00    -0.458 OA
ENDBRANCH   7  11
ENDBRANCH   1   9
BRANCH   1  16
ATOM     16  C   UNL     1       0.168   0.642   1.242  0.00  0.00    -0.054 A 
ATOM     17  C   UNL     1       0.507  -0.647   1.611  0.00  0.00    +0.004 A 
ATOM     18  C   UNL     1       0.747  -0.947   2.937  0.00  0.00    +0.023 A 
ATOM     19  C   UNL     1       0.637   0.045   3.903  0.00  0.00    +0.029 A 
ATOM     20  C   UNL     1       0.291   1.338   3.530  0.00  0.00    +0.023 A 
ATOM     21  C   UNL     1       0.057   1.632   2.201  0.00  0.00    +0.004 A 
BRANCH  19  22
ATOM     22  N   UNL     1       0.873  -0.256   5.246  0.00  0.00    -0.336 N 
ATOM     23  C   UNL     1       0.756   0.792   6.263  0.00  0.00    +0.129 C 
ATOM     24  C   UNL     1       1.238  -1.619   5.638  0.00  0.00    +0.129 C 
ENDBRANCH  19  22
ENDBRANCH   1  16
BRANCH   1  26
ATOM     25  N   UNL     1      -0.993   3.318  -0.601  0.00  0.00    -0.231 N 
ATOM     26  C   UNL     1       0.023   2.455  -0.416  0.00  0.00    +0.142 A 
ATOM     27  N   UNL     1       1.128   3.159  -0.457  0.00  0.00    -0.115 NA
ATOM     28  N   UNL     1       0.807   4.391  -0.653  0.00  0.00    -0.023 NA
ATOM     29  N   UNL     1      -0.474   4.492  -0.737  0.00  0.00    -0.044 NA
BRANCH  25  30
ATOM     30  C   UNL     1      -2.419   2.988  -0.638  0.00  0.00    +0.147 C 
BRANCH  30  31
ATOM     31  C   UNL     1      -3.001   3.079   0.775  0.00  0.00    +0.026 C 
BRANCH  31  33
ATOM     32  C   UNL     1      -5.044   2.704   2.162  0.00  0.00    +0.007 C 
ATOM     33  C   UNL     1      -4.491   2.734   0.736  0.00  0.00    -0.015 C 
ATOM     34  C   UNL     1      -5.238   3.792  -0.078  0.00  0.00    +0.007 C 
ENDBRANCH  31  33
ENDBRANCH  30  31
ENDBRANCH  25  30
ENDBRANCH   1  26
TORSDOF 8
