REMARK  Name = ZINC12549543
REMARK  2 active torsions:
REMARK  status: ('A' for Active; 'I' for Inactive)
REMARK    1  A    between atoms: C_4  and  N_27
REMARK    2  A    between atoms: C_6  and  C_7
REMARK                            x       y       z     vdW  Elec       q    Type
REMARK                         _______ _______ _______ _____ _____    ______ ____
ROOT
ATOM      1  C   UNL     1      -1.293  -0.775   0.011  0.00  0.00    +0.209 C 
ATOM      2  N   UNL     1      -2.272  -0.108   0.889  0.00  0.00    -0.294 N 
ATOM      3  C   UNL     1      -2.999   0.953   0.417  0.00  0.00    +0.160 C 
ATOM      4  N   UNL     1      -3.314   1.058  -0.863  0.00  0.00    -0.302 N 
ATOM      5  C   UNL     1      -2.848   0.118  -1.720  0.00  0.00    +0.213 A 
ATOM      6  N   UNL     1      -1.877  -0.791  -1.335  0.00  0.00    -0.286 N 
ATOM      7  C   UNL     1      -1.624  -1.617  -2.405  0.00  0.00    +0.076 A 
ATOM      8  C   UNL     1      -0.783  -2.702  -2.614  0.00  0.00    +0.077 A 
ATOM      9  C   UNL     1      -0.768  -3.333  -3.843  0.00  0.00    +0.164 A 
ATOM     10  C   UNL     1      -1.589  -2.890  -4.875  0.00  0.00    +0.164 A 
ATOM     11  C   UNL     1      -2.429  -1.812  -4.686  0.00  0.00    +0.079 A 
ATOM     12  C   UNL     1      -2.455  -1.163  -3.447  0.00  0.00    +0.095 A 
ATOM     13  N   UNL     1      -3.165  -0.097  -2.969  0.00  0.00    -0.212 NA
ATOM     14  O   UNL     1      -1.561  -3.529  -6.082  0.00  0.00    -0.488 OA
ATOM     15  C   UNL     1      -0.357  -3.385  -6.838  0.00  0.00    +0.232 C 
ATOM     16  C   UNL     1       0.681  -4.405  -6.400  0.00  0.00    +0.082 C 
ATOM     17  C   UNL     1       1.136  -4.188  -4.965  0.00  0.00    +0.232 C 
ATOM     18  O   UNL     1       0.058  -4.402  -4.053  0.00  0.00    -0.488 OA
ATOM     19  N   UNL     1      -3.409   1.924   1.289  0.00  0.00    -0.332 N 
ATOM     20  H   UNL     1      -2.400  -0.419   1.798  0.00  0.00    +0.151 HD
ATOM     21  H   UNL     1      -3.184   1.857   2.230  0.00  0.00    +0.145 HD
ATOM     22  H   UNL     1      -3.925   2.680   0.966  0.00  0.00    +0.145 HD
ATOM     23  H   UNL     1      -3.866   1.790  -1.180  0.00  0.00    +0.171 HD
ENDROOT
BRANCH   1  29
ATOM     24  C   UNL     1      -0.017   1.378   0.010  0.00  0.00    +0.009 A 
ATOM     25  C   UNL     1       1.171   2.086   0.002  0.00  0.00    +0.022 A 
ATOM     26  C   UNL     1       2.378   1.410  -0.013  0.00  0.00    +0.071 A 
ATOM     27  C   UNL     1       2.396   0.027  -0.021  0.00  0.00    +0.145 A 
ATOM     28  C   UNL     1       1.208  -0.680  -0.013  0.00  0.00    +0.041 A 
ATOM     29  C   UNL     1       0.002  -0.004   0.002  0.00  0.00    -0.005 A 
ATOM     30 CL   UNL     1       3.870   2.298  -0.023  0.00  0.00    -0.081 Cl
BRANCH  27  31
ATOM     31  N   UNL     1       3.687  -0.696  -0.037  0.00  0.00    +0.058 N 
ATOM     32  O   UNL     1       3.703  -1.905  -0.044  0.00  0.00    -0.126 OA
ATOM     33  O   UNL     1       4.726  -0.078  -0.044  0.00  0.00    -0.126 OA
ENDBRANCH  27  31
ENDBRANCH   1  29
TORSDOF 2
