REMARK  Name = ZINC65265846
REMARK  5 active torsions:
REMARK  status: ('A' for Active; 'I' for Inactive)
REMARK    1  A    between atoms: C_1  and  C_2
REMARK    2  A    between atoms: N_4  and  C_5
REMARK    3  A    between atoms: C_5  and  C_6
REMARK    4  A    between atoms: N_23  and  C_24
REMARK    5  A    between atoms: C_24  and  C_25
REMARK                            x       y       z     vdW  Elec       q    Type
REMARK                         _______ _______ _______ _____ _____    ______ ____
ROOT
ATOM      1  C   UNL     1      -2.595  -2.663  -0.025  0.00  0.00    +0.233 C 
ATOM      2  O   UNL     1      -3.535  -1.897  -0.011  0.00  0.00    -0.274 OA
ATOM      3  N   UNL     1      -2.811  -3.994  -0.021  0.00  0.00    -0.298 N 
ATOM      4  C   UNL     1      -1.765  -5.035  -0.030  0.00  0.00    +0.110 C 
ATOM      5  C   UNL     1      -2.442  -6.288   0.585  0.00  0.00    +0.050 C 
ATOM      6  C   UNL     1      -3.876  -6.160   0.038  0.00  0.00    +0.091 C 
ATOM      7  C   UNL     1      -4.129  -4.650  -0.001  0.00  0.00    +0.137 C 
ATOM      8  C   UNL     1      -4.864  -6.871   0.900  0.00  0.00    +0.095 C 
ATOM      9  N   UNL     1      -5.120  -8.184   0.590  0.00  0.00    -0.303 N 
ATOM     10  C   UNL     1      -6.135  -8.475  -0.317  0.00  0.00    +0.037 A 
ATOM     11  C   UNL     1      -7.042  -9.489  -0.042  0.00  0.00    +0.023 A 
ATOM     12  C   UNL     1      -8.042  -9.790  -0.946  0.00  0.00    +0.002 A 
ATOM     13  C   UNL     1      -8.129  -9.073  -2.126  0.00  0.00    +0.000 A 
ATOM     14  C   UNL     1      -7.231  -8.063  -2.396  0.00  0.00    +0.007 A 
ATOM     15  C   UNL     1      -6.223  -7.741  -1.493  0.00  0.00    -0.012 A 
ATOM     16  C   UNL     1      -5.316  -6.596  -1.865  0.00  0.00    +0.119 C 
ATOM     17  N   UNL     1      -3.961  -6.743  -1.320  0.00  0.00    -0.299 NA
ATOM     18  N   UNL     1      -5.449  -6.280   1.890  0.00  0.00    -0.371 N 
ATOM     19  H   UNL     1      -3.277  -6.329  -1.935  0.00  0.00    +0.123 HD
ATOM     20  H   UNL     1      -5.190  -5.379   2.140  0.00  0.00    +0.161 HD
ATOM     21  H   UNL     1      -4.602  -8.897   0.996  0.00  0.00    +0.153 HD
ENDROOT
BRANCH   1  22
ATOM     22  C   UNL     1      -1.187  -2.128  -0.047  0.00  0.00    +0.200 C 
BRANCH  22  26
ATOM     23  C   UNL     1      -0.104   1.544  -0.065  0.00  0.00    +0.109 C 
ATOM     24  C   UNL     1      -0.069   0.037  -0.065  0.00  0.00    +0.210 C 
ATOM     25  O   UNL     1       0.995  -0.545  -0.081  0.00  0.00    -0.276 OA
ATOM     26  N   UNL     1      -1.220  -0.664  -0.047  0.00  0.00    -0.307 N 
ATOM     27  H   UNL     1      -2.071  -0.198  -0.034  0.00  0.00    +0.149 HD
ENDBRANCH  22  26
ENDBRANCH   1  22
BRANCH  18  28
ATOM     28  C   UNL     1      -6.505  -6.971   2.635  0.00  0.00    +0.149 C 
BRANCH  28  29
ATOM     29  C   UNL     1      -7.019  -6.072   3.730  0.00  0.00    -0.028 A 
ATOM     30  C   UNL     1      -6.430  -6.099   4.980  0.00  0.00    +0.005 A 
ATOM     31  C   UNL     1      -6.901  -5.274   5.984  0.00  0.00    +0.000 A 
ATOM     32  C   UNL     1      -7.961  -4.421   5.737  0.00  0.00    +0.000 A 
ATOM     33  C   UNL     1      -8.549  -4.393   4.487  0.00  0.00    +0.000 A 
ATOM     34  C   UNL     1      -8.075  -5.215   3.481  0.00  0.00    +0.005 A 
ENDBRANCH  28  29
ENDBRANCH  18  28
TORSDOF 4
