REMARK  Name = ZINC09111653
REMARK  15 active torsions:
REMARK  status: ('A' for Active; 'I' for Inactive)
REMARK    1  A    between atoms: C_1  and  C_2
REMARK    2  A    between atoms: C_2  and  C_4
REMARK    3  A    between atoms: C_2  and  N_65
REMARK    4  A    between atoms: C_7  and  S_16
REMARK    5  A    between atoms: N_8  and  C_9
REMARK    6  A    between atoms: S_16  and  C_17
REMARK    7  A    between atoms: C_17  and  C_18
REMARK    8  A    between atoms: N_20  and  C_21
REMARK    9  A    between atoms: N_20  and  C_28
REMARK   10  A    between atoms: C_21  and  C_22
REMARK   11  A    between atoms: C_28  and  C_29
REMARK   12  A    between atoms: C_28  and  C_30
REMARK   13  A    between atoms: C_28  and  C_31
REMARK   14  A    between atoms: C_32  and  N_65
REMARK   15  A    between atoms: C_33  and  N_65
REMARK                            x       y       z     vdW  Elec       q    Type
REMARK                         _______ _______ _______ _____ _____    ______ ____
ROOT
ATOM      1  C   UNL     1       3.067  -0.668   7.608  0.00  0.00    +0.125 A 
ATOM      2  N   UNL     1       1.772  -0.599   7.487  0.00  0.00    -0.135 NA
ATOM      3  N   UNL     1       1.437  -0.708   6.251  0.00  0.00    -0.122 NA
ATOM      4  C   UNL     1       2.510  -0.855   5.508  0.00  0.00    +0.197 A 
ATOM      5  N   UNL     1       3.586  -0.839   6.352  0.00  0.00    -0.275 N 
ENDROOT
BRANCH   5   6
ATOM      6  C   UNL     1       4.939  -0.967   6.003  0.00  0.00    +0.050 A 
ATOM      7  C   UNL     1       5.667  -2.066   6.438  0.00  0.00    +0.029 A 
ATOM      8  C   UNL     1       6.997  -2.195   6.088  0.00  0.00    +0.040 A 
ATOM      9  C   UNL     1       7.607  -1.222   5.315  0.00  0.00    +0.124 A 
ATOM     10  C   UNL     1       6.884  -0.122   4.885  0.00  0.00    +0.040 A 
ATOM     11  C   UNL     1       5.552   0.007   5.228  0.00  0.00    +0.029 A 
ATOM     12  F   UNL     1       8.910  -1.346   4.979  0.00  0.00    -0.205 F 
ENDBRANCH   5   6
BRANCH   1  14
ATOM     13  C   UNL     1       3.710  -1.895   9.665  0.00  0.00    -0.005 C 
ATOM     14  C   UNL     1       3.850  -0.581   8.893  0.00  0.00    -0.003 C 
BRANCH  14  17
ATOM     15  C   UNL     1       4.072   0.639  10.972  0.00  0.00    -0.096 C 
ATOM     16  C   UNL     1       3.363   1.790   8.963  0.00  0.00    -0.096 C 
ATOM     17  N   UNL     1       3.303   0.519   9.715  0.00  0.00    +0.382 N 
ATOM     18  H   UNL     1       2.324   0.311   9.942  0.00  0.00    -0.082 HD
ENDBRANCH  14  17
ENDBRANCH   1  14
BRANCH   4  19
ATOM     19  S   UNL     1       2.554  -1.044   3.756  0.00  0.00    -0.076 S 
BRANCH  19  20
ATOM     20  C   UNL     1       0.783  -0.971   3.388  0.00  0.00    +0.173 C 
BRANCH  20  21
ATOM     21  C   UNL     1       0.573  -1.116   1.903  0.00  0.00    +0.227 C 
ATOM     22  O   UNL     1       1.504  -1.412   1.184  0.00  0.00    -0.275 OA
ATOM     23  N   UNL     1      -0.650  -0.916   1.372  0.00  0.00    -0.291 N 
BRANCH  23  24
ATOM     24  C   UNL     1      -1.792  -0.641   2.248  0.00  0.00    +0.029 C 
ATOM     25  C   UNL     1      -3.091  -0.802   1.457  0.00  0.00    +0.031 C 
ATOM     26  C   UNL     1      -1.783  -1.623   3.421  0.00  0.00    +0.031 C 
ATOM     27  C   UNL     1      -1.693   0.790   2.780  0.00  0.00    +0.031 C 
ENDBRANCH  23  24
BRANCH  23  28
ATOM     28  C   UNL     1      -0.837  -0.974  -0.080  0.00  0.00    +0.143 C 
BRANCH  28  29
ATOM     29  C   UNL     1      -0.524   0.372  -0.681  0.00  0.00    -0.030 A 
ATOM     30  C   UNL     1      -1.542   1.276  -0.920  0.00  0.00    +0.005 A 
ATOM     31  C   UNL     1      -1.254   2.512  -1.467  0.00  0.00    +0.000 A 
ATOM     32  C   UNL     1       0.051   2.841  -1.784  0.00  0.00    +0.000 A 
ATOM     33  C   UNL     1       1.069   1.935  -1.550  0.00  0.00    +0.000 A 
ATOM     34  C   UNL     1       0.781   0.700  -0.998  0.00  0.00    +0.005 A 
ENDBRANCH  28  29
ENDBRANCH  23  28
ENDBRANCH  20  21
ENDBRANCH  19  20
ENDBRANCH   4  19
TORSDOF 9
