REMARK  Name = ZINC24209133
REMARK  3 active torsions:
REMARK  status: ('A' for Active; 'I' for Inactive)
REMARK    1  A    between atoms: C_8  and  N_13
REMARK    2  A    between atoms: C_14  and  C_16
REMARK    3  A    between atoms: C_16  and  N_17
REMARK                            x       y       z     vdW  Elec       q    Type
REMARK                         _______ _______ _______ _____ _____    ______ ____
ROOT
ATOM      1  N   UNL     1       3.454  -2.039   0.670  0.00  0.00    -0.307 N 
ATOM      2  C   UNL     1       2.856  -3.106   0.105  0.00  0.00    +0.231 C 
ATOM      3  O   UNL     1       2.490  -3.054  -1.050  0.00  0.00    -0.274 OA
ATOM      4  H   UNL     1       3.747  -2.080   1.594  0.00  0.00    +0.149 HD
ENDROOT
BRANCH   1  12
ATOM      5  C   UNL     1      -0.017   1.381   0.010  0.00  0.00    +0.039 A 
ATOM      6  C   UNL     1       1.174   2.075   0.002  0.00  0.00    +0.018 A 
ATOM      7  C   UNL     1       2.392   1.396  -0.020  0.00  0.00    +0.013 A 
ATOM      8  C   UNL     1       2.415   0.014  -0.042  0.00  0.00    -0.011 A 
ATOM      9  C   UNL     1       1.206  -0.678  -0.022  0.00  0.00    +0.045 A 
ATOM     10  C   UNL     1       0.002  -0.004   0.002  0.00  0.00    +0.124 A 
ATOM     11  F   UNL     1      -1.159  -0.695   0.018  0.00  0.00    -0.205 F 
ATOM     12  C   UNL     1       3.662  -0.817  -0.111  0.00  0.00    +0.105 C 
ATOM     13  C   UNL     1       4.897  -0.109   0.420  0.00  0.00    +0.038 C 
ATOM     14  C   UNL     1       5.161   1.144  -0.427  0.00  0.00    +0.076 C 
ATOM     15  S   UNL     1       3.873   2.356  -0.008  0.00  0.00    -0.125 S 
ENDBRANCH   1  12
BRANCH   2  16
ATOM     16  C   UNL     1       2.642  -4.363   0.907  0.00  0.00    +0.213 C 
BRANCH  16  17
ATOM     17  N   UNL     1       1.978  -5.368   0.074  0.00  0.00    -0.215 N 
ATOM     18  C   UNL     1       0.639  -5.503  -0.029  0.00  0.00    +0.247 C 
ATOM     19  O   UNL     1      -0.210  -4.842   0.529  0.00  0.00    -0.273 OA
ATOM     20  C   UNL     1       0.422  -6.652  -0.987  0.00  0.00    +0.113 C 
ATOM     21  C   UNL     1      -0.338  -6.179  -2.221  0.00  0.00    +0.035 C 
ATOM     22  C   UNL     1      -0.521  -7.349  -3.191  0.00  0.00    +0.003 C 
ATOM     23  C   UNL     1      -1.293  -8.472  -2.494  0.00  0.00    +0.000 C 
ATOM     24  C   UNL     1      -0.507  -8.951  -1.272  0.00  0.00    +0.003 C 
ATOM     25  C   UNL     1      -0.324  -7.787  -0.295  0.00  0.00    +0.035 C 
ATOM     26  N   UNL     1       1.781  -7.075  -1.350  0.00  0.00    -0.285 N 
ATOM     27  C   UNL     1       2.623  -6.262  -0.685  0.00  0.00    +0.310 C 
ATOM     28  O   UNL     1       3.834  -6.335  -0.761  0.00  0.00    -0.252 OA
ATOM     29  H   UNL     1       2.023  -7.795  -1.954  0.00  0.00    +0.151 HD
ENDBRANCH  16  17
ENDBRANCH   2  16
TORSDOF 3
