REMARK  Name = ZINC08676832
REMARK  12 active torsions:
REMARK  status: ('A' for Active; 'I' for Inactive)
REMARK    1  A    between atoms: C_1  and  N_2
REMARK    2  A    between atoms: N_2  and  C_3
REMARK    3  A    between atoms: N_2  and  C_4
REMARK    4  A    between atoms: C_7  and  C_10
REMARK    5  A    between atoms: C_10  and  C_12
REMARK    6  A    between atoms: C_10  and  N_72
REMARK    7  A    between atoms: N_16  and  C_17
REMARK    8  A    between atoms: C_17  and  C_18
REMARK    9  A    between atoms: C_18  and  C_19
REMARK   10  A    between atoms: N_27  and  C_30
REMARK   11  A    between atoms: C_35  and  O_36
REMARK   12  A    between atoms: O_36  and  C_37
REMARK                            x       y       z     vdW  Elec       q    Type
REMARK                         _______ _______ _______ _____ _____    ______ ____
ROOT
ATOM      1  C   UNL     1       3.708   0.767  -0.152  0.00  0.00    +0.033 C 
ENDROOT
BRANCH   1   7
ATOM      2  C   UNL     1       5.642   1.696   0.970  0.00  0.00    -0.058 C 
ATOM      3  C   UNL     1       6.101   2.789   1.938  0.00  0.00    +0.086 C 
ATOM      4  N   UNL     1       5.440   2.600   3.236  0.00  0.00    -0.331 N 
ATOM      5  C   UNL     1       3.979   2.658   3.094  0.00  0.00    +0.086 C 
ATOM      6  C   UNL     1       3.520   1.564   2.127  0.00  0.00    -0.058 C 
ATOM      7  N   UNL     1       4.174   1.779   0.819  0.00  0.00    +0.391 N 
ATOM      8  H   UNL     1       3.927   2.713   0.472  0.00  0.00    -0.080 HD
BRANCH   4   9
ATOM      9  C   UNL     1       5.891   3.540   4.170  0.00  0.00    +0.072 A 
ATOM     10  C   UNL     1       6.677   4.606   3.760  0.00  0.00    +0.027 A 
ATOM     11  C   UNL     1       7.117   5.536   4.683  0.00  0.00    +0.002 A 
ATOM     12  C   UNL     1       6.783   5.401   6.018  0.00  0.00    +0.004 A 
ATOM     13  C   UNL     1       6.004   4.338   6.435  0.00  0.00    +0.047 A 
ATOM     14  C   UNL     1       5.555   3.404   5.516  0.00  0.00    +0.141 A 
BRANCH  14  15
ATOM     15  O   UNL     1       4.789   2.357   5.925  0.00  0.00    -0.493 OA
ATOM     16  C   UNL     1       4.485   2.283   7.319  0.00  0.00    +0.277 C 
ENDBRANCH  14  15
ENDBRANCH   4   9
ENDBRANCH   1   7
BRANCH   1  20
ATOM     17  C   UNL     1       5.688   1.405  -3.886  0.00  0.00    +0.029 A 
ATOM     18  C   UNL     1       5.463   0.113  -3.429  0.00  0.00    +0.023 A 
ATOM     19  C   UNL     1       4.822  -0.090  -2.222  0.00  0.00    +0.004 A 
ATOM     20  C   UNL     1       4.406   0.992  -1.469  0.00  0.00    -0.054 A 
ATOM     21  C   UNL     1       4.623   2.280  -1.923  0.00  0.00    +0.004 A 
ATOM     22  C   UNL     1       5.268   2.490  -3.126  0.00  0.00    +0.023 A 
BRANCH  17  24
ATOM     23  C   UNL     1       6.776   0.469  -5.906  0.00  0.00    +0.129 C 
ATOM     24  N   UNL     1       6.334   1.614  -5.106  0.00  0.00    -0.336 N 
ATOM     25  C   UNL     1       6.571   2.978  -5.586  0.00  0.00    +0.129 C 
ENDBRANCH  17  24
ENDBRANCH   1  20
BRANCH   1  26
ATOM     26  C   UNL     1       2.220   0.918  -0.340  0.00  0.00    +0.142 A 
ATOM     27  N   UNL     1       1.561   2.041  -0.492  0.00  0.00    -0.115 NA
ATOM     28  N   UNL     1       0.311   1.754  -0.623  0.00  0.00    -0.023 NA
ATOM     29  N   UNL     1       0.157   0.478  -0.558  0.00  0.00    -0.044 NA
ATOM     30  N   UNL     1       1.310  -0.073  -0.384  0.00  0.00    -0.230 N 
BRANCH  30  31
ATOM     31  C   UNL     1       1.580  -1.507  -0.257  0.00  0.00    +0.152 C 
BRANCH  31  32
ATOM     32  C   UNL     1       1.844  -2.101  -1.643  0.00  0.00    +0.058 C 
BRANCH  32  33
ATOM     33  C   UNL     1       2.121  -3.576  -1.512  0.00  0.00    -0.046 A 
ATOM     34  C   UNL     1       3.417  -4.023  -1.334  0.00  0.00    +0.004 A 
ATOM     35  C   UNL     1       3.671  -5.376  -1.209  0.00  0.00    +0.000 A 
ATOM     36  C   UNL     1       2.630  -6.283  -1.274  0.00  0.00    +0.000 A 
ATOM     37  C   UNL     1       1.334  -5.837  -1.458  0.00  0.00    +0.000 A 
ATOM     38  C   UNL     1       1.080  -4.483  -1.577  0.00  0.00    +0.004 A 
ENDBRANCH  32  33
ENDBRANCH  31  32
ENDBRANCH  30  31
ENDBRANCH   1  26
TORSDOF 9
