REMARK  Name = ZINC38979065
REMARK  6 active torsions:
REMARK  status: ('A' for Active; 'I' for Inactive)
REMARK    1  A    between atoms: C_1  and  O_2
REMARK    2  A    between atoms: O_2  and  C_3
REMARK    3  A    between atoms: C_7  and  C_9
REMARK    4  A    between atoms: N_15  and  N_16
REMARK    5  A    between atoms: C_17  and  C_18
REMARK    6  A    between atoms: C_23  and  O_24
REMARK                            x       y       z     vdW  Elec       q    Type
REMARK                         _______ _______ _______ _____ _____    ______ ____
ROOT
ATOM      1  C   UNL     1      -2.545  -4.311   0.091  0.00  0.00    +0.264 C 
ATOM      2  N   UNL     1      -1.417  -4.721  -0.759  0.00  0.00    -0.189 NA
ATOM      3  N   UNL     1      -1.873  -5.142  -1.825  0.00  0.00    -0.219 N 
ATOM      4  C   UNL     1      -3.231  -5.099  -1.886  0.00  0.00    +0.174 C 
ATOM      5  S   UNL     1      -4.169  -5.609  -3.224  0.00  0.00    -0.015 S 
ATOM      6  N   UNL     1      -3.734  -4.596  -0.733  0.00  0.00    -0.172 N 
ATOM      7  H   UNL     1      -1.317  -5.471  -2.549  0.00  0.00    +0.176 HD
ENDROOT
BRANCH   1  12
ATOM      8  C   UNL     1      -1.151  -0.880   0.844  0.00  0.00    +0.120 A 
ATOM      9  C   UNL     1      -2.314  -0.137   0.989  0.00  0.00    +0.045 A 
ATOM     10  C   UNL     1      -3.545  -0.747   0.843  0.00  0.00    +0.004 A 
ATOM     11  C   UNL     1      -3.618  -2.097   0.552  0.00  0.00    +0.007 A 
ATOM     12  C   UNL     1      -2.461  -2.839   0.407  0.00  0.00    +0.001 A 
ATOM     13  C   UNL     1      -1.228  -2.233   0.547  0.00  0.00    +0.053 A 
BRANCH   8  15
ATOM     14  C   UNL     1       0.064   1.114   1.292  0.00  0.00    +0.277 C 
ATOM     15  O   UNL     1       0.061  -0.282   0.986  0.00  0.00    -0.495 OA
ENDBRANCH   8  15
ENDBRANCH   1  12
BRANCH   6  16
ATOM     16  N   UNL     1      -5.079  -4.391  -0.399  0.00  0.00    -0.183 NA
ATOM     17  C   UNL     1      -6.017  -4.800  -1.198  0.00  0.00    +0.142 C 
BRANCH  17  18
ATOM     18  C   UNL     1      -7.421  -4.443  -0.931  0.00  0.00    +0.037 A 
ATOM     19  C   UNL     1      -8.434  -4.886  -1.785  0.00  0.00    +0.028 A 
ATOM     20  C   UNL     1      -9.746  -4.548  -1.528  0.00  0.00    +0.019 A 
ATOM     21  C   UNL     1     -10.065  -3.772  -0.426  0.00  0.00    +0.019 A 
ATOM     22  C   UNL     1      -9.072  -3.328   0.427  0.00  0.00    +0.047 A 
ATOM     23  C   UNL     1      -7.749  -3.662   0.186  0.00  0.00    +0.126 A 
ATOM     24 BR   UNL     1     -11.117  -5.148  -2.685  0.00  0.00    -0.050 Br
BRANCH  23  25
ATOM     25  O   UNL     1      -6.773  -3.231   1.027  0.00  0.00    -0.506 OA
ATOM     26  H   UNL     1      -6.397  -2.373   0.785  0.00  0.00    +0.292 HD
ENDBRANCH  23  25
ENDBRANCH  17  18
ENDBRANCH   6  16
TORSDOF 5
