REMARK  Name = ZINC20790579
REMARK  10 active torsions:
REMARK  status: ('A' for Active; 'I' for Inactive)
REMARK    1  A    between atoms: N_13  and  C_14
REMARK    2  A    between atoms: C_14  and  C_15
REMARK    3  A    between atoms: C_15  and  C_17
REMARK    4  A    between atoms: C_15  and  O_42
REMARK    5  A    between atoms: C_17  and  N_18
REMARK    6  A    between atoms: N_21  and  C_24
REMARK    7  A    between atoms: C_24  and  C_25
REMARK    8  A    between atoms: C_25  and  C_27
REMARK    9  A    between atoms: C_25  and  O_41
REMARK   10  A    between atoms: C_27  and  C_28
REMARK                            x       y       z     vdW  Elec       q    Type
REMARK                         _______ _______ _______ _____ _____    ______ ____
ROOT
ATOM      1  N   UNL     1      -1.129   1.817   1.441  0.00  0.00    -0.297 NA
ATOM      2  C   UNL     1      -0.764   1.287   0.120  0.00  0.00    +0.100 C 
ATOM      3  C   UNL     1      -1.714   1.857  -0.937  0.00  0.00    +0.100 C 
ATOM      4  N   UNL     1      -1.637   3.324  -0.921  0.00  0.00    -0.297 NA
ATOM      5  C   UNL     1      -2.003   3.854   0.400  0.00  0.00    +0.100 C 
ATOM      6  C   UNL     1      -1.052   3.285   1.456  0.00  0.00    +0.100 C 
ENDROOT
BRANCH   1   7
ATOM      7  C   UNL     1      -0.286   1.235   2.493  0.00  0.00    +0.117 C 
BRANCH   7   8
ATOM      8  C   UNL     1      -0.634   1.875   3.838  0.00  0.00    +0.148 C 
BRANCH   8   9
ATOM      9  O   UNL     1      -1.994   1.582   4.168  0.00  0.00    -0.389 OA
ATOM     10  H   UNL     1      -2.804   1.910   3.500  0.00  0.00    +0.210 HD
ENDBRANCH   8   9
BRANCH   8  11
ATOM     11  C   UNL     1       0.286   1.313   4.924  0.00  0.00    +0.155 C 
BRANCH  11  24
ATOM     12  C   UNL     1       1.667   5.408   7.908  0.00  0.00    +0.001 A 
ATOM     13  C   UNL     1       2.171   5.042   6.669  0.00  0.00    +0.002 A 
ATOM     14  C   UNL     1       1.690   3.927   6.018  0.00  0.00    +0.026 A 
ATOM     15  C   UNL     1       0.690   3.155   6.603  0.00  0.00    +0.050 A 
ATOM     16  C   UNL     1       0.179   3.529   7.855  0.00  0.00    +0.008 A 
ATOM     17  C   UNL     1       0.671   4.661   8.500  0.00  0.00    +0.010 A 
ATOM     18  C   UNL     1      -0.845   2.527   8.204  0.00  0.00    +0.008 A 
ATOM     19  C   UNL     1      -1.684   2.358   9.303  0.00  0.00    +0.010 A 
ATOM     20  C   UNL     1      -2.559   1.294   9.339  0.00  0.00    +0.001 A 
ATOM     21  C   UNL     1      -2.605   0.392   8.286  0.00  0.00    +0.002 A 
ATOM     22  C   UNL     1      -1.781   0.548   7.193  0.00  0.00    +0.026 A 
ATOM     23  C   UNL     1      -0.891   1.617   7.138  0.00  0.00    +0.050 A 
ATOM     24  N   UNL     1       0.034   2.011   6.187  0.00  0.00    -0.337 N 
ENDBRANCH  11  24
ENDBRANCH   8  11
ENDBRANCH   7   8
ENDBRANCH   1   7
BRANCH   4  25
ATOM     25  C   UNL     1      -2.479   3.906  -1.974  0.00  0.00    +0.115 C 
BRANCH  25  26
ATOM     26  C   UNL     1      -1.912   3.535  -3.345  0.00  0.00    +0.129 C 
BRANCH  26  27
ATOM     27  O   UNL     1      -0.623   4.132  -3.505  0.00  0.00    -0.390 OA
ATOM     28  H   UNL     1      -0.056   3.975  -4.435  0.00  0.00    +0.210 HD
ENDBRANCH  26  27
BRANCH  26  29
ATOM     29  C   UNL     1      -2.850   4.046  -4.441  0.00  0.00    +0.045 C 
BRANCH  29  30
ATOM     30  C   UNL     1      -2.305   3.637  -5.811  0.00  0.00    +0.053 C 
ATOM     31  C   UNL     1      -3.175   4.202  -6.906  0.00  0.00    -0.032 A 
ATOM     32  C   UNL     1      -3.499   5.496  -7.256  0.00  0.00    +0.005 A 
ATOM     33  C   UNL     1      -4.338   5.733  -8.330  0.00  0.00    +0.000 A 
ATOM     34  C   UNL     1      -4.854   4.674  -9.055  0.00  0.00    +0.001 A 
ATOM     35  C   UNL     1      -4.536   3.373  -8.711  0.00  0.00    +0.009 A 
ATOM     36  C   UNL     1      -3.689   3.127  -7.629  0.00  0.00    -0.014 A 
ATOM     37  C   UNL     1      -3.187   1.857  -7.050  0.00  0.00    -0.014 A 
ATOM     38  C   UNL     1      -2.360   2.137  -5.965  0.00  0.00    -0.032 A 
ATOM     39  C   UNL     1      -1.769   1.111  -5.258  0.00  0.00    +0.005 A 
ATOM     40  C   UNL     1      -1.996  -0.204  -5.625  0.00  0.00    +0.000 A 
ATOM     41  C   UNL     1      -2.816  -0.492  -6.701  0.00  0.00    +0.001 A 
ATOM     42  C   UNL     1      -3.411   0.528  -7.414  0.00  0.00    +0.009 A 
ENDBRANCH  29  30
ENDBRANCH  26  29
ENDBRANCH  25  26
ENDBRANCH   4  25
TORSDOF 10
