REMARK  Name = ZINC39210936
REMARK  3 active torsions:
REMARK  status: ('A' for Active; 'I' for Inactive)
REMARK    1  A    between atoms: C_1  and  C_2
REMARK    2  A    between atoms: C_17  and  C_19
REMARK    3  A    between atoms: C_17  and  C_25
REMARK                            x       y       z     vdW  Elec       q    Type
REMARK                         _______ _______ _______ _____ _____    ______ ____
ROOT
ATOM      1  C   UNL     1       0.932   0.999  -0.364  0.00  0.00    +0.045 C 
ATOM      2  C   UNL     1       0.555  -0.444  -0.151  0.00  0.00    -0.033 A 
ATOM      3  C   UNL     1       0.405  -1.276  -1.205  0.00  0.00    +0.029 A 
ATOM      4  C   UNL     1       0.038  -2.677  -0.969  0.00  0.00    +0.035 A 
ATOM      5  N   UNL     1      -0.154  -3.143   0.330  0.00  0.00    -0.323 N 
ATOM      6  C   UNL     1      -0.007  -2.325   1.387  0.00  0.00    +0.260 A 
ATOM      7  O   UNL     1      -0.180  -2.757   2.513  0.00  0.00    -0.267 OA
ATOM      8  C   UNL     1       0.353  -0.967   1.205  0.00  0.00    +0.078 A 
ATOM      9  C   UNL     1       0.509  -0.129   2.311  0.00  0.00    +0.102 C 
ATOM     10  N   UNL     1       0.709   1.228   2.179  0.00  0.00    -0.302 N 
ATOM     11  C   UNL     1       1.553   1.859   3.103  0.00  0.00    +0.038 A 
ATOM     12  C   UNL     1       1.949   3.173   2.882  0.00  0.00    +0.023 A 
ATOM     13  C   UNL     1       2.771   3.808   3.791  0.00  0.00    +0.002 A 
ATOM     14  C   UNL     1       3.199   3.136   4.922  0.00  0.00    +0.000 A 
ATOM     15  C   UNL     1       2.811   1.828   5.142  0.00  0.00    +0.008 A 
ATOM     16  C   UNL     1       1.992   1.183   4.232  0.00  0.00    +0.006 A 
ATOM     17  C   UNL     1       1.602  -0.253   4.478  0.00  0.00    +0.111 C 
ATOM     18  N   UNL     1       0.468  -0.605   3.605  0.00  0.00    -0.314 N 
ATOM     19  C   UNL     1      -0.115  -3.513  -2.009  0.00  0.00    +0.036 C 
ATOM     20  H   UNL     1      -0.273  -1.146   3.922  0.00  0.00    +0.149 HD
ATOM     21  H   UNL     1       0.279   1.731   1.469  0.00  0.00    +0.153 HD
ATOM     22  H   UNL     1      -0.397  -4.071   0.474  0.00  0.00    +0.169 HD
ENDROOT
BRANCH  17  23
ATOM     23  C   UNL     1       2.773  -1.151   4.175  0.00  0.00    -0.015 A 
ATOM     24  C   UNL     1       2.820  -2.428   4.703  0.00  0.00    +0.006 A 
ATOM     25  C   UNL     1       3.894  -3.252   4.424  0.00  0.00    +0.000 A 
ATOM     26  C   UNL     1       4.922  -2.799   3.617  0.00  0.00    +0.000 A 
ATOM     27  C   UNL     1       4.874  -1.523   3.088  0.00  0.00    +0.000 A 
ATOM     28  C   UNL     1       3.798  -0.701   3.363  0.00  0.00    +0.006 A 
ENDBRANCH  17  23
BRANCH  17  29
ATOM     29  C   UNL     1       1.196  -0.424   5.919  0.00  0.00    -0.015 A 
ATOM     30  C   UNL     1       2.158  -0.646   6.887  0.00  0.00    +0.006 A 
ATOM     31  C   UNL     1       1.786  -0.803   8.209  0.00  0.00    +0.000 A 
ATOM     32  C   UNL     1       0.451  -0.738   8.563  0.00  0.00    +0.000 A 
ATOM     33  C   UNL     1      -0.511  -0.515   7.596  0.00  0.00    +0.000 A 
ATOM     34  C   UNL     1      -0.138  -0.353   6.274  0.00  0.00    +0.006 A 
ENDBRANCH  17  29
TORSDOF 2
