REMARK  Name = ZINC17445620
REMARK  10 active torsions:
REMARK  status: ('A' for Active; 'I' for Inactive)
REMARK    1  A    between atoms: C_1  and  C_2
REMARK    2  A    between atoms: C_5  and  S_8
REMARK    3  A    between atoms: S_8  and  N_11
REMARK    4  A    between atoms: N_11  and  C_12
REMARK    5  A    between atoms: N_11  and  C_13
REMARK    6  A    between atoms: C_16  and  O_19
REMARK    7  A    between atoms: O_19  and  C_20
REMARK    8  A    between atoms: C_20  and  C_21
REMARK    9  A    between atoms: N_23  and  N_24
REMARK   10  A    between atoms: C_25  and  C_27
REMARK                            x       y       z     vdW  Elec       q    Type
REMARK                         _______ _______ _______ _____ _____    ______ ____
ROOT
ATOM      1  C   UNL     1       8.979   2.355   0.208  0.00  0.00    +0.051 A 
ATOM      2  C   UNL     1       8.999   0.970   0.303  0.00  0.00    +0.028 A 
ATOM      3  C   UNL     1       7.831   0.278   0.554  0.00  0.00    +0.047 A 
ATOM      4  C   UNL     1       6.637   0.966   0.710  0.00  0.00    +0.121 A 
ATOM      5  C   UNL     1       6.614   2.349   0.610  0.00  0.00    +0.047 A 
ATOM      6  C   UNL     1       7.783   3.043   0.365  0.00  0.00    +0.028 A 
ENDROOT
BRANCH   1   7
ATOM      7  N   UNL     1      10.162   3.057  -0.046  0.00  0.00    -0.206 N 
ATOM      8  C   UNL     1      11.453   2.484   0.345  0.00  0.00    +0.157 C 
BRANCH   7   9
ATOM      9  S   UNL     1      10.105   4.536  -0.789  0.00  0.00    +0.074 S 
ATOM     10  O   UNL     1      11.358   4.716  -1.434  0.00  0.00    -0.150 OA
ATOM     11  O   UNL     1       8.871   4.590  -1.492  0.00  0.00    -0.150 OA
BRANCH   9  16
ATOM     12  C   UNL     1       9.791   8.706   3.561  0.00  0.00    +0.044 C 
ATOM     13  C   UNL     1       9.869   7.665   2.475  0.00  0.00    -0.050 A 
ATOM     14  C   UNL     1      11.095   7.146   2.102  0.00  0.00    +0.005 A 
ATOM     15  C   UNL     1      11.167   6.191   1.105  0.00  0.00    +0.029 A 
ATOM     16  C   UNL     1      10.013   5.754   0.482  0.00  0.00    +0.109 A 
ATOM     17  C   UNL     1       8.788   6.276   0.852  0.00  0.00    +0.029 A 
ATOM     18  C   UNL     1       8.715   7.228   1.851  0.00  0.00    +0.005 A 
ENDBRANCH   9  16
ENDBRANCH   7   9
ENDBRANCH   1   7
BRANCH   4  19
ATOM     19  O   UNL     1       5.486   0.284   0.957  0.00  0.00    -0.483 OA
BRANCH  19  20
ATOM     20  C   UNL     1       4.293   1.056   1.107  0.00  0.00    +0.326 C 
BRANCH  20  21
ATOM     21  C   UNL     1       3.130   0.137   1.373  0.00  0.00    +0.267 C 
ATOM     22  O   UNL     1       3.304  -1.062   1.428  0.00  0.00    -0.271 OA
ATOM     23  N   UNL     1       1.895   0.646   1.550  0.00  0.00    -0.231 N 
ATOM     24  H   UNL     1       1.755   1.605   1.506  0.00  0.00    +0.173 HD
BRANCH  23  25
ATOM     25  N   UNL     1       0.813  -0.209   1.797  0.00  0.00    -0.230 N 
ATOM     26  C   UNL     1      -0.423   0.301   1.968  0.00  0.00    +0.267 C 
ATOM     27  O   UNL     1      -0.599   1.504   1.913  0.00  0.00    -0.268 OA
ATOM     28  H   UNL     1       0.952  -1.167   1.841  0.00  0.00    +0.173 HD
BRANCH  26  29
ATOM     29  C   UNL     1      -1.556  -0.594   2.220  0.00  0.00    +0.076 A 
ATOM     30  C   UNL     1      -2.885  -0.281   2.420  0.00  0.00    +0.024 A 
ATOM     31  C   UNL     1      -3.782  -1.326   2.643  0.00  0.00    -0.036 A 
ATOM     32  C   UNL     1      -3.267  -2.584   2.647  0.00  0.00    -0.006 A 
ATOM     33  S   UNL     1      -1.579  -2.373   2.341  0.00  0.00    -0.088 S 
ATOM     34  C   UNL     1      -4.325  -3.623   2.901  0.00  0.00    +0.043 C 
ATOM     35  C   UNL     1      -5.514  -2.833   3.490  0.00  0.00    +0.010 C 
ATOM     36  C   UNL     1      -5.289  -1.429   2.898  0.00  0.00    +0.036 C 
ENDBRANCH  26  29
ENDBRANCH  23  25
ENDBRANCH  20  21
ENDBRANCH  19  20
ENDBRANCH   4  19
TORSDOF 8
