REMARK  Name = ZINC20489813
REMARK  10 active torsions:
REMARK  status: ('A' for Active; 'I' for Inactive)
REMARK    1  A    between atoms: C_1  and  N_2
REMARK    2  A    between atoms: N_2  and  C_3
REMARK    3  A    between atoms: N_2  and  C_26
REMARK    4  A    between atoms: C_3  and  C_4
REMARK    5  A    between atoms: C_4  and  C_5
REMARK    6  A    between atoms: C_5  and  N_6
REMARK    7  A    between atoms: C_7  and  C_9
REMARK    8  A    between atoms: C_9  and  C_10
REMARK    9  A    between atoms: C_10  and  C_11
REMARK   10  A    between atoms: C_11  and  N_12
REMARK                            x       y       z     vdW  Elec       q    Type
REMARK                         _______ _______ _______ _____ _____    ______ ____
ROOT
ATOM      1  C   UNL     1       7.666   2.552   3.670  0.00  0.00    +0.097 C 
ENDROOT
BRANCH   1   3
ATOM      2  N   UNL     1       5.496   2.090   2.575  0.00  0.00    -0.315 N 
ATOM      3  C   UNL     1       6.350   1.823   3.583  0.00  0.00    +0.213 C 
ATOM      4  O   UNL     1       6.059   0.995   4.420  0.00  0.00    -0.276 OA
ATOM      5  H   UNL     1       5.760   2.841   1.815  0.00  0.00    +0.149 HD
BRANCH   2   6
ATOM      6  C   UNL     1       4.217   1.381   2.491  0.00  0.00    +0.102 C 
BRANCH   6   7
ATOM      7  C   UNL     1       3.444   1.868   1.264  0.00  0.00    +0.000 C 
BRANCH   7   8
ATOM      8  C   UNL     1       2.108   1.127   1.176  0.00  0.00    -0.077 C 
BRANCH   8  10
ATOM      9  C   UNL     1       2.056   1.218  -1.243  0.00  0.00    -0.096 C 
ATOM     10  N   UNL     1       1.365   1.594  -0.002  0.00  0.00    +0.380 N 
ATOM     11  H   UNL     1       1.321   2.693   0.040  0.00  0.00    -0.082 HD
BRANCH  10  12
ATOM     12  C   UNL     1      -0.013   1.086   0.008  0.00  0.00    -0.069 C 
ATOM     13  C   UNL     1      -0.729   1.579   1.267  0.00  0.00    -0.015 C 
ATOM     14  C   UNL     1      -2.164   1.050   1.278  0.00  0.00    -0.002 C 
ATOM     15  C   UNL     1      -2.904   1.556   0.038  0.00  0.00    -0.000 C 
ATOM     16  C   UNL     1      -2.188   1.063  -1.221  0.00  0.00    -0.002 C 
ATOM     17  C   UNL     1      -0.753   1.593  -1.232  0.00  0.00    -0.015 C 
ENDBRANCH  10  12
ENDBRANCH   8  10
ENDBRANCH   7   8
ENDBRANCH   6   7
ENDBRANCH   2   6
ENDBRANCH   1   3
BRANCH   1  18
ATOM     18  C   UNL     1       8.439   2.065   4.896  0.00  0.00    +0.031 C 
BRANCH  18  19
ATOM     19  C   UNL     1       9.775   2.806   4.984  0.00  0.00    +0.126 C 
BRANCH  19  20
ATOM     20  N   UNL     1      10.515   2.340   6.159  0.00  0.00    -0.305 N 
ATOM     21  C   UNL     1      11.388   1.257   6.043  0.00  0.00    +0.069 A 
ATOM     22  C   UNL     1      11.547   0.630   4.813  0.00  0.00    +0.028 A 
ATOM     23  C   UNL     1      12.408  -0.442   4.690  0.00  0.00    +0.002 A 
ATOM     24  C   UNL     1      13.116  -0.897   5.789  0.00  0.00    +0.002 A 
ATOM     25  C   UNL     1      12.965  -0.281   7.016  0.00  0.00    +0.028 A 
ATOM     26  C   UNL     1      12.101   0.798   7.150  0.00  0.00    +0.070 A 
ATOM     27  N   UNL     1      11.951   1.420   8.394  0.00  0.00    -0.310 N 
ATOM     28  C   UNL     1      12.512   1.180   9.605  0.00  0.00    +0.092 A 
ATOM     29  C   UNL     1      12.028   2.076  10.499  0.00  0.00    +0.020 A 
ATOM     30  C   UNL     1      11.130   2.911   9.828  0.00  0.00    +0.033 A 
ATOM     31  C   UNL     1      11.091   2.491   8.517  0.00  0.00    +0.112 A 
ATOM     32  C   UNL     1      10.353   2.963   7.343  0.00  0.00    +0.276 A 
ATOM     33  O   UNL     1       9.595   3.911   7.438  0.00  0.00    -0.265 OA
ENDBRANCH  19  20
ENDBRANCH  18  19
ENDBRANCH   1  18
TORSDOF 9
