REMARK  Name = ZINC39665721
REMARK  11 active torsions:
REMARK  status: ('A' for Active; 'I' for Inactive)
REMARK    1  A    between atoms: C_1  and  C_2
REMARK    2  A    between atoms: C_2  and  C_4
REMARK    3  A    between atoms: C_2  and  O_30
REMARK    4  A    between atoms: C_4  and  N_5
REMARK    5  A    between atoms: C_6  and  C_8
REMARK    6  A    between atoms: C_19  and  C_21
REMARK    7  A    between atoms: C_21  and  O_22
REMARK    8  A    between atoms: O_22  and  C_23
REMARK    9  A    between atoms: O_30  and  C_31
REMARK   10  A    between atoms: C_34  and  O_37
REMARK   11  A    between atoms: O_37  and  C_38
REMARK                            x       y       z     vdW  Elec       q    Type
REMARK                         _______ _______ _______ _____ _____    ______ ____
ROOT
ATOM      1  C   UNL     1      -3.163  -3.757  -0.535  0.00  0.00    +0.100 C 
ATOM      2  C   UNL     1      -2.533  -4.167  -1.885  0.00  0.00    +0.121 C 
ATOM      3  N   UNL     1      -3.441  -5.209  -2.420  0.00  0.00    -0.297 N 
ATOM      4  C   UNL     1      -4.800  -4.726  -2.076  0.00  0.00    +0.115 C 
ATOM      5  C   UNL     1      -4.650  -4.125  -0.665  0.00  0.00    -0.004 C 
ATOM      6  C   UNL     1      -5.517  -2.876  -0.529  0.00  0.00    -0.010 C 
ATOM      7  C   UNL     1      -6.994  -3.275  -0.603  0.00  0.00    -0.082 C 
ATOM      8  N   UNL     1      -7.300  -4.227   0.471  0.00  0.00    +0.379 N 
ATOM      9  C   UNL     1      -6.530  -5.462   0.281  0.00  0.00    -0.082 C 
ATOM     10  C   UNL     1      -5.034  -5.156   0.392  0.00  0.00    -0.010 C 
ATOM     11  C   UNL     1      -3.106  -6.340  -3.072  0.00  0.00    +0.253 C 
ATOM     12  O   UNL     1      -3.972  -7.100  -3.452  0.00  0.00    -0.272 OA
ATOM     13  H   UNL     1      -7.059  -3.816   1.361  0.00  0.00    -0.086 HD
ATOM     14  H   UNL     1      -8.286  -4.441   0.458  0.00  0.00    -0.086 HD
ENDROOT
BRANCH   1  16
ATOM     15  N   UNL     1      -2.934  -1.786   0.943  0.00  0.00    -0.312 N 
ATOM     16  C   UNL     1      -3.006  -2.275  -0.311  0.00  0.00    +0.218 C 
ATOM     17  O   UNL     1      -2.945  -1.522  -1.260  0.00  0.00    -0.275 OA
ATOM     18  H   UNL     1      -2.983  -2.389   1.702  0.00  0.00    +0.149 HD
BRANCH  15  19
ATOM     19  C   UNL     1      -2.782  -0.345   1.160  0.00  0.00    +0.148 C 
BRANCH  19  21
ATOM     20  C   UNL     1      -2.568   1.446   2.889  0.00  0.00    +0.053 C 
ATOM     21  C   UNL     1      -2.727  -0.059   2.662  0.00  0.00    +0.187 C 
BRANCH  21  22
ATOM     22  O   UNL     1      -3.936  -0.508   3.277  0.00  0.00    -0.488 OA
BRANCH  22  23
ATOM     23  C   UNL     1      -3.876  -0.822   4.599  0.00  0.00    +0.121 A 
ATOM     24  C   UNL     1      -4.981  -1.372   5.232  0.00  0.00    +0.049 A 
ATOM     25  C   UNL     1      -4.920  -1.690   6.575  0.00  0.00    +0.049 A 
ATOM     26  C   UNL     1      -3.754  -1.461   7.290  0.00  0.00    +0.120 A 
ATOM     27  C   UNL     1      -2.649  -0.912   6.657  0.00  0.00    +0.049 A 
ATOM     28  C   UNL     1      -2.708  -0.597   5.313  0.00  0.00    +0.049 A 
BRANCH  26  29
ATOM     29  O   UNL     1      -3.695  -1.774   8.612  0.00  0.00    -0.495 OA
ATOM     30  C   UNL     1      -2.462  -1.511   9.286  0.00  0.00    +0.277 C 
ENDBRANCH  26  29
ENDBRANCH  22  23
ENDBRANCH  21  22
ENDBRANCH  19  21
ENDBRANCH  15  19
ENDBRANCH   1  16
BRANCH  11  31
ATOM     31  C   UNL     1      -1.657  -6.662  -3.329  0.00  0.00    +0.324 C 
BRANCH  31  32
ATOM     32  O   UNL     1      -1.561  -7.903  -4.029  0.00  0.00    -0.483 OA
BRANCH  32  33
ATOM     33  C   UNL     1      -0.312  -8.341  -4.341  0.00  0.00    +0.123 A 
ATOM     34  C   UNL     1       0.798  -7.594  -3.974  0.00  0.00    +0.046 A 
ATOM     35  C   UNL     1       2.066  -8.040  -4.291  0.00  0.00    +0.005 A 
ATOM     36  C   UNL     1       2.230  -9.232  -4.974  0.00  0.00    +0.020 A 
ATOM     37  C   UNL     1       1.125  -9.979  -5.341  0.00  0.00    +0.044 A 
ATOM     38  C   UNL     1      -0.146  -9.538  -5.021  0.00  0.00    +0.065 A 
ATOM     39 CL   UNL     1       1.335 -11.474  -6.198  0.00  0.00    -0.083 Cl
ENDBRANCH  32  33
ENDBRANCH  31  32
ENDBRANCH  11  31
TORSDOF 9
