REMARK  Name = ZINC38598437
REMARK  6 active torsions:
REMARK  status: ('A' for Active; 'I' for Inactive)
REMARK    1  A    between atoms: C_1  and  C_2
REMARK    2  A    between atoms: C_4  and  C_25
REMARK    3  A    between atoms: C_30  and  O_31
REMARK    4  A    between atoms: O_31  and  C_32
REMARK    5  A    between atoms: C_32  and  C_33
REMARK    6  A    between atoms: C_32  and  C_34
REMARK                            x       y       z     vdW  Elec       q    Type
REMARK                         _______ _______ _______ _____ _____    ______ ____
ROOT
ATOM      1  C   UNL     1       0.071   1.104  -0.464  0.00  0.00    +0.062 C 
ATOM      2  C   UNL     1      -0.122  -0.389  -0.399  0.00  0.00    +0.023 C 
ATOM      3  C   UNL     1      -1.252  -0.973  -0.094  0.00  0.00    +0.005 C 
ATOM      4  C   UNL     1      -2.563  -0.314   0.308  0.00  0.00    +0.111 C 
ATOM      5  S   UNL     1      -3.908  -1.453  -0.158  0.00  0.00    -0.139 S 
ATOM      6  C   UNL     1      -3.883  -2.743   1.105  0.00  0.00    +0.165 C 
ATOM      7  C   UNL     1      -2.576  -3.098   1.656  0.00  0.00    +0.225 C 
ATOM      8  O   UNL     1      -2.612  -3.541   2.785  0.00  0.00    -0.275 OA
ATOM      9  N   UNL     1      -1.369  -3.023   1.142  0.00  0.00    -0.291 N 
ATOM     10  C   UNL     1      -1.046  -2.466  -0.165  0.00  0.00    +0.210 C 
ATOM     11  N   UNL     1       0.387  -2.619  -0.463  0.00  0.00    -0.213 N 
ATOM     12  N   UNL     1       0.873  -1.316  -0.660  0.00  0.00    -0.265 N 
ATOM     13  C   UNL     1       1.086  -3.770  -0.536  0.00  0.00    +0.150 C 
ATOM     14  N   UNL     1       0.504  -4.939  -0.338  0.00  0.00    -0.221 NA
ATOM     15  C   UNL     1       1.154  -6.098  -0.334  0.00  0.00    +0.225 C 
ATOM     16  N   UNL     1       2.474  -6.173  -0.210  0.00  0.00    -0.218 NA
ATOM     17  C   UNL     1       3.122  -5.014  -0.159  0.00  0.00    +0.164 C 
ATOM     18  N   UNL     1       4.205  -4.602   0.430  0.00  0.00    -0.219 NA
ATOM     19  C   UNL     1       4.255  -3.265   0.478  0.00  0.00    +0.218 C 
ATOM     20  N   UNL     1       3.309  -2.691  -0.213  0.00  0.00    -0.253 NA
ATOM     21  C   UNL     1       2.557  -3.772  -0.853  0.00  0.00    +0.239 C 
ATOM     22  H   UNL     1      -0.634  -3.366   1.675  0.00  0.00    +0.151 HD
ATOM     23  H   UNL     1       1.776  -1.097  -0.937  0.00  0.00    +0.170 HD
ENDROOT
BRANCH   4  24
ATOM     24  C   UNL     1      -2.724   0.996  -0.419  0.00  0.00    +0.011 A 
ATOM     25  C   UNL     1      -2.474   2.186   0.236  0.00  0.00    +0.008 A 
ATOM     26  C   UNL     1      -2.621   3.388  -0.431  0.00  0.00    +0.001 A 
ATOM     27  C   UNL     1      -3.018   3.402  -1.755  0.00  0.00    +0.004 A 
ATOM     28  C   UNL     1      -3.269   2.215  -2.415  0.00  0.00    +0.046 A 
ATOM     29  C   UNL     1      -3.117   1.007  -1.749  0.00  0.00    +0.125 A 
BRANCH  29  30
ATOM     30  O   UNL     1      -3.357  -0.163  -2.398  0.00  0.00    -0.489 OA
BRANCH  30  31
ATOM     31  C   UNL     1      -3.687  -0.079  -3.786  0.00  0.00    +0.167 C 
ATOM     32  C   UNL     1      -2.401   0.024  -4.610  0.00  0.00    +0.051 C 
ATOM     33  C   UNL     1      -4.461  -1.331  -4.203  0.00  0.00    +0.051 C 
ENDBRANCH  30  31
ENDBRANCH  29  30
ENDBRANCH   4  24
TORSDOF 3
