REMARK  Name = ZINC23259083
REMARK  5 active torsions:
REMARK  status: ('A' for Active; 'I' for Inactive)
REMARK    1  A    between atoms: C_1  and  C_2
REMARK    2  A    between atoms: C_2  and  C_4
REMARK    3  A    between atoms: C_2  and  N_20
REMARK    4  A    between atoms: N_9  and  C_10
REMARK    5  A    between atoms: C_23  and  C_26
REMARK                            x       y       z     vdW  Elec       q    Type
REMARK                         _______ _______ _______ _____ _____    ______ ____
ROOT
ATOM      1  C   UNL     1      -1.870   5.098   2.647  0.00  0.00    +0.207 C 
ATOM      2  O   UNL     1      -1.070   5.754   2.015  0.00  0.00    -0.277 OA
ATOM      3  N   UNL     1      -2.358   3.952   2.132  0.00  0.00    -0.242 N 
ATOM      4  C   UNL     1      -1.956   3.535   0.914  0.00  0.00    +0.306 C 
ATOM      5  O   UNL     1      -1.154   4.193   0.281  0.00  0.00    -0.252 OA
ATOM      6  N   UNL     1      -2.444   2.390   0.399  0.00  0.00    -0.294 N 
ATOM      7  H   UNL     1      -3.084   3.356   2.705  0.00  0.00    +0.159 HD
ATOM      8  H   UNL     1      -3.170   1.794   0.972  0.00  0.00    +0.151 HD
ENDROOT
BRANCH   6   9
ATOM      9  C   UNL     1      -2.008   1.937  -0.924  0.00  0.00    +0.037 C 
ATOM     10  C   UNL     1      -0.493   1.723  -0.916  0.00  0.00    +0.029 C 
ATOM     11  C   UNL     1      -0.037   1.250  -2.298  0.00  0.00    -0.008 C 
ATOM     12  C   UNL     1      -0.737  -0.066  -2.643  0.00  0.00    +0.007 C 
ATOM     13  C   UNL     1      -2.252   0.148  -2.651  0.00  0.00    -0.008 C 
ATOM     14  C   UNL     1      -2.707   0.621  -1.269  0.00  0.00    +0.029 C 
ATOM     15  C   UNL     1      -2.611   1.206  -3.696  0.00  0.00    +0.007 C 
ATOM     16  C   UNL     1      -1.912   2.522  -3.351  0.00  0.00    -0.008 C 
ATOM     17  C   UNL     1      -0.397   2.308  -3.343  0.00  0.00    +0.007 C 
ATOM     18  C   UNL     1      -2.368   2.995  -1.969  0.00  0.00    +0.029 C 
ENDBRANCH   6   9
BRANCH   1  20
ATOM     19  C   UNL     1      -1.416   4.949   5.080  0.00  0.00    -0.004 C 
ATOM     20  C   UNL     1      -2.319   5.563   4.008  0.00  0.00    +0.017 C 
BRANCH  20  21
ATOM     21  N   UNL     1      -2.234   7.028   4.077  0.00  0.00    +0.387 N 
ATOM     22  C   UNL     1      -0.836   7.474   4.107  0.00  0.00    -0.077 C 
ATOM     23  C   UNL     1      -0.786   8.988   4.325  0.00  0.00    -0.006 C 
ATOM     24  C   UNL     1      -1.539   9.687   3.190  0.00  0.00    +0.071 C 
ATOM     25  C   UNL     1      -2.980   9.169   3.150  0.00  0.00    -0.006 C 
ATOM     26  C   UNL     1      -2.966   7.650   2.966  0.00  0.00    -0.077 C 
ATOM     27  H   UNL     1      -2.709   7.352   5.015  0.00  0.00    -0.081 HD
BRANCH  24  28
ATOM     28  C   UNL     1      -1.545  11.175   3.429  0.00  0.00    +0.213 C 
ATOM     29  O   UNL     1      -2.597  11.764   3.555  0.00  0.00    -0.276 OA
ATOM     30  N   UNL     1      -0.381  11.850   3.503  0.00  0.00    -0.329 N 
ATOM     31  H   UNL     1      -0.385  12.936   3.678  0.00  0.00    +0.145 HD
ATOM     32  H   UNL     1       0.573  11.315   3.389  0.00  0.00    +0.145 HD
ENDBRANCH  24  28
ENDBRANCH  20  21
ENDBRANCH   1  20
TORSDOF 4
