REMARK  Name = ZINC09548022
REMARK  8 active torsions:
REMARK  status: ('A' for Active; 'I' for Inactive)
REMARK    1  A    between atoms: C_1  and  C_2
REMARK    2  A    between atoms: C_2  and  C_24
REMARK    3  A    between atoms: N_5  and  C_9
REMARK    4  A    between atoms: C_9  and  N_66
REMARK    5  A    between atoms: C_10  and  N_66
REMARK    6  A    between atoms: C_11  and  C_12
REMARK    7  A    between atoms: C_11  and  N_66
REMARK    8  A    between atoms: C_17  and  N_18
REMARK                            x       y       z     vdW  Elec       q    Type
REMARK                         _______ _______ _______ _____ _____    ______ ____
ROOT
ATOM      1  C   UNL     1       0.604   8.041  -1.055  0.00  0.00    +0.047 C 
ATOM      2  C   UNL     1       0.860   7.467   0.340  0.00  0.00    +0.135 C 
ATOM      3  C   UNL     1       2.151   8.016   0.914  0.00  0.00    +0.249 C 
ATOM      4  O   UNL     1       3.268   7.885   0.461  0.00  0.00    -0.272 OA
ATOM      5  N   UNL     1       1.798   8.681   2.032  0.00  0.00    -0.241 N 
ATOM      6  C   UNL     1       0.478   8.630   2.242  0.00  0.00    +0.308 C 
ATOM      7  O   UNL     1      -0.077   9.156   3.186  0.00  0.00    -0.252 OA
ATOM      8  N   UNL     1      -0.166   7.930   1.290  0.00  0.00    -0.281 N 
ATOM      9  H   UNL     1      -1.121   7.764   1.240  0.00  0.00    +0.152 HD
ENDROOT
BRANCH   2  10
ATOM     10  C   UNL     1       0.898   5.962   0.293  0.00  0.00    -0.015 A 
ATOM     11  C   UNL     1       2.120   5.311   0.127  0.00  0.00    +0.007 A 
ATOM     12  C   UNL     1       2.189   3.953   0.081  0.00  0.00    +0.009 A 
ATOM     13  C   UNL     1       1.014   3.191   0.202  0.00  0.00    -0.018 A 
ATOM     14  C   UNL     1       1.046   1.787   0.159  0.00  0.00    +0.008 A 
ATOM     15  C   UNL     1      -0.112   1.083   0.279  0.00  0.00    +0.001 A 
ATOM     16  C   UNL     1      -1.334   1.734   0.439  0.00  0.00    +0.001 A 
ATOM     17  C   UNL     1      -1.403   3.092   0.492  0.00  0.00    +0.008 A 
ATOM     18  C   UNL     1      -0.228   3.853   0.371  0.00  0.00    -0.018 A 
ATOM     19  C   UNL     1      -0.260   5.257   0.414  0.00  0.00    +0.014 A 
ENDBRANCH   2  10
BRANCH   5  20
ATOM     20  C   UNL     1       2.745   9.375   2.909  0.00  0.00    +0.043 C 
BRANCH  20  22
ATOM     21  C   UNL     1       1.793  11.601   2.950  0.00  0.00    -0.093 C 
ATOM     22  N   UNL     1       2.897  10.766   2.433  0.00  0.00    +0.391 N 
ATOM     23  H   UNL     1       2.868  10.772   1.407  0.00  0.00    -0.079 HD
BRANCH  22  24
ATOM     24  C   UNL     1       4.196  11.313   2.880  0.00  0.00    -0.039 C 
BRANCH  24  25
ATOM     25  C   UNL     1       4.375  12.688   2.289  0.00  0.00    -0.043 A 
ATOM     26  C   UNL     1       4.229  13.807   3.085  0.00  0.00    +0.003 A 
ATOM     27  C   UNL     1       4.398  15.068   2.545  0.00  0.00    +0.000 A 
ATOM     28  C   UNL     1       4.704  15.214   1.204  0.00  0.00    +0.002 A 
ATOM     29  C   UNL     1       4.846  14.100   0.401  0.00  0.00    +0.023 A 
ATOM     30  C   UNL     1       4.682  12.831   0.942  0.00  0.00    +0.031 A 
BRANCH  30  31
ATOM     31  N   UNL     1       4.826  11.701   0.133  0.00  0.00    -0.330 N 
ATOM     32  C   UNL     1       6.182  11.621  -0.424  0.00  0.00    +0.105 C 
ATOM     33  C   UNL     1       6.347  10.303  -1.183  0.00  0.00    +0.019 C 
ATOM     34  C   UNL     1       5.309  10.234  -2.307  0.00  0.00    +0.003 C 
ATOM     35  C   UNL     1       3.907  10.368  -1.705  0.00  0.00    +0.019 C 
ATOM     36  C   UNL     1       3.814  11.685  -0.931  0.00  0.00    +0.105 C 
ENDBRANCH  30  31
ENDBRANCH  24  25
ENDBRANCH  22  24
ENDBRANCH  20  22
ENDBRANCH   5  20
TORSDOF 6
