REMARK  Name = ZINC35379067
REMARK  6 active torsions:
REMARK  status: ('A' for Active; 'I' for Inactive)
REMARK    1  A    between atoms: C_1  and  C_2
REMARK    2  A    between atoms: C_7  and  S_8
REMARK    3  A    between atoms: S_8  and  N_11
REMARK    4  A    between atoms: C_15  and  C_18
REMARK    5  A    between atoms: N_20  and  C_21
REMARK    6  A    between atoms: C_28  and  C_33
REMARK                            x       y       z     vdW  Elec       q    Type
REMARK                         _______ _______ _______ _____ _____    ______ ____
ROOT
ATOM      1  S   UNL     1       0.026   0.179   2.724  0.00  0.00    +0.061 S 
ATOM      2  O   UNL     1      -1.013   1.145   2.639  0.00  0.00    -0.153 OA
ATOM      3  O   UNL     1       0.076  -0.798   3.754  0.00  0.00    -0.153 OA
ENDROOT
BRANCH   1  10
ATOM      4  C   UNL     1      -0.018   1.503   0.010  0.00  0.00    +0.046 C 
ATOM      5  C   UNL     1       0.002  -0.004   0.002  0.00  0.00    -0.022 A 
ATOM      6  C   UNL     1       0.006  -0.687  -1.201  0.00  0.00    +0.032 A 
ATOM      7  C   UNL     1       0.024  -2.071  -1.206  0.00  0.00    +0.076 A 
ATOM      8  C   UNL     1       0.039  -2.773  -0.002  0.00  0.00    +0.145 A 
ATOM      9  C   UNL     1       0.036  -2.083   1.198  0.00  0.00    +0.076 A 
ATOM     10  C   UNL     1       0.023  -0.700   1.196  0.00  0.00    +0.112 A 
ATOM     11  O   UNL     1       0.054  -4.133  -0.019  0.00  0.00    -0.478 OA
ATOM     12  C   UNL     1      -0.636  -4.769  -1.098  0.00  0.00    +0.256 C 
ATOM     13  C   UNL     1      -0.269  -4.101  -2.399  0.00  0.00    +0.258 C 
ATOM     14  O   UNL     1      -0.241  -4.744  -3.427  0.00  0.00    -0.271 OA
ATOM     15  N   UNL     1       0.029  -2.784  -2.414  0.00  0.00    -0.280 N 
ATOM     16  C   UNL     1      -0.239  -6.246  -1.155  0.00  0.00    +0.062 C 
ATOM     17  H   UNL     1       0.242  -2.337  -3.248  0.00  0.00    +0.155 HD
ENDBRANCH   1  10
BRANCH   1  18
ATOM     18  N   UNL     1       1.449   1.022   2.801  0.00  0.00    -0.176 NA
ATOM     19  C   UNL     1       2.647   0.415   3.396  0.00  0.00    +0.109 C 
ATOM     20  C   UNL     1       3.188   1.352   4.481  0.00  0.00    +0.018 C 
ATOM     21  C   UNL     1       3.420   2.741   3.881  0.00  0.00    +0.015 C 
ATOM     22  C   UNL     1       2.091   3.306   3.372  0.00  0.00    +0.091 C 
ATOM     23  C   UNL     1       1.540   2.389   2.269  0.00  0.00    +0.122 C 
BRANCH  22  24
ATOM     24  C   UNL     1       2.315   4.687   2.811  0.00  0.00    +0.218 C 
ATOM     25  O   UNL     1       2.055   4.919   1.649  0.00  0.00    -0.275 OA
ATOM     26  N   UNL     1       2.803   5.664   3.600  0.00  0.00    -0.312 N 
ATOM     27  H   UNL     1       3.011   5.479   4.529  0.00  0.00    +0.149 HD
BRANCH  26  28
ATOM     28  C   UNL     1       3.020   7.006   3.055  0.00  0.00    +0.073 C 
ATOM     29  C   UNL     1       4.392   7.067   2.380  0.00  0.00    +0.022 C 
ATOM     30  C   UNL     1       4.618   8.469   1.811  0.00  0.00    +0.002 C 
ATOM     31  C   UNL     1       4.561   9.495   2.944  0.00  0.00    +0.000 C 
ATOM     32  C   UNL     1       3.189   9.434   3.619  0.00  0.00    +0.002 C 
ATOM     33  C   UNL     1       2.963   8.033   4.188  0.00  0.00    +0.022 C 
ENDBRANCH  26  28
ENDBRANCH  22  24
ENDBRANCH   1  18
TORSDOF 4
