REMARK  Name = ZINC40322099
REMARK  11 active torsions:
REMARK  status: ('A' for Active; 'I' for Inactive)
REMARK    1  A    between atoms: C_1  and  C_2
REMARK    2  A    between atoms: C_2  and  N_3
REMARK    3  A    between atoms: N_3  and  C_4
REMARK    4  A    between atoms: N_3  and  C_6
REMARK    5  A    between atoms: C_4  and  C_5
REMARK    6  A    between atoms: C_6  and  C_8
REMARK    7  A    between atoms: C_6  and  C_27
REMARK    8  A    between atoms: C_8  and  N_9
REMARK    9  A    between atoms: C_10  and  C_12
REMARK   10  A    between atoms: C_15  and  S_17
REMARK   11  A    between atoms: S_17  and  C_20
REMARK                            x       y       z     vdW  Elec       q    Type
REMARK                         _______ _______ _______ _____ _____    ______ ____
ROOT
ATOM      1  N   UNL     1      -3.305  -2.298   0.826  0.00  0.00    -0.310 N 
ATOM      2  C   UNL     1      -4.460  -2.943   0.568  0.00  0.00    +0.279 C 
ATOM      3  O   UNL     1      -5.495  -2.313   0.451  0.00  0.00    -0.267 OA
ATOM      4  H   UNL     1      -2.469  -2.790   0.849  0.00  0.00    +0.149 HD
ENDROOT
BRANCH   2   5
ATOM      5  C   UNL     1      -4.469  -4.402   0.428  0.00  0.00    +0.192 A 
ATOM      6  C   UNL     1      -5.543  -5.168   0.072  0.00  0.00    +0.056 A 
ATOM      7  C   UNL     1      -5.103  -6.500   0.062  0.00  0.00    +0.070 A 
ATOM      8  C   UNL     1      -3.796  -6.491   0.408  0.00  0.00    +0.246 A 
ATOM      9  O   UNL     1      -3.417  -5.224   0.623  0.00  0.00    -0.433 OA
BRANCH   8  10
ATOM     10  S   UNL     1      -2.761  -7.910   0.548  0.00  0.00    +0.058 S 
ATOM     11  O   UNL     1      -1.706  -7.557   1.432  0.00  0.00    -0.161 OA
ATOM     12  O   UNL     1      -3.620  -9.016   0.790  0.00  0.00    -0.161 OA
BRANCH  10  13
ATOM     13  C   UNL     1      -2.027  -8.177  -1.031  0.00  0.00    +0.097 A 
ATOM     14  C   UNL     1      -2.662  -8.979  -1.961  0.00  0.00    +0.029 A 
ATOM     15  C   UNL     1      -2.086  -9.189  -3.200  0.00  0.00    +0.022 A 
ATOM     16  C   UNL     1      -0.875  -8.597  -3.509  0.00  0.00    +0.041 A 
ATOM     17  C   UNL     1      -0.240  -7.794  -2.578  0.00  0.00    +0.022 A 
ATOM     18  C   UNL     1      -0.819  -7.580  -1.341  0.00  0.00    +0.029 A 
ATOM     19 CL   UNL     1      -0.151  -8.861  -5.065  0.00  0.00    -0.084 Cl
ENDBRANCH  10  13
ENDBRANCH   8  10
ENDBRANCH   2   5
BRANCH   1  20
ATOM     20  C   UNL     1      -3.311  -0.853   1.071  0.00  0.00    +0.097 C 
BRANCH  20  21
ATOM     21  C   UNL     1      -1.874  -0.361   1.256  0.00  0.00    +0.016 C 
BRANCH  21  22
ATOM     22  C   UNL     1      -1.874   1.137   1.422  0.00  0.00    +0.093 A 
ATOM     23  C   UNL     1      -1.669   1.801   2.574  0.00  0.00    +0.043 A 
ATOM     24  C   UNL     1      -1.755   3.179   2.272  0.00  0.00    +0.041 A 
ATOM     25  C   UNL     1      -2.007   3.275   0.954  0.00  0.00    +0.195 A 
ATOM     26  O   UNL     1      -2.072   2.035   0.443  0.00  0.00    -0.469 OA
ENDBRANCH  21  22
BRANCH  21  27
ATOM     27  N   UNL     1      -1.076  -0.724   0.078  0.00  0.00    +0.387 N 
ATOM     28  H   UNL     1      -1.018  -1.729   0.007  0.00  0.00    -0.081 HD
BRANCH  27  30
ATOM     29  C   UNL     1      -2.667  -1.230  -1.714  0.00  0.00    -0.017 C 
ATOM     30  C   UNL     1      -1.714  -0.185  -1.131  0.00  0.00    -0.081 C 
ENDBRANCH  27  30
BRANCH  27  31
ATOM     31  C   UNL     1       0.275  -0.163   0.210  0.00  0.00    -0.081 C 
ATOM     32  C   UNL     1       0.990  -0.826   1.389  0.00  0.00    -0.017 C 
ENDBRANCH  27  31
ENDBRANCH  21  27
ENDBRANCH  20  21
ENDBRANCH   1  20
TORSDOF 9
