REMARK  Name = ZINC34749322
REMARK  11 active torsions:
REMARK  status: ('A' for Active; 'I' for Inactive)
REMARK    1  A    between atoms: C_1  and  C_2
REMARK    2  A    between atoms: C_2  and  C_3
REMARK    3  A    between atoms: C_4  and  C_36
REMARK    4  A    between atoms: N_10  and  C_27
REMARK    5  A    between atoms: N_16  and  C_19
REMARK    6  A    between atoms: C_19  and  C_20
REMARK    7  A    between atoms: N_22  and  C_23
REMARK    8  A    between atoms: N_22  and  C_25
REMARK    9  A    between atoms: C_23  and  C_24
REMARK   10  A    between atoms: C_25  and  C_26
REMARK   11  A    between atoms: C_27  and  C_28
REMARK                            x       y       z     vdW  Elec       q    Type
REMARK                         _______ _______ _______ _____ _____    ______ ____
ROOT
ATOM      1  C   UNL     1       0.715  -0.435  -1.302  0.00  0.00    -0.023 A 
ATOM      2  C   UNL     1       0.059  -0.586  -2.462  0.00  0.00    -0.007 A 
ATOM      3  S   UNL     1       1.335  -1.105  -3.594  0.00  0.00    -0.073 S 
ATOM      4  C   UNL     1       2.713  -1.103  -2.476  0.00  0.00    +0.117 A 
ATOM      5  C   UNL     1       2.143  -0.694  -1.256  0.00  0.00    +0.076 A 
ATOM      6  C   UNL     1       3.046  -0.598  -0.150  0.00  0.00    +0.264 A 
ATOM      7  O   UNL     1       2.642  -0.255   0.949  0.00  0.00    -0.267 OA
ATOM      8  N   UNL     1       4.346  -0.890  -0.338  0.00  0.00    -0.271 N 
ATOM      9  C   UNL     1       4.816  -1.274  -1.559  0.00  0.00    +0.202 A 
ATOM     10  N   UNL     1       4.006  -1.382  -2.592  0.00  0.00    -0.208 NA
ATOM     11  N   UNL     1       6.149  -1.563  -1.711  0.00  0.00    -0.304 N 
ATOM     12  C   UNL     1       7.114  -0.513  -2.071  0.00  0.00    +0.089 C 
ATOM     13  C   UNL     1       7.947  -1.006  -3.259  0.00  0.00    -0.059 C 
ATOM     14  N   UNL     1       8.555  -2.300  -2.926  0.00  0.00    +0.387 N 
ATOM     15  C   UNL     1       7.507  -3.310  -2.732  0.00  0.00    -0.059 C 
ATOM     16  C   UNL     1       6.654  -2.931  -1.513  0.00  0.00    +0.089 C 
ATOM     17  C   UNL     1      -1.406  -0.370  -2.742  0.00  0.00    +0.052 C 
ATOM     18  H   UNL     1       9.094  -2.209  -2.078  0.00  0.00    -0.081 HD
ENDROOT
BRANCH   1  20
ATOM     19  C   UNL     1      -0.009   1.532   0.023  0.00  0.00    +0.009 C 
ATOM     20  C   UNL     1      -0.021   0.005  -0.063  0.00  0.00    +0.033 C 
ENDBRANCH   1  20
BRANCH  14  21
ATOM     21  C   UNL     1       9.441  -2.720  -4.021  0.00  0.00    +0.019 C 
BRANCH  21  22
ATOM     22  C   UNL     1      10.159  -3.985  -3.629  0.00  0.00    +0.199 C 
ATOM     23  O   UNL     1       9.954  -4.488  -2.545  0.00  0.00    -0.278 OA
ATOM     24  N   UNL     1      11.030  -4.558  -4.484  0.00  0.00    -0.304 N 
BRANCH  24  25
ATOM     25  C   UNL     1      11.729  -5.788  -4.103  0.00  0.00    +0.104 C 
ATOM     26  C   UNL     1      10.901  -6.999  -4.537  0.00  0.00    +0.024 C 
ENDBRANCH  24  25
BRANCH  24  27
ATOM     27  C   UNL     1      11.277  -3.950  -5.794  0.00  0.00    +0.104 C 
ATOM     28  C   UNL     1      12.435  -2.955  -5.684  0.00  0.00    +0.024 C 
ENDBRANCH  24  27
ENDBRANCH  21  22
ENDBRANCH  14  21
BRANCH   8  29
ATOM     29  C   UNL     1       5.275  -0.792   0.791  0.00  0.00    +0.224 C 
BRANCH  29  30
ATOM     30  C   UNL     1       5.266  -2.087   1.562  0.00  0.00    +0.236 C 
ATOM     31  O   UNL     1       4.554  -3.001   1.204  0.00  0.00    -0.274 OA
ATOM     32  N   UNL     1       6.049  -2.229   2.649  0.00  0.00    -0.300 N 
ATOM     33  C   UNL     1       6.913  -1.129   3.099  0.00  0.00    +0.108 C 
ATOM     34  C   UNL     1       6.620  -0.845   4.576  0.00  0.00    +0.019 C 
ATOM     35  C   UNL     1       6.778  -2.137   5.380  0.00  0.00    +0.003 C 
ATOM     36  C   UNL     1       5.773  -3.178   4.881  0.00  0.00    +0.019 C 
ATOM     37  C   UNL     1       6.051  -3.486   3.411  0.00  0.00    +0.108 C 
ENDBRANCH  29  30
ENDBRANCH   8  29
TORSDOF 7
