REMARK  Name = ZINC41066058
REMARK  6 active torsions:
REMARK  status: ('A' for Active; 'I' for Inactive)
REMARK    1  A    between atoms: C_1  and  C_2
REMARK    2  A    between atoms: C_3  and  C_11
REMARK    3  A    between atoms: C_7  and  N_8
REMARK    4  A    between atoms: C_11  and  N_12
REMARK    5  A    between atoms: N_12  and  C_13
REMARK    6  A    between atoms: C_13  and  C_14
REMARK                            x       y       z     vdW  Elec       q    Type
REMARK                         _______ _______ _______ _____ _____    ______ ____
ROOT
ATOM      1  N   UNL     1       0.414   0.725  -2.959  0.00  0.00    +0.384 N 
ATOM      2  H   UNL     1       0.754   1.388  -2.279  0.00  0.00    -0.085 HD
ATOM      3  H   UNL     1       1.142   0.061  -3.175  0.00  0.00    -0.085 HD
ENDROOT
BRANCH   1   4
ATOM      4  C   UNL     1      -0.750   0.015  -2.412  0.00  0.00    -0.046 C 
BRANCH   4   7
ATOM      5  C   UNL     1      -0.538   1.447   0.089  0.00  0.00    +0.046 C 
ATOM      6  C   UNL     1      -0.247  -0.031   0.040  0.00  0.00    -0.019 A 
ATOM      7  C   UNL     1      -0.347  -0.716  -1.157  0.00  0.00    -0.059 A 
ATOM      8  C   UNL     1      -0.080  -2.071  -1.202  0.00  0.00    +0.002 A 
ATOM      9  C   UNL     1       0.289  -2.742  -0.051  0.00  0.00    +0.002 A 
ATOM     10  C   UNL     1       0.391  -2.057   1.145  0.00  0.00    +0.033 A 
ATOM     11  C   UNL     1       0.127  -0.700   1.190  0.00  0.00    +0.129 A 
BRANCH  11  12
ATOM     12  N   UNL     1       0.241   0.035   2.470  0.00  0.00    +0.057 N 
ATOM     13  O   UNL     1       0.674   1.163   2.482  0.00  0.00    -0.126 OA
ATOM     14  O   UNL     1      -0.099  -0.494   3.502  0.00  0.00    -0.126 OA
ENDBRANCH  11  12
ENDBRANCH   4   7
ENDBRANCH   1   4
BRANCH   1  15
ATOM     15  C   UNL     1       0.022   1.438  -4.183  0.00  0.00    -0.043 C 
BRANCH  15  16
ATOM     16  C   UNL     1       1.216   2.167  -4.744  0.00  0.00    -0.028 A 
ATOM     17  C   UNL     1       1.372   3.520  -4.511  0.00  0.00    +0.019 A 
ATOM     18  C   UNL     1       2.467   4.189  -5.026  0.00  0.00    +0.018 A 
ATOM     19  C   UNL     1       3.408   3.504  -5.774  0.00  0.00    +0.018 A 
ATOM     20  C   UNL     1       3.253   2.151  -6.008  0.00  0.00    +0.039 A 
ATOM     21  C   UNL     1       2.160   1.479  -5.488  0.00  0.00    +0.125 A 
ATOM     22  F   UNL     1       2.011   0.155  -5.711  0.00  0.00    -0.205 F 
ATOM     23 BR   UNL     1       2.679   6.041  -4.708  0.00  0.00    -0.050 Br
ENDBRANCH  15  16
ENDBRANCH   1  15
TORSDOF 5
