REMARK  Name = ZINC35918291
REMARK  12 active torsions:
REMARK  status: ('A' for Active; 'I' for Inactive)
REMARK    1  A    between atoms: C_1  and  C_2
REMARK    2  A    between atoms: C_5  and  C_7
REMARK    3  A    between atoms: C_7  and  N_8
REMARK    4  A    between atoms: C_10  and  C_22
REMARK    5  A    between atoms: C_12  and  C_15
REMARK    6  A    between atoms: C_22  and  N_23
REMARK    7  A    between atoms: N_23  and  C_24
REMARK    8  A    between atoms: C_24  and  C_25
REMARK    9  A    between atoms: C_24  and  C_26
REMARK   10  A    between atoms: C_27  and  C_29
REMARK   11  A    between atoms: C_29  and  C_30
REMARK   12  A    between atoms: C_29  and  C_31
REMARK                            x       y       z     vdW  Elec       q    Type
REMARK                         _______ _______ _______ _____ _____    ______ ____
ROOT
ATOM      1  N   UNL     1       1.688  -2.902  -2.277  0.00  0.00    +0.385 N 
ATOM      2  C   UNL     1       2.502  -4.127  -2.071  0.00  0.00    -0.073 C 
ATOM      3  C   UNL     1       2.367  -4.874  -3.422  0.00  0.00    -0.005 C 
ATOM      4  C   UNL     1       0.900  -4.600  -3.824  0.00  0.00    +0.005 C 
ATOM      5  C   UNL     1       0.500  -3.332  -3.046  0.00  0.00    -0.070 C 
ATOM      6  H   UNL     1       2.213  -2.218  -2.801  0.00  0.00    -0.081 HD
ENDROOT
BRANCH   4   7
ATOM      7  C   UNL     1       0.799  -4.359  -5.308  0.00  0.00    -0.046 A 
ATOM      8  C   UNL     1       1.496  -3.315  -5.887  0.00  0.00    +0.006 A 
ATOM      9  C   UNL     1       1.405  -3.094  -7.248  0.00  0.00    +0.038 A 
ATOM     10  C   UNL     1       0.616  -3.918  -8.032  0.00  0.00    +0.123 A 
ATOM     11  C   UNL     1      -0.082  -4.964  -7.450  0.00  0.00    +0.038 A 
ATOM     12  C   UNL     1       0.015  -5.186  -6.090  0.00  0.00    +0.006 A 
ATOM     13  F   UNL     1       0.526  -3.703  -9.362  0.00  0.00    -0.205 F 
ENDBRANCH   4   7
BRANCH   1  14
ATOM     14  C   UNL     1       1.278  -2.343  -0.982  0.00  0.00    -0.003 C 
BRANCH  14  19
ATOM     15  C   UNL     1       0.252   2.555  -1.616  0.00  0.00    +0.086 C 
ATOM     16  C   UNL     1       0.066   1.065  -1.482  0.00  0.00    +0.102 A 
ATOM     17  C   UNL     1      -1.106   0.409  -1.552  0.00  0.00    +0.044 A 
ATOM     18  C   UNL     1      -0.818  -0.964  -1.374  0.00  0.00    +0.043 A 
ATOM     19  C   UNL     1       0.513  -1.064  -1.207  0.00  0.00    +0.089 A 
ATOM     20  O   UNL     1       1.044   0.167  -1.279  0.00  0.00    -0.467 OA
ENDBRANCH  14  19
ENDBRANCH   1  14
BRANCH   3  21
ATOM     21  C   UNL     1       2.612  -6.373  -3.239  0.00  0.00    +0.110 C 
BRANCH  21  22
ATOM     22  N   UNL     1       3.991  -6.592  -2.795  0.00  0.00    -0.299 N 
ATOM     23  C   UNL     1       4.989  -6.650  -3.699  0.00  0.00    +0.218 C 
ATOM     24  O   UNL     1       6.138  -6.758  -3.326  0.00  0.00    -0.275 OA
BRANCH  22  25
ATOM     25  C   UNL     1       4.284  -6.749  -1.368  0.00  0.00    +0.070 C 
ATOM     26  C   UNL     1       4.772  -8.174  -1.101  0.00  0.00    +0.028 C 
ATOM     27  C   UNL     1       5.370  -5.753  -0.959  0.00  0.00    +0.028 C 
ENDBRANCH  22  25
BRANCH  23  28
ATOM     28  C   UNL     1       4.677  -6.579  -5.171  0.00  0.00    +0.069 C 
ATOM     29  C   UNL     1       5.977  -6.411  -5.960  0.00  0.00    +0.017 C 
ATOM     30  C   UNL     1       3.979  -7.868  -5.607  0.00  0.00    +0.017 C 
ENDBRANCH  23  28
ENDBRANCH  21  22
ENDBRANCH   3  21
TORSDOF 7
