REMARK  Name = ZINC67075506
REMARK  8 active torsions:
REMARK  status: ('A' for Active; 'I' for Inactive)
REMARK    1  A    between atoms: C_1  and  C_2
REMARK    2  A    between atoms: C_4  and  C_8
REMARK    3  A    between atoms: C_5  and  C_7
REMARK    4  A    between atoms: C_8  and  C_10
REMARK    5  A    between atoms: C_8  and  N_11
REMARK    6  A    between atoms: C_12  and  C_14
REMARK    7  A    between atoms: C_15  and  C_25
REMARK    8  A    between atoms: N_21  and  C_24
REMARK                            x       y       z     vdW  Elec       q    Type
REMARK                         _______ _______ _______ _____ _____    ______ ____
ROOT
ATOM      1  N   UNL     1      -2.786  -3.079   0.471  0.00  0.00    -0.305 N 
ATOM      2  C   UNL     1      -3.542  -4.045   1.030  0.00  0.00    +0.249 C 
ATOM      3  O   UNL     1      -3.104  -5.175   1.135  0.00  0.00    -0.270 OA
ATOM      4  H   UNL     1      -3.135  -2.178   0.387  0.00  0.00    +0.150 HD
ENDROOT
BRANCH   2   5
ATOM      5  C   UNL     1      -4.897  -3.732   1.512  0.00  0.00    +0.092 A 
ATOM      6  C   UNL     1      -6.060  -3.810   0.809  0.00  0.00    +0.117 A 
ATOM      7  O   UNL     1      -7.084  -3.445   1.592  0.00  0.00    -0.441 OA
ATOM      8  C   UNL     1      -6.665  -3.113   2.824  0.00  0.00    +0.235 A 
ATOM      9  C   UNL     1      -5.279  -3.275   2.858  0.00  0.00    +0.117 A 
ATOM     10  C   UNL     1      -4.582  -2.995   4.053  0.00  0.00    +0.265 A 
ATOM     11  O   UNL     1      -3.372  -3.122   4.118  0.00  0.00    -0.267 OA
ATOM     12  N   UNL     1      -5.297  -2.581   5.125  0.00  0.00    -0.302 N 
ATOM     13  C   UNL     1      -6.643  -2.446   5.032  0.00  0.00    +0.205 A 
ATOM     14  N   UNL     1      -7.296  -2.694   3.932  0.00  0.00    -0.202 NA
ATOM     15  C   UNL     1      -4.617  -2.280   6.387  0.00  0.00    +0.153 C 
ATOM     16  C   UNL     1      -6.178  -4.241  -0.630  0.00  0.00    +0.087 C 
ENDBRANCH   2   5
BRANCH   1  17
ATOM     17  C   UNL     1      -1.437  -3.390  -0.009  0.00  0.00    +0.104 C 
ATOM     18  C   UNL     1      -1.518  -3.946  -1.432  0.00  0.00    +0.033 C 
BRANCH  17  22
ATOM     19  C   UNL     1      -0.018   1.503   0.010  0.00  0.00    +0.086 C 
ATOM     20  C   UNL     1       0.002  -0.004   0.002  0.00  0.00    +0.103 A 
ATOM     21  C   UNL     1      -1.078  -0.805   0.003  0.00  0.00    +0.050 A 
ATOM     22  C   UNL     1      -0.601  -2.136  -0.007  0.00  0.00    +0.013 A 
ATOM     23  C   UNL     1       0.742  -2.069  -0.013  0.00  0.00    +0.107 A 
ATOM     24  O   UNL     1       1.102  -0.775  -0.013  0.00  0.00    -0.465 OA
ATOM     25  C   UNL     1       1.684  -3.245  -0.023  0.00  0.00    +0.086 C 
ENDBRANCH  17  22
ENDBRANCH   1  17
TORSDOF 3
