REMARK  Name = ZINC36253405
REMARK  15 active torsions:
REMARK  status: ('A' for Active; 'I' for Inactive)
REMARK    1  A    between atoms: C_1  and  C_2
REMARK    2  A    between atoms: C_2  and  N_3
REMARK    3  A    between atoms: C_7  and  S_32
REMARK    4  A    between atoms: C_11  and  C_12
REMARK    5  A    between atoms: C_12  and  C_13
REMARK    6  A    between atoms: C_13  and  C_14
REMARK    7  A    between atoms: C_14  and  O_16
REMARK    8  A    between atoms: O_16  and  C_17
REMARK    9  A    between atoms: C_17  and  C_19
REMARK   10  A    between atoms: C_17  and  C_20
REMARK   11  A    between atoms: C_24  and  C_31
REMARK   12  A    between atoms: C_27  and  C_30
REMARK   13  A    between atoms: S_32  and  N_35
REMARK   14  A    between atoms: N_35  and  C_36
REMARK   15  A    between atoms: N_35  and  C_37
REMARK                            x       y       z     vdW  Elec       q    Type
REMARK                         _______ _______ _______ _____ _____    ______ ____
ROOT
ATOM      1  N   UNL     1      -1.856   0.433  -1.012  0.00  0.00    -0.328 N 
ATOM      2  C   UNL     1      -2.804   0.384  -0.009  0.00  0.00    +0.069 A 
ATOM      3  C   UNL     1      -2.770   0.588   1.364  0.00  0.00    +0.030 A 
ATOM      4  C   UNL     1      -3.928   0.459   2.102  0.00  0.00    +0.030 A 
ATOM      5  C   UNL     1      -5.123   0.126   1.482  0.00  0.00    +0.108 A 
ATOM      6  C   UNL     1      -5.175  -0.080   0.132  0.00  0.00    +0.058 A 
ATOM      7  C   UNL     1      -4.015   0.047  -0.636  0.00  0.00    +0.091 A 
ATOM      8  N   UNL     1      -3.749  -0.090  -1.961  0.00  0.00    -0.232 NA
ATOM      9  C   UNL     1      -2.488   0.142  -2.180  0.00  0.00    +0.111 A 
ENDROOT
BRANCH   5  10
ATOM     10  S   UNL     1      -6.590  -0.035   2.445  0.00  0.00    +0.060 S 
ATOM     11  O   UNL     1      -7.464  -0.886   1.716  0.00  0.00    -0.153 OA
ATOM     12  O   UNL     1      -6.174  -0.327   3.772  0.00  0.00    -0.153 OA
BRANCH  10  13
ATOM     13  N   UNL     1      -7.311   1.455   2.492  0.00  0.00    -0.183 NA
ATOM     14  C   UNL     1      -8.287   1.829   1.465  0.00  0.00    +0.131 C 
ATOM     15  C   UNL     1      -6.973   2.399   3.560  0.00  0.00    +0.131 C 
ENDBRANCH  10  13
ENDBRANCH   5  10
BRANCH   1  17
ATOM     16  C   UNL     1      -0.225   2.255  -0.985  0.00  0.00    +0.027 C 
ATOM     17  C   UNL     1      -0.434   0.746  -0.848  0.00  0.00    +0.120 C 
ENDBRANCH   1  17
BRANCH   9  18
ATOM     18  C   UNL     1      -1.824   0.091  -3.532  0.00  0.00    +0.085 C 
BRANCH  18  19
ATOM     19  C   UNL     1      -1.312  -1.326  -3.796  0.00  0.00    +0.128 C 
BRANCH  19  20
ATOM     20  C   UNL     1      -0.647  -1.377  -5.148  0.00  0.00    +0.308 C 
ATOM     21  O   UNL     1      -0.589  -0.381  -5.830  0.00  0.00    -0.251 OA
BRANCH  20  22
ATOM     22  O   UNL     1      -0.120  -2.528  -5.594  0.00  0.00    -0.452 OA
BRANCH  22  23
ATOM     23  C   UNL     1       0.494  -2.503  -6.884  0.00  0.00    +0.259 C 
ATOM     24  C   UNL     1       1.976  -2.151  -6.736  0.00  0.00    +0.062 C 
BRANCH  23  25
ATOM     25  C   UNL     1       0.362  -3.858  -7.530  0.00  0.00    +0.256 C 
ATOM     26  O   UNL     1      -0.082  -4.791  -6.895  0.00  0.00    -0.272 OA
ATOM     27  N   UNL     1       0.735  -4.032  -8.813  0.00  0.00    -0.298 N 
ATOM     28  C   UNL     1       0.501  -5.313  -9.493  0.00  0.00    +0.111 C 
ATOM     29  C   UNL     1      -0.264  -5.048 -10.794  0.00  0.00    +0.004 C 
ATOM     30  C   UNL     1       0.503  -4.022 -11.632  0.00  0.00    +0.009 C 
ATOM     31  C   UNL     1       0.610  -2.707 -10.857  0.00  0.00    +0.004 C 
ATOM     32  C   UNL     1       1.379  -2.943  -9.560  0.00  0.00    +0.111 C 
ATOM     33  C   UNL     1       1.347  -1.672 -11.710  0.00  0.00    +0.009 C 
ATOM     34  C   UNL     1      -1.655  -4.503 -10.466  0.00  0.00    +0.009 C 
ENDBRANCH  23  25
ENDBRANCH  22  23
ENDBRANCH  20  22
ENDBRANCH  19  20
ENDBRANCH  18  19
ENDBRANCH   9  18
TORSDOF 9
