REMARK  Name = ZINC26108174
REMARK  9 active torsions:
REMARK  status: ('A' for Active; 'I' for Inactive)
REMARK    1  A    between atoms: C_1  and  C_2
REMARK    2  A    between atoms: C_5  and  C_26
REMARK    3  A    between atoms: C_10  and  C_12
REMARK    4  A    between atoms: C_12  and  C_14
REMARK    5  A    between atoms: C_12  and  S_15
REMARK    6  A    between atoms: S_15  and  C_16
REMARK    7  A    between atoms: C_19  and  S_21
REMARK    8  A    between atoms: S_21  and  C_22
REMARK    9  A    between atoms: C_22  and  C_23
REMARK                            x       y       z     vdW  Elec       q    Type
REMARK                         _______ _______ _______ _____ _____    ______ ____
ROOT
ATOM      1  S   UNL     1      -4.594   5.500   1.130  0.00  0.00    -0.084 S 
ENDROOT
BRANCH   1   2
ATOM      2  C   UNL     1      -5.143   5.892   2.757  0.00  0.00    +0.160 A 
ATOM      3  N   UNL     1      -4.485   5.829   3.899  0.00  0.00    -0.134 NA
ATOM      4  N   UNL     1      -5.111   6.187   5.071  0.00  0.00    -0.134 NA
ATOM      5  C   UNL     1      -6.367   6.592   5.046  0.00  0.00    +0.160 A 
ATOM      6  S   UNL     1      -6.736   6.489   3.302  0.00  0.00    -0.033 S 
BRANCH   5   7
ATOM      7  S   UNL     1      -7.401   7.104   6.378  0.00  0.00    -0.088 S 
BRANCH   7   8
ATOM      8  C   UNL     1      -6.339   6.952   7.841  0.00  0.00    +0.171 C 
BRANCH   8   9
ATOM      9  C   UNL     1      -7.112   7.365   9.068  0.00  0.00    +0.221 C 
ATOM     10  O   UNL     1      -8.265   7.726   8.965  0.00  0.00    -0.275 OA
ATOM     11  N   UNL     1      -6.521   7.333  10.279  0.00  0.00    -0.329 N 
ATOM     12  H   UNL     1      -7.085   7.635  11.174  0.00  0.00    +0.145 HD
ATOM     13  H   UNL     1      -5.475   7.006  10.372  0.00  0.00    +0.145 HD
ENDBRANCH   8   9
ENDBRANCH   7   8
ENDBRANCH   5   7
ENDBRANCH   1   2
BRANCH   1  14
ATOM     14  C   UNL     1      -2.874   4.972   1.362  0.00  0.00    +0.136 C 
ATOM     15  C   UNL     1      -2.041   6.152   1.865  0.00  0.00    +0.029 C 
BRANCH  14  23
ATOM     16  C   UNL     1      -2.198   1.093  -1.204  0.00  0.00    +0.009 C 
ATOM     17  C   UNL     1      -0.752   1.593  -1.232  0.00  0.00    +0.004 C 
ATOM     18  C   UNL     1      -0.013   1.086   0.008  0.00  0.00    +0.009 C 
ATOM     19  C   UNL     1      -0.729   1.579   1.268  0.00  0.00    +0.004 C 
ATOM     20  C   UNL     1      -0.717   3.111   1.290  0.00  0.00    +0.111 C 
ATOM     21  N   UNL     1      -1.296   3.606   0.034  0.00  0.00    -0.300 N 
ATOM     22  C   UNL     1      -0.741   3.124  -1.238  0.00  0.00    +0.111 C 
ATOM     23  C   UNL     1      -2.316   4.487   0.049  0.00  0.00    +0.229 C 
ATOM     24  O   UNL     1      -2.785   4.889  -0.995  0.00  0.00    -0.274 OA
ATOM     25  C   UNL     1      -0.008   1.045   2.507  0.00  0.00    +0.009 C 
ENDBRANCH  14  23
ENDBRANCH   1  14
TORSDOF 6
