REMARK  Name = ZINC21237565
REMARK  9 active torsions:
REMARK  status: ('A' for Active; 'I' for Inactive)
REMARK    1  A    between atoms: C_1  and  C_2
REMARK    2  A    between atoms: C_2  and  C_3
REMARK    3  A    between atoms: C_3  and  C_4
REMARK    4  A    between atoms: C_4  and  C_28
REMARK    5  A    between atoms: N_7  and  C_11
REMARK    6  A    between atoms: C_11  and  C_12
REMARK    7  A    between atoms: N_14  and  C_15
REMARK    8  A    between atoms: C_15  and  C_16
REMARK    9  A    between atoms: C_19  and  C_21
REMARK                            x       y       z     vdW  Elec       q    Type
REMARK                         _______ _______ _______ _____ _____    ______ ____
ROOT
ATOM      1  C   UNL     1       1.600  -2.233  -2.608  0.00  0.00    +0.213 C 
ENDROOT
BRANCH   1   5
ATOM      2  C   UNL     1      -0.037   1.099  -2.490  0.00  0.00    +0.138 C 
ATOM      3  C   UNL     1      -0.093  -0.413  -2.578  0.00  0.00    +0.251 C 
ATOM      4  O   UNL     1      -1.085  -1.105  -2.659  0.00  0.00    -0.272 OA
ATOM      5  N   UNL     1       1.188  -0.828  -2.547  0.00  0.00    -0.215 N 
ATOM      6  C   UNL     1       2.038   0.201  -2.453  0.00  0.00    +0.310 C 
ATOM      7  O   UNL     1       3.247   0.077  -2.408  0.00  0.00    -0.252 OA
ATOM      8  N   UNL     1       1.406   1.388  -2.413  0.00  0.00    -0.281 N 
ATOM      9  H   UNL     1       1.756   2.428  -2.339  0.00  0.00    +0.152 HD
BRANCH   2  10
ATOM     10  C   UNL     1      -0.640   1.725  -3.721  0.00  0.00    -0.015 A 
ATOM     11  C   UNL     1      -1.979   2.070  -3.736  0.00  0.00    +0.006 A 
ATOM     12  C   UNL     1      -2.531   2.648  -4.864  0.00  0.00    +0.000 A 
ATOM     13  C   UNL     1      -1.747   2.872  -5.980  0.00  0.00    +0.000 A 
ATOM     14  C   UNL     1      -0.410   2.522  -5.967  0.00  0.00    +0.000 A 
ATOM     15  C   UNL     1       0.144   1.948  -4.838  0.00  0.00    +0.006 A 
ENDBRANCH   2  10
BRANCH   2  16
ATOM     16  C   UNL     1      -0.753   1.593  -1.232  0.00  0.00    +0.040 C 
BRANCH  16  18
ATOM     17  C   UNL     1      -0.729   1.579   1.267  0.00  0.00    +0.004 C 
ATOM     18  C   UNL     1      -0.013   1.086   0.008  0.00  0.00    -0.000 C 
ENDBRANCH  16  18
ENDBRANCH   2  16
ENDBRANCH   1   5
BRANCH   1  19
ATOM     19  C   UNL     1       1.802  -2.635  -4.046  0.00  0.00    +0.231 C 
ATOM     20  O   UNL     1       1.619  -1.828  -4.933  0.00  0.00    -0.274 OA
ATOM     21  N   UNL     1       2.184  -3.892  -4.347  0.00  0.00    -0.307 N 
ATOM     22  H   UNL     1       2.350  -4.624  -3.543  0.00  0.00    +0.149 HD
BRANCH  21  23
ATOM     23  C   UNL     1       2.380  -4.283  -5.745  0.00  0.00    +0.178 C 
BRANCH  23  24
ATOM     24  C   UNL     1       2.804  -5.728  -5.808  0.00  0.00    +0.123 A 
ATOM     25  C   UNL     1       1.975  -6.786  -5.902  0.00  0.00    +0.047 A 
ATOM     26  C   UNL     1       2.782  -7.941  -5.932  0.00  0.00    +0.050 A 
ATOM     27  C   UNL     1       4.072  -7.519  -5.854  0.00  0.00    +0.135 A 
ATOM     28  O   UNL     1       4.070  -6.174  -5.785  0.00  0.00    -0.458 OA
BRANCH  27  29
ATOM     29  C   UNL     1       5.269  -8.386  -5.852  0.00  0.00    +0.017 A 
ATOM     30  C   UNL     1       5.131  -9.773  -5.929  0.00  0.00    +0.013 A 
ATOM     31  C   UNL     1       6.252 -10.576  -5.932  0.00  0.00    +0.021 A 
ATOM     32  C   UNL     1       7.513 -10.011  -5.847  0.00  0.00    +0.041 A 
ATOM     33  C   UNL     1       7.657  -8.636  -5.764  0.00  0.00    +0.021 A 
ATOM     34  C   UNL     1       6.543  -7.822  -5.766  0.00  0.00    +0.013 A 
ATOM     35 CL   UNL     1       8.919 -11.029  -5.843  0.00  0.00    -0.084 Cl
ENDBRANCH  27  29
ENDBRANCH  23  24
ENDBRANCH  21  23
ENDBRANCH   1  19
TORSDOF 8
