REMARK  Name = ZINC49127900
REMARK  8 active torsions:
REMARK  status: ('A' for Active; 'I' for Inactive)
REMARK    1  A    between atoms: C_1  and  C_2
REMARK    2  A    between atoms: C_2  and  C_4
REMARK    3  A    between atoms: C_2  and  N_10
REMARK    4  A    between atoms: N_10  and  C_11
REMARK    5  A    between atoms: C_14  and  S_18
REMARK    6  A    between atoms: C_16  and  N_17
REMARK    7  A    between atoms: S_18  and  N_21
REMARK    8  A    between atoms: N_21  and  C_22
REMARK                            x       y       z     vdW  Elec       q    Type
REMARK                         _______ _______ _______ _____ _____    ______ ____
ROOT
ATOM      1  C   UNL     1       2.083  -0.591  -1.215  0.00  0.00    +0.049 A 
ATOM      2  C   UNL     1       2.818  -0.264  -0.086  0.00  0.00    +0.027 A 
ATOM      3  C   UNL     1       4.196  -0.378  -0.100  0.00  0.00    +0.030 A 
ATOM      4  C   UNL     1       4.845  -0.819  -1.238  0.00  0.00    +0.107 A 
ATOM      5  C   UNL     1       4.121  -1.148  -2.369  0.00  0.00    +0.053 A 
ATOM      6  C   UNL     1       2.738  -1.041  -2.362  0.00  0.00    +0.048 A 
ENDROOT
BRANCH   6   7
ATOM      7  N   UNL     1       2.002  -1.378  -3.504  0.00  0.00    -0.356 N 
ATOM      8  H   UNL     1       1.035  -1.300  -3.499  0.00  0.00    +0.142 HD
ATOM      9  H   UNL     1       2.459  -1.691  -4.301  0.00  0.00    +0.142 HD
ENDBRANCH   6   7
BRANCH   4  10
ATOM     10  S   UNL     1       6.601  -0.961  -1.247  0.00  0.00    +0.058 S 
ATOM     11  O   UNL     1       7.008  -0.875  -2.606  0.00  0.00    -0.153 OA
ATOM     12  O   UNL     1       7.086  -0.075  -0.249  0.00  0.00    -0.153 OA
BRANCH  10  13
ATOM     13  N   UNL     1       6.971  -2.494  -0.740  0.00  0.00    -0.193 NA
ATOM     14  C   UNL     1       6.576  -3.649  -1.550  0.00  0.00    +0.127 C 
ATOM     15  H   UNL     1       7.449  -2.626   0.094  0.00  0.00    +0.148 HD
ENDBRANCH  10  13
ENDBRANCH   4  10
BRANCH   1  16
ATOM     16  N   UNL     1       0.688  -0.476  -1.203  0.00  0.00    -0.335 N 
ATOM     17  H   UNL     1       0.175  -0.710  -1.993  0.00  0.00    +0.147 HD
BRANCH  16  19
ATOM     18  C   UNL     1      -0.019   1.526   0.010  0.00  0.00    +0.033 C 
ATOM     19  C   UNL     1       0.002  -0.004   0.002  0.00  0.00    +0.104 C 
BRANCH  19  20
ATOM     20  C   UNL     1      -1.412  -0.526   0.013  0.00  0.00    +0.011 A 
ATOM     21  C   UNL     1      -2.141  -0.993   1.055  0.00  0.00    +0.014 A 
ATOM     22  C   UNL     1      -3.435  -1.425   0.828  0.00  0.00    +0.028 A 
ATOM     23  C   UNL     1      -3.935  -1.368  -0.431  0.00  0.00    +0.078 A 
ATOM     24  S   UNL     1      -2.563  -0.681  -1.343  0.00  0.00    -0.080 S 
ATOM     25 CL   UNL     1      -5.505  -1.836  -1.006  0.00  0.00    -0.076 Cl
ENDBRANCH  19  20
ENDBRANCH  16  19
ENDBRANCH   1  16
TORSDOF 6
