REMARK  Name = ZINC09381058
REMARK  11 active torsions:
REMARK  status: ('A' for Active; 'I' for Inactive)
REMARK    1  A    between atoms: C_1  and  C_2
REMARK    2  A    between atoms: C_2  and  N_3
REMARK    3  A    between atoms: N_3  and  C_4
REMARK    4  A    between atoms: N_3  and  S_6
REMARK    5  A    between atoms: C_4  and  C_5
REMARK    6  A    between atoms: S_6  and  C_9
REMARK    7  A    between atoms: C_12  and  C_15
REMARK    8  A    between atoms: C_21  and  S_22
REMARK    9  A    between atoms: S_22  and  C_23
REMARK   10  A    between atoms: C_23  and  C_24
REMARK   11  A    between atoms: C_27  and  N_30
REMARK                            x       y       z     vdW  Elec       q    Type
REMARK                         _______ _______ _______ _____ _____    ______ ____
ROOT
ATOM      1  C   UNL     1       3.503   0.385  -0.029  0.00  0.00    +0.252 C 
ATOM      2  O   UNL     1       4.242   1.339  -0.170  0.00  0.00    -0.270 OA
ATOM      3  N   UNL     1       2.170   0.569   0.037  0.00  0.00    -0.245 N 
ATOM      4  C   UNL     1       1.154  -0.496   0.096  0.00  0.00    +0.139 C 
ATOM      5  C   UNL     1      -0.174   0.284   0.159  0.00  0.00    +0.163 C 
ATOM      6  N   UNL     1       0.237   1.694   0.129  0.00  0.00    -0.261 NA
ATOM      7  C   UNL     1       1.525   1.782   0.063  0.00  0.00    +0.159 C 
ENDROOT
BRANCH   1  11
ATOM      8  C   UNL     1       5.123  -3.531   0.253  0.00  0.00    +0.106 A 
ATOM      9  C   UNL     1       5.968  -2.435   0.252  0.00  0.00    +0.029 A 
ATOM     10  C   UNL     1       5.448  -1.161   0.160  0.00  0.00    +0.015 A 
ATOM     11  C   UNL     1       4.067  -0.978   0.069  0.00  0.00    +0.037 A 
ATOM     12  C   UNL     1       3.220  -2.088   0.077  0.00  0.00    +0.015 A 
ATOM     13  C   UNL     1       3.754  -3.358   0.163  0.00  0.00    +0.029 A 
BRANCH   8  14
ATOM     14  S   UNL     1       5.795  -5.156   0.370  0.00  0.00    +0.061 S 
ATOM     15  O   UNL     1       4.834  -6.035  -0.198  0.00  0.00    -0.153 OA
ATOM     16  O   UNL     1       7.132  -5.078  -0.107  0.00  0.00    -0.153 OA
BRANCH  14  17
ATOM     17  N   UNL     1       5.888  -5.533   1.980  0.00  0.00    -0.177 NA
BRANCH  17  19
ATOM     18  C   UNL     1       4.979  -7.702   2.652  0.00  0.00    +0.022 C 
ATOM     19  C   UNL     1       4.759  -6.188   2.645  0.00  0.00    +0.106 C 
ENDBRANCH  17  19
BRANCH  17  20
ATOM     20  C   UNL     1       7.100  -5.212   2.738  0.00  0.00    +0.106 C 
ATOM     21  C   UNL     1       6.921  -3.864   3.439  0.00  0.00    +0.022 C 
ENDBRANCH  17  20
ENDBRANCH  14  17
ENDBRANCH   8  14
ENDBRANCH   1  11
BRANCH   7  22
ATOM     22  S   UNL     1       2.379   3.322   0.011  0.00  0.00    -0.086 S 
BRANCH  22  23
ATOM     23  C   UNL     1       0.975   4.463   0.075  0.00  0.00    +0.112 C 
BRANCH  23  24
ATOM     24  C   UNL     1       1.479   5.883   0.041  0.00  0.00    -0.037 A 
ATOM     25  C   UNL     1       1.765   6.543   1.221  0.00  0.00    +0.007 A 
ATOM     26  C   UNL     1       2.232   7.843   1.190  0.00  0.00    +0.033 A 
ATOM     27  C   UNL     1       2.403   8.488  -0.021  0.00  0.00    +0.126 A 
ATOM     28  C   UNL     1       2.112   7.829  -1.201  0.00  0.00    +0.033 A 
ATOM     29  C   UNL     1       1.650   6.527  -1.170  0.00  0.00    +0.007 A 
BRANCH  27  30
ATOM     30  N   UNL     1       2.898   9.882  -0.054  0.00  0.00    +0.056 N 
ATOM     31  O   UNL     1       3.049  10.449  -1.121  0.00  0.00    -0.126 OA
ATOM     32  O   UNL     1       3.155  10.462   0.986  0.00  0.00    -0.126 OA
ENDBRANCH  27  30
ENDBRANCH  23  24
ENDBRANCH  22  23
ENDBRANCH   7  22
TORSDOF 9
