REMARK  Name = ZINC48354926
REMARK  8 active torsions:
REMARK  status: ('A' for Active; 'I' for Inactive)
REMARK    1  A    between atoms: C_1  and  C_2
REMARK    2  A    between atoms: C_3  and  C_11
REMARK    3  A    between atoms: C_11  and  C_12
REMARK    4  A    between atoms: C_12  and  N_13
REMARK    5  A    between atoms: N_13  and  C_14
REMARK    6  A    between atoms: C_17  and  S_23
REMARK    7  A    between atoms: C_19  and  N_20
REMARK    8  A    between atoms: S_23  and  N_26
REMARK                            x       y       z     vdW  Elec       q    Type
REMARK                         _______ _______ _______ _____ _____    ______ ____
ROOT
ATOM      1  C   UNL     1      -2.682   0.213  -5.182  0.00  0.00    +0.058 A 
ATOM      2  C   UNL     1      -3.876  -0.107  -4.548  0.00  0.00    +0.027 A 
ATOM      3  C   UNL     1      -5.076   0.318  -5.083  0.00  0.00    +0.030 A 
ATOM      4  C   UNL     1      -5.090   1.062  -6.249  0.00  0.00    +0.108 A 
ATOM      5  C   UNL     1      -3.904   1.381  -6.883  0.00  0.00    +0.063 A 
ATOM      6  C   UNL     1      -2.700   0.964  -6.350  0.00  0.00    +0.149 A 
ENDROOT
BRANCH   6   7
ATOM      7  N   UNL     1      -1.430   1.312  -7.026  0.00  0.00    +0.058 N 
ATOM      8  O   UNL     1      -0.452   1.587  -6.371  0.00  0.00    -0.126 OA
ATOM      9  O   UNL     1      -1.371   1.322  -8.234  0.00  0.00    -0.126 OA
ENDBRANCH   6   7
BRANCH   4  10
ATOM     10  S   UNL     1      -6.623   1.602  -6.929  0.00  0.00    +0.061 S 
ATOM     11  O   UNL     1      -6.400   1.815  -8.316  0.00  0.00    -0.153 OA
ATOM     12  O   UNL     1      -7.619   0.710  -6.446  0.00  0.00    -0.153 OA
BRANCH  10  13
ATOM     13  N   UNL     1      -6.956   3.084  -6.269  0.00  0.00    -0.177 NA
ATOM     14  C   UNL     1      -7.710   3.141  -5.037  0.00  0.00    +0.109 C 
ATOM     15  C   UNL     1      -9.224   3.204  -5.358  0.00  0.00    +0.017 C 
ATOM     16  C   UNL     1      -9.573   4.518  -5.921  0.00  0.00    +0.001 C 
ATOM     17  C   UNL     1      -8.892   4.833  -7.250  0.00  0.00    +0.001 C 
ATOM     18  C   UNL     1      -7.524   5.413  -6.985  0.00  0.00    +0.017 C 
ATOM     19  C   UNL     1      -6.464   4.292  -6.960  0.00  0.00    +0.109 C 
ENDBRANCH  10  13
ENDBRANCH   4  10
BRANCH   1  20
ATOM     20  N   UNL     1      -1.467  -0.215  -4.644  0.00  0.00    -0.342 N 
ATOM     21  H   UNL     1      -0.641  -0.065  -5.130  0.00  0.00    +0.146 HD
BRANCH  20  22
ATOM     22  C   UNL     1      -1.439  -0.890  -3.344  0.00  0.00    +0.108 C 
BRANCH  22  23
ATOM     23  C   UNL     1       0.004  -1.252  -2.987  0.00  0.00    +0.074 C 
BRANCH  23  26
ATOM     24  C   UNL     1       0.313   0.115  -0.185  0.00  0.00    +0.065 C 
ATOM     25  C   UNL     1       0.165  -1.362  -0.442  0.00  0.00    +0.034 A 
ATOM     26  C   UNL     1       0.033  -1.946  -1.650  0.00  0.00    +0.040 A 
ATOM     27  N   UNL     1      -0.070  -3.287  -1.427  0.00  0.00    -0.333 N 
ATOM     28  C   UNL     1       0.001  -3.482  -0.089  0.00  0.00    +0.087 A 
ATOM     29  N   UNL     1       0.148  -2.327   0.491  0.00  0.00    -0.347 N 
ATOM     30  C   UNL     1      -0.077  -4.838   0.572  0.00  0.00    +0.072 C 
ATOM     31  C   UNL     1      -0.637  -5.837  -0.448  0.00  0.00    +0.009 C 
ATOM     32  C   UNL     1       0.127  -5.693  -1.768  0.00  0.00    +0.022 C 
ATOM     33  C   UNL     1      -0.229  -4.352  -2.421  0.00  0.00    +0.123 C 
ATOM     34  H   UNL     1       0.230  -2.185   1.448  0.00  0.00    +0.167 HD
ENDBRANCH  23  26
ENDBRANCH  22  23
ENDBRANCH  20  22
ENDBRANCH   1  20
TORSDOF 7
