REMARK  Name = ZINC16713100
REMARK  5 active torsions:
REMARK  status: ('A' for Active; 'I' for Inactive)
REMARK    1  A    between atoms: C_6  and  C_7
REMARK    2  A    between atoms: C_7  and  C_8
REMARK    3  A    between atoms: N_14  and  N_15
REMARK    4  A    between atoms: C_16  and  C_17
REMARK    5  A    between atoms: C_20  and  O_23
REMARK                            x       y       z     vdW  Elec       q    Type
REMARK                         _______ _______ _______ _____ _____    ______ ____
ROOT
ATOM      1  C   UNL     1      -1.745  -1.028  -1.429  0.00  0.00    +0.144 C 
ATOM      2  C   UNL     1      -3.036  -1.830  -1.468  0.00  0.00    +0.232 C 
ATOM      3  O   UNL     1      -3.110  -2.955  -1.021  0.00  0.00    -0.274 OA
ATOM      4  N   UNL     1      -4.074  -1.224  -2.019  0.00  0.00    -0.263 N 
ATOM      5  C   UNL     1      -3.999   0.055  -2.530  0.00  0.00    +0.183 C 
ATOM      6  N   UNL     1      -4.954   0.760  -3.099  0.00  0.00    -0.127 NA
ATOM      7  S   UNL     1      -2.300   0.530  -2.237  0.00  0.00    -0.075 S 
ATOM      8  H   UNL     1      -4.920  -1.697  -2.066  0.00  0.00    +0.157 HD
ENDROOT
BRANCH   6   9
ATOM      9  N   UNL     1      -6.135   0.258  -3.231  0.00  0.00    -0.155 NA
ATOM     10  C   UNL     1      -7.081   0.958  -3.795  0.00  0.00    +0.143 C 
BRANCH  10  11
ATOM     11  C   UNL     1      -8.428   0.386  -3.946  0.00  0.00    -0.005 A 
ATOM     12  C   UNL     1      -8.699  -0.905  -3.481  0.00  0.00    +0.013 A 
ATOM     13  C   UNL     1      -9.962  -1.436  -3.625  0.00  0.00    +0.046 A 
ATOM     14  C   UNL     1     -10.966  -0.692  -4.230  0.00  0.00    +0.117 A 
ATOM     15  C   UNL     1     -10.703   0.591  -4.695  0.00  0.00    +0.046 A 
ATOM     16  C   UNL     1      -9.445   1.133  -4.551  0.00  0.00    +0.013 A 
BRANCH  14  17
ATOM     17  O   UNL     1     -12.210  -1.220  -4.369  0.00  0.00    -0.507 OA
ATOM     18  H   UNL     1     -12.799  -1.042  -3.623  0.00  0.00    +0.292 HD
ENDBRANCH  14  17
ENDBRANCH  10  11
ENDBRANCH   6   9
BRANCH   1  19
ATOM     19  C   UNL     1      -1.293  -0.775   0.011  0.00  0.00    +0.059 C 
BRANCH  19  25
ATOM     20  C   UNL     1      -0.017   1.378   0.010  0.00  0.00    +0.005 A 
ATOM     21  C   UNL     1       1.171   2.086   0.002  0.00  0.00    +0.020 A 
ATOM     22  C   UNL     1       2.378   1.410  -0.013  0.00  0.00    +0.041 A 
ATOM     23  C   UNL     1       2.396   0.027  -0.021  0.00  0.00    +0.020 A 
ATOM     24  C   UNL     1       1.208  -0.679  -0.013  0.00  0.00    +0.005 A 
ATOM     25  C   UNL     1       0.002  -0.004   0.002  0.00  0.00    -0.046 A 
ATOM     26 CL   UNL     1       3.870   2.298  -0.023  0.00  0.00    -0.084 Cl
ENDBRANCH  19  25
ENDBRANCH   1  19
TORSDOF 5
