REMARK  Name = ZINC40011060
REMARK  8 active torsions:
REMARK  status: ('A' for Active; 'I' for Inactive)
REMARK    1  A    between atoms: C_1  and  C_2
REMARK    2  A    between atoms: C_2  and  O_3
REMARK    3  A    between atoms: O_3  and  C_4
REMARK    4  A    between atoms: C_11  and  C_16
REMARK    5  A    between atoms: C_20  and  O_29
REMARK    6  A    between atoms: C_21  and  O_27
REMARK    7  A    between atoms: O_27  and  C_28
REMARK    8  A    between atoms: O_29  and  C_30
REMARK                            x       y       z     vdW  Elec       q    Type
REMARK                         _______ _______ _______ _____ _____    ______ ____
ROOT
ATOM      1  C   UNL     1      -5.010  -6.348   1.236  0.00  0.00    -0.025 C 
ATOM      2  C   UNL     1      -6.259  -5.515   1.351  0.00  0.00    -0.054 A 
ATOM      3  C   UNL     1      -6.176  -4.156   1.079  0.00  0.00    +0.051 A 
ATOM      4  C   UNL     1      -7.298  -3.353   1.175  0.00  0.00    +0.162 A 
ATOM      5  C   UNL     1      -8.517  -3.913   1.546  0.00  0.00    +0.162 A 
ATOM      6  C   UNL     1      -8.596  -5.268   1.814  0.00  0.00    +0.053 A 
ATOM      7  C   UNL     1      -7.468  -6.068   1.716  0.00  0.00    -0.044 A 
ATOM      8  C   UNL     1      -7.601  -7.541   2.010  0.00  0.00    +0.016 C 
ATOM      9  C   UNL     1      -6.218  -8.151   2.237  0.00  0.00    -0.077 C 
ATOM     10  N   UNL     1      -5.347  -7.769   1.115  0.00  0.00    +0.385 N 
ATOM     11  H   UNL     1      -5.830  -7.929   0.243  0.00  0.00    -0.085 HD
ATOM     12  H   UNL     1      -4.503  -8.320   1.141  0.00  0.00    -0.085 HD
ENDROOT
BRANCH   1  20
ATOM     13  C   UNL     1      -0.714  -8.718  -1.929  0.00  0.00    +0.121 A 
ATOM     14  C   UNL     1      -1.578  -8.965  -3.002  0.00  0.00    +0.047 A 
ATOM     15  C   UNL     1      -2.823  -8.429  -3.077  0.00  0.00    +0.027 A 
ATOM     16  C   UNL     1      -3.303  -7.586  -2.056  0.00  0.00    +0.041 A 
ATOM     17  N   UNL     1      -4.527  -7.067  -2.143  0.00  0.00    -0.285 N 
ATOM     18  C   UNL     1      -5.040  -6.269  -1.222  0.00  0.00    +0.223 C 
ATOM     19  O   UNL     1      -6.165  -5.825  -1.356  0.00  0.00    -0.275 OA
ATOM     20  C   UNL     1      -4.223  -5.910  -0.001  0.00  0.00    +0.089 C 
ATOM     21  C   UNL     1      -2.829  -6.498   0.102  0.00  0.00    -0.006 C 
ATOM     22  C   UNL     1      -2.416  -7.308  -0.913  0.00  0.00    -0.004 A 
ATOM     23  C   UNL     1      -1.087  -7.921  -0.889  0.00  0.00    +0.055 A 
ATOM     24  H   UNL     1      -5.068  -7.285  -2.918  0.00  0.00    +0.155 HD
BRANCH  13  25
ATOM     25  O   UNL     1       0.519  -9.289  -1.921  0.00  0.00    -0.492 OA
BRANCH  25  27
ATOM     26  C   UNL     1       2.274 -10.666  -2.851  0.00  0.00    +0.048 C 
ATOM     27  C   UNL     1       0.859 -10.116  -3.036  0.00  0.00    +0.225 C 
ENDBRANCH  25  27
ENDBRANCH  13  25
ENDBRANCH   1  20
BRANCH   5  28
ATOM     28  O   UNL     1      -9.625  -3.131   1.645  0.00  0.00    -0.491 OA
ATOM     29  C   UNL     1     -10.841  -3.775   2.031  0.00  0.00    +0.277 C 
ENDBRANCH   5  28
BRANCH   4  30
ATOM     30  O   UNL     1      -7.210  -2.023   0.908  0.00  0.00    -0.491 OA
ATOM     31  C   UNL     1      -5.926  -1.520   0.533  0.00  0.00    +0.277 C 
ENDBRANCH   4  30
TORSDOF 5
