REMARK  Name = ZINC41769759
REMARK  9 active torsions:
REMARK  status: ('A' for Active; 'I' for Inactive)
REMARK    1  A    between atoms: C_1  and  C_2
REMARK    2  A    between atoms: C_2  and  C_4
REMARK    3  A    between atoms: C_2  and  N_14
REMARK    4  A    between atoms: C_8  and  O_10
REMARK    5  A    between atoms: O_10  and  C_11
REMARK    6  A    between atoms: C_11  and  C_12
REMARK    7  A    between atoms: C_11  and  C_13
REMARK    8  A    between atoms: C_15  and  C_17
REMARK    9  A    between atoms: N_19  and  C_20
REMARK                            x       y       z     vdW  Elec       q    Type
REMARK                         _______ _______ _______ _____ _____    ______ ____
ROOT
ATOM      1  N   UNL     1      -1.068  -0.402  -0.171  0.00  0.00    -0.301 N 
ATOM      2  C   UNL     1      -1.825  -0.504  -1.281  0.00  0.00    +0.300 C 
ATOM      3  O   UNL     1      -1.371  -0.173  -2.357  0.00  0.00    -0.265 OA
ATOM      4  H   UNL     1      -1.430  -0.667   0.689  0.00  0.00    +0.150 HD
ENDROOT
BRANCH   2   5
ATOM      5  C   UNL     1      -3.221  -1.024  -1.188  0.00  0.00    +0.303 C 
ATOM      6  O   UNL     1      -3.675  -1.355  -0.112  0.00  0.00    -0.265 OA
ATOM      7  N   UNL     1      -3.978  -1.126  -2.298  0.00  0.00    -0.275 N 
ATOM      8  H   UNL     1      -3.591  -0.940  -3.168  0.00  0.00    +0.155 HD
BRANCH   7   9
ATOM      9  C   UNL     1      -5.322  -1.501  -2.197  0.00  0.00    +0.071 A 
ATOM     10  C   UNL     1      -6.020  -1.276  -1.017  0.00  0.00    +0.026 A 
ATOM     11  C   UNL     1      -7.346  -1.647  -0.919  0.00  0.00    +0.003 A 
ATOM     12  C   UNL     1      -7.982  -2.242  -1.993  0.00  0.00    +0.023 A 
ATOM     13  C   UNL     1      -7.292  -2.468  -3.171  0.00  0.00    +0.078 A 
ATOM     14  C   UNL     1      -5.964  -2.094  -3.279  0.00  0.00    +0.163 A 
ATOM     15  F   UNL     1      -5.291  -2.309  -4.430  0.00  0.00    -0.202 F 
ATOM     16 CL   UNL     1      -8.094  -3.216  -4.517  0.00  0.00    -0.081 Cl
ENDBRANCH   7   9
ENDBRANCH   2   5
BRANCH   1  18
ATOM     17  C   UNL     1       0.282   1.637  -0.212  0.00  0.00    +0.033 C 
ATOM     18  C   UNL     1       0.303   0.108  -0.263  0.00  0.00    +0.101 C 
BRANCH  18  19
ATOM     19  C   UNL     1       1.115  -0.422   0.891  0.00  0.00    -0.024 A 
ATOM     20  C   UNL     1       0.550  -0.512   2.150  0.00  0.00    +0.006 A 
ATOM     21  C   UNL     1       1.292  -0.998   3.210  0.00  0.00    +0.004 A 
ATOM     22  C   UNL     1       2.600  -1.395   3.014  0.00  0.00    +0.045 A 
ATOM     23  C   UNL     1       3.169  -1.307   1.752  0.00  0.00    +0.121 A 
ATOM     24  C   UNL     1       2.421  -0.824   0.688  0.00  0.00    +0.051 A 
BRANCH  23  25
ATOM     25  O   UNL     1       4.456  -1.697   1.557  0.00  0.00    -0.489 OA
BRANCH  25  26
ATOM     26  C   UNL     1       5.198  -2.089   2.714  0.00  0.00    +0.167 C 
ATOM     27  C   UNL     1       6.325  -3.037   2.300  0.00  0.00    +0.051 C 
ATOM     28  C   UNL     1       5.795  -0.848   3.381  0.00  0.00    +0.051 C 
ENDBRANCH  25  26
ENDBRANCH  23  25
ENDBRANCH  18  19
ENDBRANCH   1  18
TORSDOF 6
