REMARK  Name = ZINC10285136
REMARK  8 active torsions:
REMARK  status: ('A' for Active; 'I' for Inactive)
REMARK    1  A    between atoms: C_1  and  C_2
REMARK    2  A    between atoms: C_2  and  C_4
REMARK    3  A    between atoms: C_2  and  N_14
REMARK    4  A    between atoms: N_17  and  C_18
REMARK    5  A    between atoms: C_18  and  C_20
REMARK    6  A    between atoms: C_18  and  C_27
REMARK    7  A    between atoms: C_27  and  C_28
REMARK    8  A    between atoms: C_27  and  C_29
REMARK                            x       y       z     vdW  Elec       q    Type
REMARK                         _______ _______ _______ _____ _____    ______ ____
ROOT
ATOM      1  N   UNL     1       0.688  -0.476  -1.203  0.00  0.00    -0.293 N 
ATOM      2  C   UNL     1       0.006  -0.608  -2.358  0.00  0.00    +0.301 C 
ATOM      3  O   UNL     1      -1.178  -0.335  -2.400  0.00  0.00    -0.253 OA
ATOM      4  N   UNL     1       0.637  -1.043  -3.467  0.00  0.00    -0.292 N 
ATOM      5  H   UNL     1       1.632  -0.695  -1.170  0.00  0.00    +0.151 HD
ATOM      6  H   UNL     1       1.582  -1.261  -3.434  0.00  0.00    +0.151 HD
ENDROOT
BRANCH   1   8
ATOM      7  C   UNL     1      -0.019   1.526   0.010  0.00  0.00    +0.033 C 
ATOM      8  C   UNL     1       0.002  -0.004   0.002  0.00  0.00    +0.102 C 
BRANCH   8   9
ATOM      9  C   UNL     1       0.731  -0.503   1.223  0.00  0.00    -0.024 A 
ATOM     10  C   UNL     1       2.113  -0.513   1.245  0.00  0.00    +0.009 A 
ATOM     11  C   UNL     1       2.785  -0.972   2.363  0.00  0.00    +0.050 A 
ATOM     12  C   UNL     1       2.074  -1.423   3.465  0.00  0.00    +0.162 A 
ATOM     13  C   UNL     1       0.685  -1.410   3.443  0.00  0.00    +0.162 A 
ATOM     14  C   UNL     1       0.017  -0.945   2.320  0.00  0.00    +0.055 A 
ATOM     15  O   UNL     1      -0.033  -1.841   4.517  0.00  0.00    -0.485 OA
ATOM     16  C   UNL     1       0.665  -2.640   5.478  0.00  0.00    +0.270 C 
ATOM     17  C   UNL     1       2.010  -1.965   5.779  0.00  0.00    +0.270 C 
ATOM     18  O   UNL     1       2.750  -1.875   4.556  0.00  0.00    -0.485 OA
ENDBRANCH   8   9
ENDBRANCH   1   8
BRANCH   4  19
ATOM     19  C   UNL     1      -0.104  -1.186  -4.723  0.00  0.00    +0.107 C 
BRANCH  19  20
ATOM     20  C   UNL     1       0.578  -2.208  -5.595  0.00  0.00    -0.027 A 
ATOM     21  C   UNL     1       1.958  -2.250  -5.660  0.00  0.00    +0.008 A 
ATOM     22  C   UNL     1       2.585  -3.188  -6.459  0.00  0.00    +0.038 A 
ATOM     23  C   UNL     1       1.830  -4.086  -7.194  0.00  0.00    +0.123 A 
ATOM     24  C   UNL     1       0.447  -4.043  -7.128  0.00  0.00    +0.038 A 
ATOM     25  C   UNL     1      -0.177  -3.108  -6.325  0.00  0.00    +0.008 A 
ATOM     26  F   UNL     1       2.441  -5.003  -7.976  0.00  0.00    -0.205 F 
ENDBRANCH  19  20
BRANCH  19  27
ATOM     27  C   UNL     1      -0.141   0.160  -5.449  0.00  0.00    +0.008 C 
ATOM     28  C   UNL     1      -0.915   0.011  -6.761  0.00  0.00    +0.009 C 
ATOM     29  C   UNL     1      -0.833   1.198  -4.564  0.00  0.00    +0.009 C 
ENDBRANCH  19  27
ENDBRANCH   4  19
TORSDOF 5
