REMARK  Name = ZINC12791447
REMARK  6 active torsions:
REMARK  status: ('A' for Active; 'I' for Inactive)
REMARK    1  A    between atoms: C_1  and  C_2
REMARK    2  A    between atoms: C_2  and  C_4
REMARK    3  A    between atoms: C_2  and  N_52
REMARK    4  A    between atoms: N_6  and  C_7
REMARK    5  A    between atoms: C_8  and  C_17
REMARK    6  A    between atoms: C_21  and  C_24
REMARK                            x       y       z     vdW  Elec       q    Type
REMARK                         _______ _______ _______ _____ _____    ______ ____
ROOT
ATOM      1  C   UNL     1       6.622  -2.356   1.640  0.00  0.00    +0.204 C 
ATOM      2  O   UNL     1       6.957  -1.416   0.950  0.00  0.00    -0.277 OA
ATOM      3  N   UNL     1       5.318  -2.564   1.907  0.00  0.00    -0.280 N 
ATOM      4  H   UNL     1       5.050  -3.316   2.458  0.00  0.00    +0.155 HD
ENDROOT
BRANCH   3   5
ATOM      5  C   UNL     1       4.358  -1.704   1.393  0.00  0.00    +0.090 A 
ATOM      6  C   UNL     1       2.983  -1.753   1.554  0.00  0.00    +0.084 A 
ATOM      7  C   UNL     1       2.187  -0.719   0.907  0.00  0.00    -0.018 A 
ATOM      8  C   UNL     1       2.897   0.186   0.199  0.00  0.00    -0.004 A 
ATOM      9  S   UNL     1       4.588  -0.308   0.393  0.00  0.00    -0.077 S 
ATOM     10  C   UNL     1       2.373   1.343  -0.593  0.00  0.00    +0.043 C 
ATOM     11  C   UNL     1       1.374   2.132   0.265  0.00  0.00    +0.005 C 
ATOM     12  C   UNL     1      -0.017   1.544   0.050  0.00  0.00    +0.001 C 
ATOM     13  C   UNL     1       0.081   0.040  -0.197  0.00  0.00    +0.005 C 
ATOM     14  C   UNL     1       0.669  -0.663   1.022  0.00  0.00    +0.037 C 
BRANCH   6  15
ATOM     15  C   UNL     1       2.365  -2.785   2.331  0.00  0.00    +0.102 C 
ATOM     16  N   UNL     1       1.875  -3.603   2.948  0.00  0.00    -0.191 NA
ENDBRANCH   6  15
ENDBRANCH   3   5
BRANCH   1  18
ATOM     17  C   UNL     1       7.850  -3.014   3.691  0.00  0.00    -0.004 C 
ATOM     18  C   UNL     1       7.665  -3.290   2.198  0.00  0.00    +0.016 C 
BRANCH  18  24
ATOM     19  C   UNL     1       9.858  -4.199   1.723  0.00  0.00    -0.077 C 
ATOM     20  C   UNL     1      11.113  -4.012   0.867  0.00  0.00    -0.006 C 
ATOM     21  C   UNL     1      11.790  -2.692   1.244  0.00  0.00    +0.071 C 
ATOM     22  C   UNL     1      10.796  -1.543   1.047  0.00  0.00    -0.006 C 
ATOM     23  C   UNL     1       9.551  -1.802   1.898  0.00  0.00    -0.077 C 
ATOM     24  N   UNL     1       8.932  -3.075   1.470  0.00  0.00    +0.387 N 
ATOM     25  H   UNL     1       8.735  -3.026   0.463  0.00  0.00    -0.081 HD
BRANCH  21  26
ATOM     26  C   UNL     1      12.993  -2.473   0.364  0.00  0.00    +0.213 C 
ATOM     27  O   UNL     1      13.052  -1.494  -0.351  0.00  0.00    -0.276 OA
ATOM     28  N   UNL     1      14.005  -3.363   0.371  0.00  0.00    -0.329 N 
ATOM     29  H   UNL     1      13.958  -4.146   0.943  0.00  0.00    +0.145 HD
ATOM     30  H   UNL     1      14.780  -3.222  -0.195  0.00  0.00    +0.145 HD
ENDBRANCH  21  26
ENDBRANCH  18  24
ENDBRANCH   1  18
TORSDOF 5
