REMARK  Name = ZINC36637283
REMARK  11 active torsions:
REMARK  status: ('A' for Active; 'I' for Inactive)
REMARK    1  A    between atoms: C_1  and  C_2
REMARK    2  A    between atoms: C_2  and  C_3
REMARK    3  A    between atoms: N_9  and  S_10
REMARK    4  A    between atoms: S_10  and  C_13
REMARK    5  A    between atoms: C_16  and  C_19
REMARK    6  A    between atoms: N_21  and  C_22
REMARK    7  A    between atoms: C_22  and  C_23
REMARK    8  A    between atoms: C_23  and  N_24
REMARK    9  A    between atoms: N_24  and  C_25
REMARK   10  A    between atoms: N_24  and  C_26
REMARK   11  A    between atoms: C_32  and  C_36
REMARK                            x       y       z     vdW  Elec       q    Type
REMARK                         _______ _______ _______ _____ _____    ______ ____
ROOT
ATOM      1  C   UNL     1      -3.065   6.638   1.018  0.00  0.00    +0.252 C 
ATOM      2  O   UNL     1      -2.386   7.286   0.246  0.00  0.00    -0.270 OA
ATOM      3  N   UNL     1      -4.102   7.218   1.654  0.00  0.00    -0.248 N 
ATOM      4  C   UNL     1      -4.484   8.507   1.322  0.00  0.00    +0.168 A 
ATOM      5  N   UNL     1      -5.453   9.234   1.828  0.00  0.00    -0.224 NA
ATOM      6  C   UNL     1      -5.715  10.489   1.404  0.00  0.00    +0.080 A 
ATOM      7  C   UNL     1      -6.720  11.373   1.861  0.00  0.00    +0.029 A 
ATOM      8  C   UNL     1      -6.851  12.624   1.318  0.00  0.00    +0.005 A 
ATOM      9  C   UNL     1      -6.009  13.069   0.309  0.00  0.00    -0.049 A 
ATOM     10  C   UNL     1      -5.015  12.232  -0.161  0.00  0.00    +0.020 A 
ATOM     11  C   UNL     1      -4.876  10.976   0.376  0.00  0.00    +0.041 A 
ATOM     12  S   UNL     1      -3.778   9.606   0.102  0.00  0.00    -0.052 S 
ATOM     13  C   UNL     1      -6.177  14.451  -0.269  0.00  0.00    +0.044 C 
ENDROOT
BRANCH   1  17
ATOM     14  C   UNL     1      -2.172   2.543   1.710  0.00  0.00    +0.106 A 
ATOM     15  C   UNL     1      -2.614   3.338   2.753  0.00  0.00    +0.029 A 
ATOM     16  C   UNL     1      -2.906   4.668   2.535  0.00  0.00    +0.015 A 
ATOM     17  C   UNL     1      -2.754   5.213   1.259  0.00  0.00    +0.037 A 
ATOM     18  C   UNL     1      -2.307   4.406   0.211  0.00  0.00    +0.015 A 
ATOM     19  C   UNL     1      -2.013   3.079   0.444  0.00  0.00    +0.029 A 
BRANCH  14  20
ATOM     20  S   UNL     1      -1.801   0.845   1.997  0.00  0.00    +0.061 S 
ATOM     21  O   UNL     1      -2.084   0.157   0.786  0.00  0.00    -0.153 OA
ATOM     22  O   UNL     1      -2.416   0.498   3.231  0.00  0.00    -0.153 OA
BRANCH  20  28
ATOM     23  C   UNL     1       0.423   1.045   3.544  0.00  0.00    +0.080 C 
ATOM     24  C   UNL     1       1.283  -0.140   3.995  0.00  0.00    +0.021 C 
ATOM     25  C   UNL     1       2.308  -0.464   2.906  0.00  0.00    +0.003 C 
ATOM     26  C   UNL     1       1.580  -0.858   1.619  0.00  0.00    +0.017 C 
ATOM     27  C   UNL     1       0.723   0.318   1.141  0.00  0.00    +0.110 C 
ATOM     28  N   UNL     1      -0.166   0.734   2.235  0.00  0.00    -0.174 NA
BRANCH  23  30
ATOM     29  C   UNL     1      -0.082   1.762   5.884  0.00  0.00    +0.005 C 
ATOM     30  C   UNL     1      -0.692   1.286   4.564  0.00  0.00    +0.017 C 
ENDBRANCH  23  30
ENDBRANCH  20  28
ENDBRANCH  14  20
ENDBRANCH   1  17
BRANCH   3  31
ATOM     31  C   UNL     1      -4.824   6.485   2.696  0.00  0.00    +0.097 C 
BRANCH  31  32
ATOM     32  C   UNL     1      -4.309   6.915   4.072  0.00  0.00    -0.060 C 
BRANCH  32  33
ATOM     33  N   UNL     1      -4.937   6.086   5.110  0.00  0.00    +0.377 N 
ATOM     34  C   UNL     1      -4.355   6.416   6.418  0.00  0.00    -0.097 C 
ATOM     35  C   UNL     1      -6.382   6.347   5.137  0.00  0.00    -0.097 C 
ATOM     36  H   UNL     1      -4.775   5.111   4.906  0.00  0.00    -0.083 HD
ENDBRANCH  32  33
ENDBRANCH  31  32
ENDBRANCH   3  31
TORSDOF 7
