REMARK  Name = ZINC66401143
REMARK  9 active torsions:
REMARK  status: ('A' for Active; 'I' for Inactive)
REMARK    1  A    between atoms: C_1  and  C_2
REMARK    2  A    between atoms: C_7  and  C_8
REMARK    3  A    between atoms: C_8  and  C_10
REMARK    4  A    between atoms: C_8  and  N_12
REMARK    5  A    between atoms: C_13  and  C_15
REMARK    6  A    between atoms: C_15  and  C_16
REMARK    7  A    between atoms: C_16  and  C_17
REMARK    8  A    between atoms: C_18  and  C_31
REMARK    9  A    between atoms: C_20  and  C_25
REMARK                            x       y       z     vdW  Elec       q    Type
REMARK                         _______ _______ _______ _____ _____    ______ ____
ROOT
ATOM      1  C   UNL     1      -2.451  -0.260   6.730  0.00  0.00    +0.051 C 
ENDROOT
BRANCH   1   2
ATOM      2  C   UNL     1      -3.029  -1.138   7.810  0.00  0.00    +0.038 A 
ATOM      3  C   UNL     1      -2.327  -1.386   8.952  0.00  0.00    +0.049 A 
ATOM      4  N   UNL     1      -2.846  -2.163   9.901  0.00  0.00    -0.234 NA
ATOM      5  C   UNL     1      -4.037  -2.708   9.766  0.00  0.00    +0.142 A 
ATOM      6  N   UNL     1      -4.787  -2.497   8.648  0.00  0.00    -0.307 N 
ATOM      7  H   UNL     1      -5.662  -2.905   8.564  0.00  0.00    +0.170 HD
ATOM      8  C   UNL     1      -4.307  -1.712   7.659  0.00  0.00    +0.255 A 
ATOM      9  O   UNL     1      -4.966  -1.507   6.653  0.00  0.00    -0.268 OA
ATOM     10  C   UNL     1      -0.960  -0.780   9.141  0.00  0.00    +0.066 C 
BRANCH   5  11
ATOM     11  C   UNL     1      -4.570  -3.564  10.846  0.00  0.00    +0.035 A 
ATOM     12  C   UNL     1      -3.822  -3.793  12.008  0.00  0.00    +0.014 A 
ATOM     13  C   UNL     1      -4.367  -4.602  12.989  0.00  0.00    +0.020 A 
ATOM     14  C   UNL     1      -5.620  -5.154  12.793  0.00  0.00    +0.111 A 
ATOM     15  N   UNL     1      -6.302  -4.921  11.688  0.00  0.00    -0.263 NA
ATOM     16  C   UNL     1      -5.830  -4.153  10.728  0.00  0.00    +0.122 A 
ENDBRANCH   5  11
ENDBRANCH   1   2
BRANCH   1  17
ATOM     17  C   UNL     1      -1.768  -1.133   5.675  0.00  0.00    +0.100 C 
BRANCH  17  19
ATOM     18  N   UNL     1      -0.537  -0.808   3.554  0.00  0.00    -0.296 N 
ATOM     19  C   UNL     1      -1.190  -0.255   4.595  0.00  0.00    +0.215 C 
ATOM     20  O   UNL     1      -1.312   0.950   4.663  0.00  0.00    -0.276 OA
ATOM     21  H   UNL     1      -0.440  -1.772   3.500  0.00  0.00    +0.150 HD
BRANCH  18  22
ATOM     22  C   UNL     1       0.025   0.045   2.504  0.00  0.00    +0.207 C 
BRANCH  22  29
ATOM     23  C   UNL     1      -0.096   1.486   0.003  0.00  0.00    +0.044 C 
ATOM     24  C   UNL     1      -0.017  -0.019   0.003  0.00  0.00    -0.045 A 
ATOM     25  C   UNL     1       0.003  -0.710  -1.195  0.00  0.00    +0.004 A 
ATOM     26  C   UNL     1       0.076  -2.090  -1.195  0.00  0.00    +0.000 A 
ATOM     27  C   UNL     1       0.129  -2.780   0.002  0.00  0.00    +0.000 A 
ATOM     28  C   UNL     1       0.110  -2.089   1.199  0.00  0.00    +0.007 A 
ATOM     29  C   UNL     1       0.041  -0.709   1.199  0.00  0.00    -0.010 A 
ENDBRANCH  22  29
BRANCH  22  30
ATOM     30  C   UNL     1       1.400   0.428   2.867  0.00  0.00    +0.090 C 
ATOM     31  N   UNL     1       2.460   0.723   3.147  0.00  0.00    -0.194 NA
ENDBRANCH  22  30
ENDBRANCH  18  22
ENDBRANCH  17  19
ENDBRANCH   1  17
TORSDOF 7
