REMARK  Name = ZINC12208971
REMARK  4 active torsions:
REMARK  status: ('A' for Active; 'I' for Inactive)
REMARK    1  A    between atoms: C_1  and  C_2
REMARK    2  A    between atoms: C_5  and  N_17
REMARK    3  A    between atoms: C_7  and  S_8
REMARK    4  A    between atoms: S_8  and  N_11
REMARK                            x       y       z     vdW  Elec       q    Type
REMARK                         _______ _______ _______ _____ _____    ______ ____
ROOT
ATOM      1  C   UNL     1       0.279   1.483  -0.068  0.00  0.00    +0.046 C 
ATOM      2  C   UNL     1       0.101  -0.013  -0.071  0.00  0.00    -0.024 A 
ATOM      3  C   UNL     1      -0.036  -0.695   1.125  0.00  0.00    +0.007 A 
ATOM      4  C   UNL     1      -0.199  -2.066   1.125  0.00  0.00    +0.025 A 
ATOM      5  C   UNL     1      -0.225  -2.761  -0.078  0.00  0.00    +0.053 A 
ATOM      6  C   UNL     1      -0.087  -2.074  -1.277  0.00  0.00    +0.053 A 
ATOM      7  C   UNL     1       0.070  -0.701  -1.270  0.00  0.00    +0.113 A 
ENDROOT
BRANCH   5   8
ATOM      8  N   UNL     1      -0.389  -4.148  -0.081  0.00  0.00    -0.207 N 
ATOM      9  C   UNL     1      -1.533  -4.775  -0.760  0.00  0.00    +0.131 C 
ATOM     10  C   UNL     1      -1.024  -5.770  -1.802  0.00  0.00    +0.022 C 
ATOM     11  C   UNL     1      -0.280  -6.921  -1.130  0.00  0.00    +0.026 C 
ATOM     12  C   UNL     1       1.055  -6.418  -0.567  0.00  0.00    +0.189 C 
ATOM     13  S   UNL     1       0.708  -5.144   0.678  0.00  0.00    +0.045 S 
ATOM     14  O   UNL     1       1.856  -4.335   0.890  0.00  0.00    -0.155 OA
ATOM     15  O   UNL     1      -0.001  -5.706   1.774  0.00  0.00    -0.155 OA
ENDBRANCH   5   8
BRANCH   7  16
ATOM     16  S   UNL     1       0.237   0.172  -2.791  0.00  0.00    +0.074 S 
ATOM     17  O   UNL     1       0.240  -0.805  -3.823  0.00  0.00    -0.150 OA
ATOM     18  O   UNL     1      -0.704   1.237  -2.753  0.00  0.00    -0.150 OA
BRANCH  16  19
ATOM     19  N   UNL     1       1.740   0.868  -2.793  0.00  0.00    -0.194 N 
ATOM     20  C   UNL     1       2.864   0.078  -2.721  0.00  0.00    +0.169 C 
ATOM     21  N   UNL     1       2.908  -1.217  -2.726  0.00  0.00    -0.262 NA
ATOM     22  C   UNL     1       4.156  -1.941  -2.646  0.00  0.00    +0.155 C 
ATOM     23  C   UNL     1       5.384  -1.008  -2.558  0.00  0.00    +0.100 C 
ATOM     24  S   UNL     1       4.555   0.627  -2.611  0.00  0.00    -0.088 S 
ATOM     25  H   UNL     1       1.827   1.833  -2.845  0.00  0.00    +0.176 HD
ENDBRANCH  16  19
ENDBRANCH   7  16
TORSDOF 3
