REMARK  Name = ZINC22530274
REMARK  9 active torsions:
REMARK  status: ('A' for Active; 'I' for Inactive)
REMARK    1  A    between atoms: C_1  and  C_2
REMARK    2  A    between atoms: C_2  and  C_3
REMARK    3  A    between atoms: C_5  and  S_8
REMARK    4  A    between atoms: S_8  and  C_9
REMARK    5  A    between atoms: C_11  and  C_27
REMARK    6  A    between atoms: C_12  and  C_26
REMARK    7  A    between atoms: C_16  and  C_18
REMARK    8  A    between atoms: C_18  and  N_19
REMARK    9  A    between atoms: C_22  and  C_25
REMARK                            x       y       z     vdW  Elec       q    Type
REMARK                         _______ _______ _______ _____ _____    ______ ____
ROOT
ATOM      1  C   UNL     1      -0.403   6.310  -0.473  0.00  0.00    +0.116 A 
ATOM      2  C   UNL     1      -0.713   7.672  -0.205  0.00  0.00    +0.043 A 
ATOM      3  C   UNL     1      -1.996   8.297   0.064  0.00  0.00    -0.029 A 
ATOM      4  C   UNL     1      -2.046   9.617   0.299  0.00  0.00    -0.008 A 
ATOM      5  S   UNL     1      -0.341  10.125   0.184  0.00  0.00    -0.074 S 
ATOM      6  C   UNL     1       0.392   8.551  -0.178  0.00  0.00    +0.113 A 
ATOM      7  N   UNL     1       1.618   8.120  -0.400  0.00  0.00    -0.227 NA
ATOM      8  C   UNL     1       1.843   6.844  -0.649  0.00  0.00    +0.115 A 
ATOM      9  N   UNL     1       0.858   5.965  -0.684  0.00  0.00    -0.227 NA
ATOM     10  C   UNL     1      -3.255  10.467   0.592  0.00  0.00    +0.052 C 
ATOM     11  C   UNL     1      -3.259   7.474   0.071  0.00  0.00    +0.045 C 
ENDROOT
BRANCH   1  12
ATOM     12  S   UNL     1      -1.681   5.099  -0.531  0.00  0.00    -0.030 S 
BRANCH  12  15
ATOM     13  C   UNL     1      -0.104   1.621  -1.327  0.00  0.00    +0.152 A 
ATOM     14  N   UNL     1      -1.200   2.395  -1.066  0.00  0.00    -0.205 NA
ATOM     15  C   UNL     1      -0.726   3.664  -0.895  0.00  0.00    +0.190 A 
ATOM     16  N   UNL     1       0.576   3.612  -1.054  0.00  0.00    -0.253 N 
ATOM     17  N   UNL     1       0.938   2.405  -1.304  0.00  0.00    -0.157 NA
ATOM     18  H   UNL     1       1.329   4.412  -1.002  0.00  0.00    +0.191 HD
BRANCH  13  20
ATOM     19  C   UNL     1       0.582  -0.139  -2.933  0.00  0.00    +0.012 C 
ATOM     20  C   UNL     1      -0.100   0.138  -1.591  0.00  0.00    +0.075 C 
ENDBRANCH  13  20
ENDBRANCH  12  15
ENDBRANCH   1  12
BRANCH   8  21
ATOM     21  C   UNL     1       3.254   6.380  -0.898  0.00  0.00    -0.001 C 
BRANCH  21  22
ATOM     22  N   UNL     1       3.551   6.464  -2.334  0.00  0.00    +0.384 N 
ATOM     23  C   UNL     1       3.100   7.746  -2.890  0.00  0.00    -0.078 C 
ATOM     24  C   UNL     1       3.292   7.741  -4.408  0.00  0.00    -0.016 C 
ATOM     25  C   UNL     1       4.773   7.516  -4.730  0.00  0.00    -0.018 C 
ATOM     26  C   UNL     1       5.229   6.198  -4.099  0.00  0.00    -0.016 C 
ATOM     27  C   UNL     1       4.981   6.248  -2.590  0.00  0.00    -0.078 C 
ATOM     28  C   UNL     1       4.962   7.450  -6.247  0.00  0.00    +0.007 C 
ATOM     29  H   UNL     1       2.995   5.663  -2.844  0.00  0.00    -0.081 HD
ENDBRANCH  21  22
ENDBRANCH   8  21
TORSDOF 5
