REMARK  Name = ZINC38891151
REMARK  7 active torsions:
REMARK  status: ('A' for Active; 'I' for Inactive)
REMARK    1  A    between atoms: C_1  and  C_2
REMARK    2  A    between atoms: C_7  and  C_14
REMARK    3  A    between atoms: C_14  and  N_15
REMARK    4  A    between atoms: N_15  and  C_16
REMARK    5  A    between atoms: C_20  and  C_23
REMARK    6  A    between atoms: C_21  and  C_22
REMARK    7  A    between atoms: C_24  and  C_26
REMARK                            x       y       z     vdW  Elec       q    Type
REMARK                         _______ _______ _______ _____ _____    ______ ____
ROOT
ATOM      1  N   UNL     1      -0.629  -6.426   2.723  0.00  0.00    -0.270 N 
ATOM      2  C   UNL     1      -0.536  -7.769   2.788  0.00  0.00    +0.223 C 
ATOM      3  O   UNL     1      -0.422  -8.419   1.770  0.00  0.00    -0.275 OA
ENDROOT
BRANCH   1   4
ATOM      4  C   UNL     1      -0.846  -5.682   3.888  0.00  0.00    +0.039 A 
ATOM      5  C   UNL     1      -2.135  -5.512   4.375  0.00  0.00    +0.024 A 
ATOM      6  C   UNL     1      -2.346  -4.777   5.525  0.00  0.00    +0.002 A 
ATOM      7  C   UNL     1      -1.275  -4.211   6.192  0.00  0.00    +0.004 A 
ATOM      8  C   UNL     1       0.010  -4.378   5.709  0.00  0.00    -0.046 A 
ATOM      9  C   UNL     1       0.228  -5.117   4.563  0.00  0.00    -0.026 A 
ATOM     10  C   UNL     1       1.630  -5.305   4.041  0.00  0.00    +0.046 C 
ATOM     11  C   UNL     1       1.175  -3.759   6.438  0.00  0.00    +0.044 C 
ENDBRANCH   1   4
BRANCH   2  12
ATOM     12  C   UNL     1      -0.575  -8.463   4.125  0.00  0.00    +0.076 C 
ATOM     13  C   UNL     1      -2.018  -8.841   4.462  0.00  0.00    +0.013 C 
ATOM     14  C   UNL     1      -2.057  -9.545   5.820  0.00  0.00    +0.001 C 
ATOM     15  C   UNL     1      -1.199 -10.810   5.763  0.00  0.00    +0.000 C 
ATOM     16  C   UNL     1       0.245 -10.432   5.426  0.00  0.00    +0.001 C 
ATOM     17  C   UNL     1       0.284  -9.728   4.068  0.00  0.00    +0.013 C 
ENDBRANCH   2  12
BRANCH   1  18
ATOM     18  C   UNL     1      -0.502  -5.745   1.432  0.00  0.00    +0.130 C 
BRANCH  18  25
ATOM     19  C   UNL     1      -3.826  -6.705  -5.220  0.00  0.00    +0.044 C 
ATOM     20  C   UNL     1      -3.272  -6.164  -3.926  0.00  0.00    -0.049 A 
ATOM     21  C   UNL     1      -2.636  -4.923  -3.938  0.00  0.00    +0.004 A 
ATOM     22  C   UNL     1      -2.117  -4.384  -2.804  0.00  0.00    +0.010 A 
ATOM     23  C   UNL     1      -2.234  -5.130  -1.551  0.00  0.00    -0.007 A 
ATOM     24  C   UNL     1      -1.728  -4.628  -0.388  0.00  0.00    -0.003 C 
ATOM     25  C   UNL     1      -1.895  -5.468   0.863  0.00  0.00    +0.116 C 
ATOM     26  C   UNL     1      -2.609  -6.794   0.719  0.00  0.00    +0.226 C 
ATOM     27  O   UNL     1      -2.771  -7.508   1.690  0.00  0.00    -0.275 OA
ATOM     28  N   UNL     1      -3.056  -7.173  -0.466  0.00  0.00    -0.284 N 
ATOM     29  C   UNL     1      -2.911  -6.438  -1.568  0.00  0.00    +0.041 A 
ATOM     30  C   UNL     1      -3.418  -6.903  -2.796  0.00  0.00    +0.027 A 
ATOM     31  H   UNL     1      -3.511  -8.027  -0.537  0.00  0.00    +0.155 HD
ENDBRANCH  18  25
ENDBRANCH   1  18
TORSDOF 4
