REMARK  Name = ZINC08970611
REMARK  8 active torsions:
REMARK  status: ('A' for Active; 'I' for Inactive)
REMARK    1  A    between atoms: C_1  and  C_2
REMARK    2  A    between atoms: C_5  and  N_8
REMARK    3  A    between atoms: C_16  and  C_35
REMARK    4  A    between atoms: C_19  and  C_25
REMARK    5  A    between atoms: C_25  and  C_27
REMARK    6  A    between atoms: C_30  and  O_33
REMARK    7  A    between atoms: O_33  and  C_34
REMARK    8  A    between atoms: C_35  and  C_37
REMARK                            x       y       z     vdW  Elec       q    Type
REMARK                         _______ _______ _______ _____ _____    ______ ____
ROOT
ATOM      1  N   UNL     1       0.818  -3.619   5.533  0.00  0.00    -0.210 N 
ATOM      2  C   UNL     1       1.298  -3.733   6.808  0.00  0.00    +0.232 C 
ATOM      3  O   UNL     1       1.439  -4.754   7.446  0.00  0.00    -0.274 OA
ATOM      4  C   UNL     1       1.612  -2.340   7.255  0.00  0.00    +0.113 C 
ATOM      5  C   UNL     1       2.897  -2.021   8.010  0.00  0.00    +0.093 C 
ATOM      6  C   UNL     1       2.627  -1.903   9.488  0.00  0.00    +0.006 C 
ATOM      7  C   UNL     1       3.145  -0.885  10.199  0.00  0.00    +0.021 C 
ATOM      8  C   UNL     1       3.973   0.156   9.564  0.00  0.00    +0.025 C 
ATOM      9  C   UNL     1       3.999   0.250   8.222  0.00  0.00    +0.054 C 
ATOM     10  C   UNL     1       2.647  -0.481   6.161  0.00  0.00    +0.141 C 
ATOM     11  C   UNL     1       2.068  -1.796   5.846  0.00  0.00    +0.116 C 
ATOM     12  C   UNL     1       1.093  -2.398   4.969  0.00  0.00    +0.232 C 
ATOM     13  O   UNL     1       0.621  -1.928   3.956  0.00  0.00    -0.274 OA
ATOM     14  N   UNL     1       3.497  -0.885   7.341  0.00  0.00    -0.384 NA
ATOM     15  H   UNL     1       4.356  -1.265   6.927  0.00  0.00    +0.127 HD
ENDROOT
BRANCH   1  20
ATOM     16  C   UNL     1      -2.006  -7.752   2.858  0.00  0.00    +0.044 C 
ATOM     17  C   UNL     1      -1.256  -6.655   3.568  0.00  0.00    -0.050 A 
ATOM     18  C   UNL     1      -1.021  -5.453   2.926  0.00  0.00    +0.005 A 
ATOM     19  C   UNL     1      -0.335  -4.445   3.575  0.00  0.00    +0.024 A 
ATOM     20  C   UNL     1       0.120  -4.640   4.872  0.00  0.00    +0.044 A 
ATOM     21  C   UNL     1      -0.112  -5.850   5.512  0.00  0.00    +0.024 A 
ATOM     22  C   UNL     1      -0.804  -6.852   4.860  0.00  0.00    +0.005 A 
ENDBRANCH   1  20
BRANCH  10  23
ATOM     23  C   UNL     1       1.572   0.574   6.197  0.00  0.00    +0.183 C 
ATOM     24  O   UNL     1       1.139   0.963   7.261  0.00  0.00    -0.290 OA
BRANCH  23  25
ATOM     25  C   UNL     1       1.048   1.132   4.944  0.00  0.00    +0.019 A 
ATOM     26  C   UNL     1       0.048   2.112   4.975  0.00  0.00    +0.015 A 
ATOM     27  C   UNL     1      -0.438   2.630   3.801  0.00  0.00    +0.046 A 
ATOM     28  C   UNL     1       0.060   2.183   2.582  0.00  0.00    +0.120 A 
ATOM     29  C   UNL     1       1.049   1.205   2.546  0.00  0.00    +0.046 A 
ATOM     30  C   UNL     1       1.546   0.685   3.713  0.00  0.00    +0.015 A 
BRANCH  28  31
ATOM     31  O   UNL     1      -0.423   2.698   1.425  0.00  0.00    -0.495 OA
ATOM     32  C   UNL     1       0.132   2.195   0.208  0.00  0.00    +0.277 C 
ENDBRANCH  28  31
ENDBRANCH  23  25
ENDBRANCH  10  23
BRANCH   7  33
ATOM     33  C   UNL     1       2.878  -0.809  11.650  0.00  0.00    +0.193 C 
ATOM     34  O   UNL     1       2.300  -1.720  12.210  0.00  0.00    -0.287 OA
BRANCH  33  35
ATOM     35  C   UNL     1       3.314   0.373  12.421  0.00  0.00    +0.022 A 
ATOM     36  C   UNL     1       3.696   0.238  13.757  0.00  0.00    +0.012 A 
ATOM     37  C   UNL     1       4.107   1.345  14.469  0.00  0.00    +0.001 A 
ATOM     38  C   UNL     1       4.130   2.591  13.866  0.00  0.00    +0.000 A 
ATOM     39  C   UNL     1       3.748   2.733  12.543  0.00  0.00    +0.001 A 
ATOM     40  C   UNL     1       3.340   1.633  11.818  0.00  0.00    +0.012 A 
ENDBRANCH  33  35
ENDBRANCH   7  33
TORSDOF 6
