REMARK  Name = ZINC35427108
REMARK  6 active torsions:
REMARK  status: ('A' for Active; 'I' for Inactive)
REMARK    1  A    between atoms: C_1  and  C_2
REMARK    2  A    between atoms: C_2  and  C_3
REMARK    3  A    between atoms: C_2  and  C_4
REMARK    4  A    between atoms: C_4  and  N_5
REMARK    5  A    between atoms: C_20  and  C_22
REMARK    6  A    between atoms: N_29  and  C_32
REMARK                            x       y       z     vdW  Elec       q    Type
REMARK                         _______ _______ _______ _____ _____    ______ ____
ROOT
ATOM      1  N   UNL     1      -1.834  -1.689  -0.060  0.00  0.00    -0.299 N 
ATOM      2  C   UNL     1      -2.886  -2.530  -0.120  0.00  0.00    +0.303 C 
ATOM      3  O   UNL     1      -4.019  -2.089  -0.101  0.00  0.00    -0.253 OA
ATOM      4  N   UNL     1      -2.682  -3.860  -0.200  0.00  0.00    -0.269 N 
ATOM      5  C   UNL     1      -1.324  -4.433  -0.219  0.00  0.00    +0.148 C 
ATOM      6  C   UNL     1      -1.213  -5.703   0.595  0.00  0.00    +0.004 A 
ATOM      7  C   UNL     1      -0.493  -5.785   1.802  0.00  0.00    -0.034 A 
ATOM      8  C   UNL     1      -0.446  -6.989   2.433  0.00  0.00    -0.021 A 
ATOM      9  S   UNL     1      -1.407  -8.052   1.388  0.00  0.00    -0.077 S 
ATOM     10  C   UNL     1      -1.828  -6.841   0.172  0.00  0.00    +0.090 A 
ATOM     11  N   UNL     1      -2.615  -6.924  -0.970  0.00  0.00    -0.312 N 
ATOM     12  C   UNL     1      -2.653  -7.837  -1.968  0.00  0.00    +0.092 A 
ATOM     13  C   UNL     1      -3.554  -7.417  -2.884  0.00  0.00    +0.020 A 
ATOM     14  C   UNL     1      -4.105  -6.205  -2.415  0.00  0.00    +0.025 A 
ATOM     15  C   UNL     1      -3.535  -5.935  -1.232  0.00  0.00    +0.049 A 
ATOM     16  C   UNL     1      -3.812  -4.817  -0.267  0.00  0.00    +0.155 C 
ATOM     17  C   UNL     1       0.261  -7.306   3.709  0.00  0.00    -0.036 C 
ATOM     18  N   UNL     1       1.205  -6.210   4.000  0.00  0.00    +0.381 N 
ATOM     19  C   UNL     1       0.507  -4.922   3.892  0.00  0.00    -0.074 C 
ATOM     20  C   UNL     1       0.227  -4.590   2.424  0.00  0.00    +0.018 C 
ATOM     21  C   UNL     1       1.735  -6.368   5.361  0.00  0.00    -0.096 C 
ATOM     22  H   UNL     1      -0.931  -2.041  -0.075  0.00  0.00    +0.150 HD
ATOM     23  H   UNL     1       1.966  -6.237   3.337  0.00  0.00    -0.082 HD
ENDROOT
BRANCH  16  24
ATOM     24  C   UNL     1      -4.050  -5.393   1.105  0.00  0.00    -0.021 A 
ATOM     25  C   UNL     1      -3.605  -4.717   2.225  0.00  0.00    +0.006 A 
ATOM     26  C   UNL     1      -3.822  -5.245   3.484  0.00  0.00    +0.000 A 
ATOM     27  C   UNL     1      -4.486  -6.450   3.622  0.00  0.00    +0.000 A 
ATOM     28  C   UNL     1      -4.931  -7.127   2.502  0.00  0.00    +0.000 A 
ATOM     29  C   UNL     1      -4.717  -6.596   1.243  0.00  0.00    +0.006 A 
ENDBRANCH  16  24
BRANCH   1  30
ATOM     30  C   UNL     1      -2.057  -0.244   0.027  0.00  0.00    +0.108 C 
BRANCH  30  32
ATOM     31  C   UNL     1      -0.936   1.990   0.046  0.00  0.00    +0.009 C 
ATOM     32  C   UNL     1      -0.708   0.477   0.081  0.00  0.00    -0.000 C 
ATOM     33  C   UNL     1       0.020   0.101   1.373  0.00  0.00    +0.009 C 
ENDBRANCH  30  32
ENDBRANCH   1  30
TORSDOF 3
