REMARK  Name = ZINC01228379
REMARK  6 active torsions:
REMARK  status: ('A' for Active; 'I' for Inactive)
REMARK    1  A    between atoms: C_3  and  C_15
REMARK    2  A    between atoms: C_5  and  O_7
REMARK    3  A    between atoms: O_7  and  C_8
REMARK    4  A    between atoms: C_20  and  N_29
REMARK    5  A    between atoms: C_24  and  N_28
REMARK    6  A    between atoms: C_25  and  C_26
REMARK                            x       y       z     vdW  Elec       q    Type
REMARK                         _______ _______ _______ _____ _____    ______ ____
ROOT
ATOM      1  C   UNL     1       1.215  -2.335  -0.102  0.00  0.00    +0.098 C 
ATOM      2  C   UNL     1       1.180  -0.831  -0.173  0.00  0.00    +0.008 A 
ATOM      3  C   UNL     1       2.369  -0.125  -0.236  0.00  0.00    +0.010 A 
ATOM      4  C   UNL     1       2.358   1.254  -0.300  0.00  0.00    +0.023 A 
ATOM      5  C   UNL     1       1.148   1.939  -0.302  0.00  0.00    +0.028 A 
ATOM      6  C   UNL     1      -0.044   1.234  -0.240  0.00  0.00    +0.069 A 
ATOM      7  C   UNL     1      -0.029  -0.153  -0.175  0.00  0.00    +0.136 A 
ATOM      8  O   UNL     1      -1.204  -0.828  -0.115  0.00  0.00    -0.441 OA
ATOM      9  C   UNL     1      -1.246  -2.131  -0.437  0.00  0.00    +0.199 C 
ATOM     10  C   UNL     1      -0.132  -2.902  -0.450  0.00  0.00    +0.098 C 
ENDROOT
BRANCH   1  13
ATOM     11  C   UNL     1       1.131  -2.795   3.645  0.00  0.00    +0.004 A 
ATOM     12  C   UNL     1       0.790  -2.405   2.363  0.00  0.00    +0.005 A 
ATOM     13  C   UNL     1       1.591  -2.760   1.294  0.00  0.00    -0.031 A 
ATOM     14  C   UNL     1       2.732  -3.510   1.503  0.00  0.00    +0.050 A 
ATOM     15  C   UNL     1       3.080  -3.898   2.789  0.00  0.00    +0.129 A 
ATOM     16  C   UNL     1       2.274  -3.541   3.861  0.00  0.00    +0.046 A 
BRANCH  15  17
ATOM     17  O   UNL     1       4.205  -4.631   2.998  0.00  0.00    -0.456 OA
BRANCH  17  18
ATOM     18  C   UNL     1       5.405  -4.036   2.772  0.00  0.00    +0.129 A 
ATOM     19  C   UNL     1       5.463  -2.686   2.459  0.00  0.00    +0.048 A 
ATOM     20  C   UNL     1       6.685  -2.082   2.234  0.00  0.00    +0.023 A 
ATOM     21  C   UNL     1       7.850  -2.825   2.311  0.00  0.00    +0.041 A 
ATOM     22  C   UNL     1       7.794  -4.173   2.618  0.00  0.00    +0.023 A 
ATOM     23  C   UNL     1       6.574  -4.779   2.848  0.00  0.00    +0.048 A 
ATOM     24 CL   UNL     1       9.383  -2.064   2.022  0.00  0.00    -0.084 Cl
ENDBRANCH  17  18
ENDBRANCH  15  17
ENDBRANCH   1  13
BRANCH   9  25
ATOM     25  N   UNL     1      -2.452  -2.699  -0.762  0.00  0.00    -0.328 N 
ATOM     26  H   UNL     1      -3.259  -2.160  -0.756  0.00  0.00    +0.145 HD
ATOM     27  H   UNL     1      -2.499  -3.639  -0.996  0.00  0.00    +0.145 HD
ENDBRANCH   9  25
BRANCH   5  28
ATOM     28  N   UNL     1       1.134   3.334  -0.368  0.00  0.00    -0.358 N 
ATOM     29  H   UNL     1       0.289   3.811  -0.370  0.00  0.00    +0.142 HD
ATOM     30  H   UNL     1       1.969   3.826  -0.411  0.00  0.00    +0.142 HD
ENDBRANCH   5  28
BRANCH  10  31
ATOM     31  C   UNL     1      -0.241  -4.286  -0.802  0.00  0.00    +0.101 C 
ATOM     32  N   UNL     1      -0.327  -5.384  -1.082  0.00  0.00    -0.191 NA
ENDBRANCH  10  31
TORSDOF 6
