REMARK  Name = ZINC44906033
REMARK  10 active torsions:
REMARK  status: ('A' for Active; 'I' for Inactive)
REMARK    1  A    between atoms: C_1  and  C_2
REMARK    2  A    between atoms: C_2  and  C_4
REMARK    3  A    between atoms: C_2  and  N_14
REMARK    4  A    between atoms: C_7  and  C_10
REMARK    5  A    between atoms: C_10  and  C_11
REMARK    6  A    between atoms: C_10  and  C_12
REMARK    7  A    between atoms: C_10  and  C_13
REMARK    8  A    between atoms: C_15  and  C_17
REMARK    9  A    between atoms: N_22  and  C_24
REMARK   10  A    between atoms: C_24  and  C_25
REMARK                            x       y       z     vdW  Elec       q    Type
REMARK                         _______ _______ _______ _____ _____    ______ ____
ROOT
ATOM      1  N   UNL     1       0.688  -0.476  -1.203  0.00  0.00    -0.309 N 
ATOM      2  C   UNL     1       2.031  -0.587  -1.215  0.00  0.00    +0.215 C 
ATOM      3  O   UNL     1       2.672  -0.295  -0.228  0.00  0.00    -0.276 OA
ATOM      4  H   UNL     1       0.175  -0.710  -1.993  0.00  0.00    +0.149 HD
ENDROOT
BRANCH   2   5
ATOM      5  C   UNL     1       2.736  -1.073  -2.455  0.00  0.00    +0.058 C 
ATOM      6  C   UNL     1       2.435  -0.125  -3.619  0.00  0.00    +0.009 C 
ATOM      7  C   UNL     1       3.218  -0.583  -4.853  0.00  0.00    -0.018 C 
ATOM      8  C   UNL     1       4.710  -0.631  -4.515  0.00  0.00    -0.078 C 
ATOM      9  N   UNL     1       4.936  -1.573  -3.413  0.00  0.00    +0.383 N 
ATOM     10  C   UNL     1       4.246  -1.104  -2.205  0.00  0.00    -0.066 C 
ATOM     11  H   UNL     1       4.579  -2.482  -3.670  0.00  0.00    -0.081 HD
BRANCH   9  12
ATOM     12  C   UNL     1       6.376  -1.674  -3.144  0.00  0.00    -0.040 C 
BRANCH  12  13
ATOM     13  C   UNL     1       7.069  -2.281  -4.337  0.00  0.00    -0.027 A 
ATOM     14  C   UNL     1       7.219  -3.654  -4.425  0.00  0.00    +0.044 A 
ATOM     15  C   UNL     1       7.854  -4.211  -5.520  0.00  0.00    +0.020 A 
ATOM     16  C   UNL     1       8.340  -3.396  -6.526  0.00  0.00    +0.003 A 
ATOM     17  C   UNL     1       8.190  -2.025  -6.438  0.00  0.00    +0.020 A 
ATOM     18  C   UNL     1       7.549  -1.467  -5.346  0.00  0.00    +0.044 A 
ATOM     19 CL   UNL     1       7.355   0.255  -5.240  0.00  0.00    -0.083 Cl
ATOM     20 CL   UNL     1       6.610  -4.677  -3.162  0.00  0.00    -0.083 Cl
ENDBRANCH  12  13
ENDBRANCH   9  12
ENDBRANCH   2   5
BRANCH   1  22
ATOM     21  C   UNL     1      -0.019   1.526   0.010  0.00  0.00    +0.033 C 
ATOM     22  C   UNL     1       0.002  -0.004   0.002  0.00  0.00    +0.100 C 
BRANCH  22  23
ATOM     23  C   UNL     1      -1.412  -0.526   0.013  0.00  0.00    -0.027 A 
ATOM     24  C   UNL     1      -2.141  -0.569  -1.161  0.00  0.00    +0.006 A 
ATOM     25  C   UNL     1      -3.438  -1.047  -1.151  0.00  0.00    +0.004 A 
ATOM     26  C   UNL     1      -4.005  -1.483   0.032  0.00  0.00    -0.042 A 
ATOM     27  C   UNL     1      -3.275  -1.441   1.205  0.00  0.00    +0.004 A 
ATOM     28  C   UNL     1      -1.977  -0.966   1.195  0.00  0.00    +0.006 A 
BRANCH  26  29
ATOM     29  C   UNL     1      -5.419  -2.004   0.043  0.00  0.00    -0.013 C 
ATOM     30  C   UNL     1      -5.524  -3.216  -0.885  0.00  0.00    +0.015 C 
ATOM     31  C   UNL     1      -5.800  -2.417   1.466  0.00  0.00    +0.015 C 
ATOM     32  C   UNL     1      -6.370  -0.907  -0.441  0.00  0.00    +0.015 C 
ENDBRANCH  26  29
ENDBRANCH  22  23
ENDBRANCH   1  22
TORSDOF 6
