REMARK  Name = ZINC08800232
REMARK  11 active torsions:
REMARK  status: ('A' for Active; 'I' for Inactive)
REMARK    1  A    between atoms: C_1  and  C_2
REMARK    2  A    between atoms: C_4  and  O_32
REMARK    3  A    between atoms: C_5  and  S_9
REMARK    4  A    between atoms: C_7  and  C_8
REMARK    5  A    between atoms: S_9  and  N_12
REMARK    6  A    between atoms: N_12  and  C_13
REMARK    7  A    between atoms: C_13  and  C_14
REMARK    8  A    between atoms: C_14  and  C_16
REMARK    9  A    between atoms: C_14  and  N_70
REMARK   10  A    between atoms: N_25  and  C_26
REMARK   11  A    between atoms: O_32  and  C_33
REMARK                            x       y       z     vdW  Elec       q    Type
REMARK                         _______ _______ _______ _____ _____    ______ ____
ROOT
ATOM      1  C   UNL     1      -0.597   2.434   2.060  0.00  0.00    -0.022 C 
ENDROOT
BRANCH   1   2
ATOM      2  C   UNL     1       0.297   1.682   3.012  0.00  0.00    -0.059 A 
ATOM      3  C   UNL     1       1.561   1.288   2.609  0.00  0.00    +0.004 A 
ATOM      4  C   UNL     1       2.378   0.603   3.482  0.00  0.00    +0.023 A 
ATOM      5  C   UNL     1       1.935   0.292   4.769  0.00  0.00    +0.033 A 
ATOM      6  C   UNL     1       0.670   0.688   5.166  0.00  0.00    -0.026 A 
ATOM      7  C   UNL     1      -0.144   1.381   4.284  0.00  0.00    +0.007 A 
ATOM      8  C   UNL     1       0.136   0.394   6.545  0.00  0.00    +0.038 C 
ATOM      9  C   UNL     1       0.999  -0.680   7.213  0.00  0.00    +0.024 C 
ATOM     10  C   UNL     1       2.470  -0.292   7.020  0.00  0.00    +0.105 C 
ATOM     11  N   UNL     1       2.804  -0.415   5.599  0.00  0.00    -0.333 N 
ATOM     12  C   UNL     1       4.200  -0.030   5.352  0.00  0.00    +0.129 C 
ENDBRANCH   1   2
BRANCH   1  18
ATOM     13  C   UNL     1       1.299   3.736   1.305  0.00  0.00    -0.078 C 
ATOM     14  C   UNL     1       1.767   5.153   0.965  0.00  0.00    -0.019 C 
ATOM     15  C   UNL     1       1.736   6.013   2.232  0.00  0.00    -0.004 C 
ATOM     16  C   UNL     1       0.317   6.010   2.807  0.00  0.00    -0.019 C 
ATOM     17  C   UNL     1      -0.109   4.568   3.094  0.00  0.00    -0.078 C 
ATOM     18  N   UNL     1      -0.081   3.799   1.831  0.00  0.00    +0.385 N 
ATOM     19  H   UNL     1      -0.679   4.270   1.141  0.00  0.00    -0.081 HD
ENDBRANCH   1  18
BRANCH   1  20
ATOM     20  C   UNL     1      -0.653   1.695   0.722  0.00  0.00    +0.095 C 
BRANCH  20  21
ATOM     21  N   UNL     1      -1.425   2.486  -0.240  0.00  0.00    -0.191 NA
ATOM     22  H   UNL     1      -1.982   3.217   0.069  0.00  0.00    +0.148 HD
BRANCH  21  23
ATOM     23  S   UNL     1      -1.347   2.131  -1.856  0.00  0.00    +0.062 S 
ATOM     24  O   UNL     1      -2.214   3.044  -2.515  0.00  0.00    -0.153 OA
ATOM     25  O   UNL     1       0.032   2.021  -2.181  0.00  0.00    -0.153 OA
BRANCH  23  30
ATOM     26  C   UNL     1      -3.743  -3.360  -2.599  0.00  0.00    +0.044 C 
ATOM     27  C   UNL     1      -3.143  -1.990  -2.412  0.00  0.00    -0.044 A 
ATOM     28  C   UNL     1      -1.978  -1.841  -1.684  0.00  0.00    +0.051 A 
ATOM     29  C   UNL     1      -1.426  -0.580  -1.512  0.00  0.00    +0.147 A 
ATOM     30  C   UNL     1      -2.045   0.528  -2.072  0.00  0.00    +0.147 A 
ATOM     31  C   UNL     1      -3.212   0.374  -2.794  0.00  0.00    +0.036 A 
ATOM     32  C   UNL     1      -3.757  -0.885  -2.969  0.00  0.00    -0.045 A 
ATOM     33  C   UNL     1      -5.027  -1.051  -3.764  0.00  0.00    +0.044 C 
BRANCH  29  34
ATOM     34  O   UNL     1      -0.280  -0.431  -0.796  0.00  0.00    -0.493 OA
ATOM     35  C   UNL     1       0.302  -1.615  -0.249  0.00  0.00    +0.277 C 
ENDBRANCH  29  34
ENDBRANCH  23  30
ENDBRANCH  21  23
ENDBRANCH  20  21
ENDBRANCH   1  20
TORSDOF 7
