REMARK  Name = ZINC53758316
REMARK  8 active torsions:
REMARK  status: ('A' for Active; 'I' for Inactive)
REMARK    1  A    between atoms: C_1  and  C_2
REMARK    2  A    between atoms: C_2  and  C_4
REMARK    3  A    between atoms: C_2  and  N_7
REMARK    4  A    between atoms: C_4  and  C_5
REMARK    5  A    between atoms: C_4  and  C_6
REMARK    6  A    between atoms: C_8  and  C_10
REMARK    7  A    between atoms: C_12  and  C_22
REMARK    8  A    between atoms: C_18  and  C_19
REMARK                            x       y       z     vdW  Elec       q    Type
REMARK                         _______ _______ _______ _____ _____    ______ ____
ROOT
ATOM      1  C   UNL     1      -3.470  -1.048  -1.122  0.00  0.00    +0.113 A 
ATOM      2  C   UNL     1      -4.169  -1.192  -2.284  0.00  0.00    +0.063 A 
ATOM      3  C   UNL     1      -5.530  -1.583  -2.227  0.00  0.00    +0.110 A 
ATOM      4  N   UNL     1      -6.110  -1.805  -1.057  0.00  0.00    -0.224 NA
ATOM      5  C   UNL     1      -5.433  -1.667   0.081  0.00  0.00    +0.171 A 
ATOM      6  N   UNL     1      -4.111  -1.294   0.076  0.00  0.00    -0.278 N 
ATOM      7  C   UNL     1      -3.698  -1.246   1.371  0.00  0.00    +0.206 A 
ATOM      8  N   UNL     1      -4.683  -1.568   2.160  0.00  0.00    -0.229 NA
ATOM      9  C   UNL     1      -5.784  -1.832   1.429  0.00  0.00    +0.169 A 
ENDROOT
BRANCH   9  10
ATOM     10  C   UNL     1      -7.095  -2.231   1.945  0.00  0.00    +0.264 C 
ATOM     11  O   UNL     1      -8.010  -2.455   1.174  0.00  0.00    -0.269 OA
ATOM     12  N   UNL     1      -7.289  -2.351   3.273  0.00  0.00    -0.324 N 
ATOM     13  H   UNL     1      -6.560  -2.172   3.888  0.00  0.00    +0.145 HD
ATOM     14  H   UNL     1      -8.158  -2.615   3.615  0.00  0.00    +0.145 HD
ENDBRANCH   9  10
BRANCH   3  15
ATOM     15  C   UNL     1      -6.300  -1.742  -3.471  0.00  0.00    +0.153 A 
ATOM     16  C   UNL     1      -7.612  -2.106  -3.559  0.00  0.00    +0.051 A 
ATOM     17  C   UNL     1      -7.932  -2.133  -4.928  0.00  0.00    +0.042 A 
ATOM     18  C   UNL     1      -6.816  -1.788  -5.604  0.00  0.00    +0.196 A 
ATOM     19  O   UNL     1      -5.835  -1.548  -4.721  0.00  0.00    -0.461 OA
ENDBRANCH   3  15
BRANCH   1  21
ATOM     20  N   UNL     1      -1.465  -0.306  -2.311  0.00  0.00    -0.307 N 
ATOM     21  C   UNL     1      -2.051  -0.643  -1.145  0.00  0.00    +0.261 C 
ATOM     22  O   UNL     1      -1.410  -0.613  -0.112  0.00  0.00    -0.269 OA
ATOM     23  H   UNL     1      -1.953  -0.400  -3.144  0.00  0.00    +0.149 HD
BRANCH  20  25
ATOM     24  C   UNL     1       0.888  -0.972  -2.337  0.00  0.00    +0.028 C 
ATOM     25  C   UNL     1      -0.091   0.203  -2.320  0.00  0.00    +0.073 C 
BRANCH  25  26
ATOM     26  C   UNL     1       0.125   1.065  -3.566  0.00  0.00    +0.003 C 
ATOM     27  C   UNL     1       1.560   1.596  -3.576  0.00  0.00    +0.009 C 
ATOM     28  C   UNL     1      -0.115   0.220  -4.819  0.00  0.00    +0.009 C 
ENDBRANCH  25  26
ENDBRANCH  20  25
ENDBRANCH   1  21
TORSDOF 5
