REMARK  Name = ZINC12710984
REMARK  8 active torsions:
REMARK  status: ('A' for Active; 'I' for Inactive)
REMARK    1  A    between atoms: C_1  and  N_55
REMARK    2  A    between atoms: C_2  and  C_3
REMARK    3  A    between atoms: C_2  and  N_55
REMARK    4  A    between atoms: C_5  and  C_8
REMARK    5  A    between atoms: C_8  and  C_9
REMARK    6  A    between atoms: C_8  and  C_15
REMARK    7  A    between atoms: C_21  and  C_22
REMARK    8  A    between atoms: C_21  and  N_55
REMARK                            x       y       z     vdW  Elec       q    Type
REMARK                         _______ _______ _______ _____ _____    ______ ____
ROOT
ATOM      1  C   UNL     1       1.835   0.634   2.503  0.00  0.00    +0.211 A 
ATOM      2  N   UNL     1       2.682   1.632   2.428  0.00  0.00    -0.197 NA
ATOM      3  C   UNL     1       3.809   1.113   1.908  0.00  0.00    +0.183 A 
ATOM      4  N   UNL     1       3.593  -0.151   1.697  0.00  0.00    -0.060 NA
ATOM      5  O   UNL     1       2.467  -0.448   2.037  0.00  0.00    -0.340 OA
ENDROOT
BRANCH   1   6
ATOM      6  C   UNL     1       0.421   0.694   3.020  0.00  0.00    +0.021 C 
BRANCH   6   8
ATOM      7  C   UNL     1      -0.253   2.357   1.395  0.00  0.00    -0.095 C 
ATOM      8  N   UNL     1      -0.488   0.985   1.892  0.00  0.00    +0.385 N 
ATOM      9  H   UNL     1      -0.301   0.319   1.133  0.00  0.00    -0.081 HD
BRANCH   8  10
ATOM     10  C   UNL     1      -1.893   0.838   2.324  0.00  0.00    -0.047 C 
BRANCH  10  11
ATOM     11  C   UNL     1      -2.800   0.923   1.095  0.00  0.00    +0.102 C 
ATOM     12  C   UNL     1      -4.265   0.875   1.536  0.00  0.00    +0.030 C 
ATOM     13  C   UNL     1      -5.165   0.900   0.296  0.00  0.00    +0.005 C 
ATOM     14  C   UNL     1      -4.793  -0.274  -0.614  0.00  0.00    +0.028 C 
ATOM     15  C   UNL     1      -3.308  -0.182  -0.973  0.00  0.00    +0.160 C 
ATOM     16  O   UNL     1      -2.529  -0.178   0.226  0.00  0.00    -0.378 OA
ENDBRANCH  10  11
ENDBRANCH   8  10
ENDBRANCH   6   8
ENDBRANCH   1   6
BRANCH   3  17
ATOM     17  C   UNL     1       5.086   1.859   1.622  0.00  0.00    +0.120 C 
BRANCH  17  18
ATOM     18  C   UNL     1       6.212   1.252   2.418  0.00  0.00    -0.033 A 
ATOM     19  C   UNL     1       6.457  -0.107   2.345  0.00  0.00    +0.004 A 
ATOM     20  C   UNL     1       7.492  -0.663   3.071  0.00  0.00    +0.000 A 
ATOM     21  C   UNL     1       8.278   0.137   3.880  0.00  0.00    +0.000 A 
ATOM     22  C   UNL     1       8.030   1.495   3.958  0.00  0.00    +0.000 A 
ATOM     23  C   UNL     1       6.997   2.052   3.227  0.00  0.00    +0.004 A 
ENDBRANCH  17  18
BRANCH  17  24
ATOM     24  C   UNL     1       5.404   1.767   0.152  0.00  0.00    -0.033 A 
ATOM     25  C   UNL     1       5.446   0.533  -0.470  0.00  0.00    +0.004 A 
ATOM     26  C   UNL     1       5.734   0.449  -1.819  0.00  0.00    +0.000 A 
ATOM     27  C   UNL     1       5.987   1.597  -2.545  0.00  0.00    +0.000 A 
ATOM     28  C   UNL     1       5.949   2.831  -1.923  0.00  0.00    +0.000 A 
ATOM     29  C   UNL     1       5.658   2.916  -0.574  0.00  0.00    +0.004 A 
ENDBRANCH  17  24
ENDBRANCH   3  17
TORSDOF 7
