REMARK  Name = ZINC49573529
REMARK  6 active torsions:
REMARK  status: ('A' for Active; 'I' for Inactive)
REMARK    1  A    between atoms: C_7  and  C_11
REMARK    2  A    between atoms: C_11  and  C_12
REMARK    3  A    between atoms: N_16  and  C_20
REMARK    4  A    between atoms: C_20  and  C_21
REMARK    5  A    between atoms: N_23  and  C_24
REMARK    6  A    between atoms: N_23  and  C_30
REMARK                            x       y       z     vdW  Elec       q    Type
REMARK                         _______ _______ _______ _____ _____    ______ ____
ROOT
ATOM      1  C   UNL     1       0.498  -4.429  -1.351  0.00  0.00    +0.165 C 
ATOM      2  C   UNL     1      -0.638  -5.409  -1.561  0.00  0.00    +0.244 C 
ATOM      3  O   UNL     1      -0.598  -6.615  -1.441  0.00  0.00    -0.273 OA
ATOM      4  N   UNL     1      -1.704  -4.661  -1.909  0.00  0.00    -0.216 N 
ATOM      5  C   UNL     1      -1.402  -3.359  -1.948  0.00  0.00    +0.310 C 
ATOM      6  O   UNL     1      -2.200  -2.488  -2.236  0.00  0.00    -0.252 OA
ATOM      7  N   UNL     1      -0.113  -3.119  -1.633  0.00  0.00    -0.287 N 
ATOM      8  H   UNL     1       0.326  -2.254  -1.597  0.00  0.00    +0.151 HD
ENDROOT
BRANCH   1   9
ATOM      9  C   UNL     1       1.002  -4.489   0.093  0.00  0.00    +0.069 C 
BRANCH   9  16
ATOM     10  C   UNL     1       1.356   0.097   0.996  0.00  0.00    +0.001 A 
ATOM     11  C   UNL     1       2.672   0.536   1.058  0.00  0.00    +0.002 A 
ATOM     12  C   UNL     1       3.715  -0.343   0.865  0.00  0.00    +0.026 A 
ATOM     13  C   UNL     1       3.451  -1.683   0.603  0.00  0.00    +0.047 A 
ATOM     14  C   UNL     1       2.116  -2.123   0.541  0.00  0.00    +0.003 A 
ATOM     15  C   UNL     1       1.073  -1.215   0.740  0.00  0.00    +0.010 A 
ATOM     16  C   UNL     1       2.175  -3.558   0.255  0.00  0.00    -0.020 A 
ATOM     17  C   UNL     1       3.474  -3.887   0.166  0.00  0.00    +0.087 A 
ATOM     18  N   UNL     1       4.250  -2.779   0.371  0.00  0.00    -0.360 N 
ATOM     19  H   UNL     1       5.220  -2.768   0.355  0.00  0.00    +0.165 HD
ENDBRANCH   9  16
ENDBRANCH   1   9
BRANCH   4  20
ATOM     20  C   UNL     1      -3.030  -5.208  -2.209  0.00  0.00    +0.213 C 
BRANCH  20  21
ATOM     21  C   UNL     1      -3.845  -5.272  -0.943  0.00  0.00    +0.234 C 
ATOM     22  O   UNL     1      -3.445  -4.727   0.064  0.00  0.00    -0.274 OA
ATOM     23  N   UNL     1      -5.019  -5.934  -0.930  0.00  0.00    -0.294 N 
BRANCH  23  24
ATOM     24  C   UNL     1      -5.887  -5.863   0.248  0.00  0.00    +0.076 C 
ATOM     25  C   UNL     1      -6.281  -4.407   0.504  0.00  0.00    +0.022 C 
ATOM     26  C   UNL     1      -7.188  -4.332   1.734  0.00  0.00    +0.002 C 
ATOM     27  C   UNL     1      -6.441  -4.880   2.952  0.00  0.00    +0.000 C 
ATOM     28  C   UNL     1      -6.047  -6.336   2.696  0.00  0.00    +0.002 C 
ATOM     29  C   UNL     1      -5.140  -6.410   1.466  0.00  0.00    +0.022 C 
ENDBRANCH  23  24
BRANCH  23  30
ATOM     30  C   UNL     1      -5.427  -6.725  -2.094  0.00  0.00    +0.076 C 
ATOM     31  C   UNL     1      -4.463  -7.899  -2.275  0.00  0.00    +0.022 C 
ATOM     32  C   UNL     1      -4.889  -8.725  -3.491  0.00  0.00    +0.002 C 
ATOM     33  C   UNL     1      -4.861  -7.844  -4.741  0.00  0.00    +0.000 C 
ATOM     34  C   UNL     1      -5.825  -6.670  -4.559  0.00  0.00    +0.002 C 
ATOM     35  C   UNL     1      -5.399  -5.844  -3.344  0.00  0.00    +0.022 C 
ENDBRANCH  23  30
ENDBRANCH  20  21
ENDBRANCH   4  20
TORSDOF 6
