REMARK  Name = ZINC10087061
REMARK  8 active torsions:
REMARK  status: ('A' for Active; 'I' for Inactive)
REMARK    1  A    between atoms: C_1  and  C_2
REMARK    2  A    between atoms: C_5  and  N_11
REMARK    3  A    between atoms: C_6  and  N_8
REMARK    4  A    between atoms: C_12  and  C_14
REMARK    5  A    between atoms: N_16  and  C_17
REMARK    6  A    between atoms: C_17  and  C_18
REMARK    7  A    between atoms: C_18  and  C_20
REMARK    8  A    between atoms: C_18  and  N_59
REMARK                            x       y       z     vdW  Elec       q    Type
REMARK                         _______ _______ _______ _____ _____    ______ ____
ROOT
ATOM      1  C   UNL     1       4.724   3.658  -3.454  0.00  0.00    +0.299 C 
ATOM      2  O   UNL     1       4.623   2.697  -4.189  0.00  0.00    -0.265 OA
ATOM      3  N   UNL     1       4.219   3.607  -2.205  0.00  0.00    -0.309 N 
ATOM      4  H   UNL     1       4.299   4.375  -1.618  0.00  0.00    +0.149 HD
ENDROOT
BRANCH   1   6
ATOM      5  N   UNL     1       5.914   4.946  -5.181  0.00  0.00    -0.276 N 
ATOM      6  C   UNL     1       5.408   4.896  -3.933  0.00  0.00    +0.303 C 
ATOM      7  O   UNL     1       5.509   5.856  -3.198  0.00  0.00    -0.265 OA
ATOM      8  H   UNL     1       5.898   4.155  -5.743  0.00  0.00    +0.155 HD
BRANCH   5  13
ATOM      9  C   UNL     1       8.133   9.780  -7.148  0.00  0.00    +0.044 C 
ATOM     10  C   UNL     1       7.543   8.496  -6.626  0.00  0.00    -0.048 A 
ATOM     11  C   UNL     1       6.442   8.532  -5.790  0.00  0.00    +0.005 A 
ATOM     12  C   UNL     1       5.899   7.357  -5.309  0.00  0.00    +0.026 A 
ATOM     13  C   UNL     1       6.460   6.137  -5.666  0.00  0.00    +0.064 A 
ATOM     14  C   UNL     1       7.569   6.105  -6.502  0.00  0.00    +0.148 A 
ATOM     15  C   UNL     1       8.104   7.284  -6.983  0.00  0.00    +0.038 A 
BRANCH  14  16
ATOM     16  N   UNL     1       8.174   4.808  -6.880  0.00  0.00    +0.058 N 
ATOM     17  O   UNL     1       9.079   4.772  -7.696  0.00  0.00    -0.126 OA
ATOM     18  O   UNL     1       7.768   3.776  -6.377  0.00  0.00    -0.126 OA
ENDBRANCH  14  16
ENDBRANCH   5  13
ENDBRANCH   1   6
BRANCH   3  19
ATOM     19  C   UNL     1       3.548   2.393  -1.735  0.00  0.00    +0.094 C 
BRANCH  19  20
ATOM     20  C   UNL     1       2.944   2.646  -0.353  0.00  0.00    -0.020 C 
BRANCH  20  21
ATOM     21  C   UNL     1       1.841   3.667  -0.466  0.00  0.00    -0.052 A 
ATOM     22  C   UNL     1       2.101   4.983  -0.235  0.00  0.00    +0.003 A 
ATOM     23  C   UNL     1       1.094   5.941  -0.335  0.00  0.00    +0.001 A 
ATOM     24  C   UNL     1      -0.178   5.589  -0.667  0.00  0.00    +0.008 A 
ATOM     25  C   UNL     1      -0.484   4.240  -0.912  0.00  0.00    -0.018 A 
ATOM     26  C   UNL     1       0.540   3.265  -0.810  0.00  0.00    -0.016 A 
ATOM     27  C   UNL     1       0.233   1.916  -1.056  0.00  0.00    +0.009 A 
ATOM     28  C   UNL     1      -1.039   1.564  -1.388  0.00  0.00    +0.001 A 
ATOM     29  C   UNL     1      -2.045   2.523  -1.494  0.00  0.00    +0.001 A 
ATOM     30  C   UNL     1      -1.786   3.838  -1.258  0.00  0.00    +0.008 A 
ENDBRANCH  20  21
BRANCH  20  35
ATOM     31  C   UNL     1       3.438   3.398   1.910  0.00  0.00    -0.078 C 
ATOM     32  C   UNL     1       4.700   3.395   2.808  0.00  0.00    -0.020 C 
ATOM     33  C   UNL     1       5.573   2.287   2.175  0.00  0.00    -0.020 C 
ATOM     34  C   UNL     1       5.063   2.151   0.728  0.00  0.00    -0.078 C 
ATOM     35  N   UNL     1       4.003   3.148   0.574  0.00  0.00    +0.385 N 
ATOM     36  H   UNL     1       4.396   4.018   0.196  0.00  0.00    -0.081 HD
ENDBRANCH  20  35
ENDBRANCH  19  20
ENDBRANCH   3  19
TORSDOF 7
