REMARK  Name = ZINC46630884
REMARK  6 active torsions:
REMARK  status: ('A' for Active; 'I' for Inactive)
REMARK    1  A    between atoms: C_1  and  C_2
REMARK    2  A    between atoms: C_6  and  C_16
REMARK    3  A    between atoms: N_8  and  C_9
REMARK    4  A    between atoms: N_18  and  C_19
REMARK    5  A    between atoms: C_19  and  C_21
REMARK    6  A    between atoms: C_19  and  C_22
REMARK                            x       y       z     vdW  Elec       q    Type
REMARK                         _______ _______ _______ _____ _____    ______ ____
ROOT
ATOM      1  C   UNL     1       0.024  -4.195   0.311  0.00  0.00    +0.268 C 
ATOM      2  O   UNL     1      -0.060  -4.891  -0.681  0.00  0.00    -0.268 OA
ATOM      3  N   UNL     1       0.115  -4.765   1.529  0.00  0.00    -0.303 N 
ATOM      4  H   UNL     1       0.182  -4.210   2.321  0.00  0.00    +0.150 HD
ENDROOT
BRANCH   1  10
ATOM      5  C   UNL     1       0.045   1.503   0.005  0.00  0.00    +0.066 C 
ATOM      6  C   UNL     1       0.033  -0.004  -0.001  0.00  0.00    +0.044 A 
ATOM      7  C   UNL     1      -0.065  -0.668  -1.177  0.00  0.00    +0.076 A 
ATOM      8  C   UNL     1      -0.073  -2.086  -1.139  0.00  0.00    +0.213 A 
ATOM      9  O   UNL     1      -0.158  -2.750  -2.160  0.00  0.00    -0.285 OA
ATOM     10  C   UNL     1       0.026  -2.724   0.184  0.00  0.00    +0.192 A 
ATOM     11  N   UNL     1       0.116  -1.958   1.251  0.00  0.00    -0.158 NA
ATOM     12  N   UNL     1       0.125  -0.678   1.172  0.00  0.00    -0.236 N 
BRANCH  12  13
ATOM     13  C   UNL     1       0.230   0.059   2.356  0.00  0.00    +0.066 A 
ATOM     14  C   UNL     1      -0.652  -0.177   3.403  0.00  0.00    +0.029 A 
ATOM     15  C   UNL     1      -0.546   0.552   4.571  0.00  0.00    +0.022 A 
ATOM     16  C   UNL     1       0.436   1.519   4.698  0.00  0.00    +0.041 A 
ATOM     17  C   UNL     1       1.315   1.757   3.656  0.00  0.00    +0.022 A 
ATOM     18  C   UNL     1       1.218   1.026   2.489  0.00  0.00    +0.029 A 
ATOM     19 CL   UNL     1       0.565   2.435   6.167  0.00  0.00    -0.084 Cl
ENDBRANCH  12  13
ENDBRANCH   1  10
BRANCH   3  20
ATOM     20  C   UNL     1       0.113  -6.225   1.656  0.00  0.00    +0.100 C 
ATOM     21  C   UNL     1       1.535  -6.755   1.463  0.00  0.00    +0.033 C 
BRANCH  20  22
ATOM     22  C   UNL     1      -0.385  -6.609   3.026  0.00  0.00    -0.025 A 
ATOM     23  C   UNL     1      -0.001  -5.872   4.131  0.00  0.00    +0.009 A 
ATOM     24  C   UNL     1      -0.454  -6.217   5.391  0.00  0.00    +0.048 A 
ATOM     25  C   UNL     1      -1.295  -7.305   5.547  0.00  0.00    +0.142 A 
ATOM     26  C   UNL     1      -1.681  -8.050   4.433  0.00  0.00    +0.076 A 
ATOM     27  C   UNL     1      -1.228  -7.695   3.173  0.00  0.00    +0.032 A 
ATOM     28  N   UNL     1      -2.530  -9.151   4.605  0.00  0.00    -0.280 N 
ATOM     29  C   UNL     1      -3.203  -9.283   5.769  0.00  0.00    +0.255 C 
ATOM     30  O   UNL     1      -3.920 -10.245   5.953  0.00  0.00    -0.272 OA
ATOM     31  C   UNL     1      -3.060  -8.231   6.839  0.00  0.00    +0.325 C 
ATOM     32  O   UNL     1      -1.751  -7.659   6.778  0.00  0.00    -0.481 OA
ATOM     33  H   UNL     1      -2.634  -9.809   3.900  0.00  0.00    +0.155 HD
ENDBRANCH  20  22
ENDBRANCH   3  20
TORSDOF 4
