REMARK  Name = ZINC39664815
REMARK  10 active torsions:
REMARK  status: ('A' for Active; 'I' for Inactive)
REMARK    1  A    between atoms: C_1  and  N_2
REMARK    2  A    between atoms: N_2  and  C_3
REMARK    3  A    between atoms: N_2  and  C_4
REMARK    4  A    between atoms: C_4  and  C_5
REMARK    5  A    between atoms: C_5  and  C_7
REMARK    6  A    between atoms: C_5  and  N_13
REMARK    7  A    between atoms: C_14  and  C_16
REMARK    8  A    between atoms: C_27  and  C_29
REMARK    9  A    between atoms: C_33  and  O_34
REMARK   10  A    between atoms: O_34  and  C_35
REMARK                            x       y       z     vdW  Elec       q    Type
REMARK                         _______ _______ _______ _____ _____    ______ ____
ROOT
ATOM      1  C   UNL     1      -2.183   3.158   1.916  0.00  0.00    +0.100 C 
ATOM      2  C   UNL     1      -2.334   3.634   3.378  0.00  0.00    +0.121 C 
ATOM      3  N   UNL     1      -3.547   4.486   3.371  0.00  0.00    -0.296 N 
ATOM      4  C   UNL     1      -4.486   3.783   2.464  0.00  0.00    +0.115 C 
ATOM      5  C   UNL     1      -3.597   3.256   1.320  0.00  0.00    -0.004 C 
ATOM      6  C   UNL     1      -4.077   1.880   0.870  0.00  0.00    -0.010 C 
ATOM      7  C   UNL     1      -5.461   2.012   0.228  0.00  0.00    -0.082 C 
ATOM      8  N   UNL     1      -5.385   2.925  -0.919  0.00  0.00    +0.379 N 
ATOM      9  C   UNL     1      -5.013   4.270  -0.464  0.00  0.00    -0.082 C 
ATOM     10  C   UNL     1      -3.610   4.233   0.148  0.00  0.00    -0.010 C 
ATOM     11  C   UNL     1      -3.750   5.640   4.037  0.00  0.00    +0.251 C 
ATOM     12  O   UNL     1      -2.844   6.141   4.675  0.00  0.00    -0.270 OA
ATOM     13  H   UNL     1      -4.693   2.587  -1.570  0.00  0.00    -0.086 HD
ATOM     14  H   UNL     1      -6.284   2.963  -1.377  0.00  0.00    -0.086 HD
ENDROOT
BRANCH  11  15
ATOM     15  C   UNL     1      -5.067   6.293   3.992  0.00  0.00    +0.087 A 
ATOM     16  C   UNL     1      -6.233   5.562   3.934  0.00  0.00    +0.063 A 
ATOM     17  S   UNL     1      -7.447   6.720   3.900  0.00  0.00    -0.081 S 
ATOM     18  C   UNL     1      -6.465   8.203   3.960  0.00  0.00    +0.120 A 
ATOM     19  C   UNL     1      -5.199   7.732   4.012  0.00  0.00    +0.158 A 
ATOM     20 CL   UNL     1      -7.003   9.854   3.960  0.00  0.00    -0.072 Cl
BRANCH  19  21
ATOM     21  O   UNL     1      -4.119   8.559   4.074  0.00  0.00    -0.492 OA
ATOM     22  C   UNL     1      -3.549   8.976   2.832  0.00  0.00    +0.277 C 
ENDBRANCH  19  21
ENDBRANCH  11  15
BRANCH   1  24
ATOM     23  N   UNL     1      -0.934   1.309   0.847  0.00  0.00    -0.310 N 
ATOM     24  C   UNL     1      -1.694   1.733   1.877  0.00  0.00    +0.219 C 
ATOM     25  O   UNL     1      -1.984   0.967   2.771  0.00  0.00    -0.275 OA
ATOM     26  H   UNL     1      -0.642   1.938   0.169  0.00  0.00    +0.149 HD
BRANCH  23  27
ATOM     27  C   UNL     1      -0.550  -0.101   0.752  0.00  0.00    +0.087 C 
BRANCH  27  28
ATOM     28  C   UNL     1       0.657  -0.234  -0.140  0.00  0.00    -0.029 A 
ATOM     29  C   UNL     1       0.758   0.533  -1.286  0.00  0.00    +0.005 A 
ATOM     30  C   UNL     1       1.866   0.411  -2.104  0.00  0.00    +0.000 A 
ATOM     31  C   UNL     1       2.873  -0.477  -1.776  0.00  0.00    +0.000 A 
ATOM     32  C   UNL     1       2.772  -1.244  -0.630  0.00  0.00    +0.000 A 
ATOM     33  C   UNL     1       1.667  -1.119   0.190  0.00  0.00    +0.005 A 
ENDBRANCH  27  28
BRANCH  27  34
ATOM     34  C   UNL     1      -1.710  -0.907   0.163  0.00  0.00    -0.052 C 
BRANCH  34  36
ATOM     35  C   UNL     1      -1.286  -2.781   1.599  0.00  0.00    -0.097 C 
ATOM     36  N   UNL     1      -1.382  -2.338   0.202  0.00  0.00    +0.377 N 
ATOM     37  C   UNL     1      -2.434  -3.101  -0.482  0.00  0.00    -0.097 C 
ATOM     38  H   UNL     1      -0.499  -2.493  -0.261  0.00  0.00    -0.083 HD
ENDBRANCH  34  36
ENDBRANCH  27  34
ENDBRANCH  23  27
ENDBRANCH   1  24
TORSDOF 7
