REMARK  Name = ZINC49490270
REMARK  8 active torsions:
REMARK  status: ('A' for Active; 'I' for Inactive)
REMARK    1  A    between atoms: C_1  and  N_2
REMARK    2  A    between atoms: N_2  and  C_3
REMARK    3  A    between atoms: N_2  and  C_4
REMARK    4  A    between atoms: C_4  and  C_6
REMARK    5  A    between atoms: C_4  and  C_27
REMARK    6  A    between atoms: C_6  and  N_7
REMARK    7  A    between atoms: C_8  and  C_10
REMARK    8  A    between atoms: N_12  and  C_13
REMARK                            x       y       z     vdW  Elec       q    Type
REMARK                         _______ _______ _______ _____ _____    ______ ____
ROOT
ATOM      1  C   UNL     1       2.887  -4.483  -0.474  0.00  0.00    +0.303 C 
ATOM      2  O   UNL     1       3.247  -3.833  -1.433  0.00  0.00    -0.265 OA
ATOM      3  N   UNL     1       3.225  -5.785  -0.377  0.00  0.00    -0.278 N 
ATOM      4  H   UNL     1       2.876  -6.324   0.350  0.00  0.00    +0.155 HD
ENDROOT
BRANCH   3   5
ATOM      5  C   UNL     1       4.078  -6.357  -1.326  0.00  0.00    +0.034 A 
ATOM      6  C   UNL     1       5.106  -5.607  -1.880  0.00  0.00    +0.028 A 
ATOM      7  C   UNL     1       5.957  -6.173  -2.812  0.00  0.00    -0.024 A 
ATOM      8  C   UNL     1       5.786  -7.497  -3.189  0.00  0.00    +0.043 A 
ATOM      9  C   UNL     1       4.746  -8.243  -2.648  0.00  0.00    -0.023 A 
ATOM     10  C   UNL     1       3.903  -7.680  -1.710  0.00  0.00    +0.028 A 
ATOM     11  C   UNL     1       4.518  -9.665  -3.090  0.00  0.00    +0.046 C 
ATOM     12  C   UNL     1       5.853 -10.329  -3.422  0.00  0.00    +0.101 C 
ATOM     13  C   UNL     1       6.668  -9.420  -4.302  0.00  0.00    +0.220 C 
ATOM     14  O   UNL     1       7.353  -9.895  -5.183  0.00  0.00    -0.275 OA
ATOM     15  N   UNL     1       6.647  -8.089  -4.123  0.00  0.00    -0.271 N 
ATOM     16  C   UNL     1       7.539  -7.233  -4.917  0.00  0.00    +0.114 C 
ATOM     17  C   UNL     1       8.166  -6.203  -3.969  0.00  0.00    +0.024 C 
ATOM     18  C   UNL     1       7.056  -5.323  -3.395  0.00  0.00    +0.038 C 
ENDBRANCH   3   5
BRANCH   1  20
ATOM     19  N   UNL     1       1.732  -2.541   0.503  0.00  0.00    -0.309 N 
ATOM     20  C   UNL     1       2.070  -3.842   0.600  0.00  0.00    +0.299 C 
ATOM     21  O   UNL     1       1.711  -4.493   1.559  0.00  0.00    -0.265 OA
ATOM     22  H   UNL     1       2.020  -2.021  -0.264  0.00  0.00    +0.149 HD
BRANCH  19  23
ATOM     23  C   UNL     1       0.931  -1.913   1.556  0.00  0.00    +0.094 C 
BRANCH  23  24
ATOM     24  C   UNL     1       0.796  -0.416   1.269  0.00  0.00    -0.020 C 
BRANCH  24  25
ATOM     25  C   UNL     1      -0.005  -0.216   0.009  0.00  0.00    -0.041 A 
ATOM     26  C   UNL     1       0.640  -0.060  -1.204  0.00  0.00    +0.003 A 
ATOM     27  C   UNL     1      -0.095   0.123  -2.360  0.00  0.00    +0.000 A 
ATOM     28  C   UNL     1      -1.476   0.150  -2.304  0.00  0.00    +0.001 A 
ATOM     29  C   UNL     1      -2.123  -0.006  -1.093  0.00  0.00    +0.020 A 
ATOM     30  C   UNL     1      -1.387  -0.195   0.064  0.00  0.00    +0.043 A 
ATOM     31 CL   UNL     1      -2.199  -0.398   1.585  0.00  0.00    -0.083 Cl
ENDBRANCH  24  25
BRANCH  24  33
ATOM     32  C   UNL     1       2.009   1.627   0.937  0.00  0.00    -0.096 C 
ATOM     33  N   UNL     1       2.131   0.172   1.099  0.00  0.00    +0.382 N 
ATOM     34  C   UNL     1       2.951  -0.121   2.282  0.00  0.00    -0.096 C 
ATOM     35  H   UNL     1       2.570  -0.221   0.280  0.00  0.00    -0.082 HD
ENDBRANCH  24  33
ENDBRANCH  23  24
ENDBRANCH  19  23
ENDBRANCH   1  20
TORSDOF 6
