REMARK  Name = ZINC14230930
REMARK  3 active torsions:
REMARK  status: ('A' for Active; 'I' for Inactive)
REMARK    1  A    between atoms: C_2  and  C_26
REMARK    2  A    between atoms: N_11  and  C_14
REMARK    3  A    between atoms: C_14  and  N_15
REMARK                            x       y       z     vdW  Elec       q    Type
REMARK                         _______ _______ _______ _____ _____    ______ ____
ROOT
ATOM      1  C   UNL     1       1.812   1.372   1.012  0.00  0.00    +0.037 A 
ATOM      2  C   UNL     1       1.176   2.040  -0.027  0.00  0.00    +0.074 A 
ATOM      3  C   UNL     1       0.547   1.310  -1.015  0.00  0.00    +0.125 A 
ATOM      4  N   UNL     1       0.543  -0.009  -0.984  0.00  0.00    -0.238 NA
ATOM      5  C   UNL     1       1.138  -0.683  -0.013  0.00  0.00    +0.140 A 
ATOM      6  C   UNL     1       1.792  -0.011   1.017  0.00  0.00    +0.081 A 
ATOM      7 CL   UNL     1       2.571  -0.898   2.291  0.00  0.00    -0.080 Cl
ATOM      8  N   UNL     1       1.111  -2.073  -0.020  0.00  0.00    -0.318 N 
ATOM      9  C   UNL     1       1.749  -2.606  -1.232  0.00  0.00    +0.088 C 
ATOM     10  C   UNL     1       1.769  -4.135  -1.164  0.00  0.00    -0.057 C 
ATOM     11  N   UNL     1       0.394  -4.635  -1.034  0.00  0.00    +0.395 N 
ATOM     12  C   UNL     1      -0.245  -4.102   0.177  0.00  0.00    -0.057 C 
ATOM     13  C   UNL     1      -0.265  -2.573   0.110  0.00  0.00    +0.088 C 
ATOM     14  H   UNL     1      -0.180  -4.282  -1.904  0.00  0.00    -0.079 HD
ENDROOT
BRANCH   2  15
ATOM     15  C   UNL     1       1.172   3.546  -0.074  0.00  0.00    +0.419 C 
ATOM     16  F   UNL     1       0.473   3.975  -1.207  0.00  0.00    -0.166 F 
ATOM     17  F   UNL     1       0.551   4.047   1.075  0.00  0.00    -0.166 F 
ATOM     18  F   UNL     1       2.489   4.014  -0.134  0.00  0.00    -0.166 F 
ENDBRANCH   2  15
BRANCH  11  19
ATOM     19  C   UNL     1       0.364  -6.104  -1.043  0.00  0.00    +0.072 C 
BRANCH  19  20
ATOM     20  N   UNL     1       1.210  -6.603  -2.130  0.00  0.00    -0.258 N 
ATOM     21  C   UNL     1       2.524  -6.896  -2.051  0.00  0.00    +0.176 A 
ATOM     22  S   UNL     1       3.515  -6.741  -0.663  0.00  0.00    -0.011 S 
ATOM     23  N   UNL     1       2.914  -7.334  -3.264  0.00  0.00    -0.307 N 
ATOM     24  C   UNL     1       1.828  -7.295  -4.107  0.00  0.00    +0.132 A 
ATOM     25  N   UNL     1       0.801  -6.870  -3.444  0.00  0.00    -0.158 NA
ATOM     26  C   UNL     1       1.843  -7.682  -5.565  0.00  0.00    +0.076 C 
ATOM     27  C   UNL     1       2.568  -9.021  -5.723  0.00  0.00    +0.008 C 
ATOM     28  C   UNL     1       4.062  -8.775  -5.908  0.00  0.00    +0.002 C 
ATOM     29  C   UNL     1       4.505  -7.549  -5.113  0.00  0.00    +0.022 C 
ATOM     30  C   UNL     1       4.264  -7.784  -3.620  0.00  0.00    +0.125 C 
ENDBRANCH  19  20
ENDBRANCH  11  19
TORSDOF 3
