REMARK  Name = ZINC23367436
REMARK  6 active torsions:
REMARK  status: ('A' for Active; 'I' for Inactive)
REMARK    1  A    between atoms: C_1  and  C_2
REMARK    2  A    between atoms: C_3  and  C_7
REMARK    3  A    between atoms: C_7  and  N_8
REMARK    4  A    between atoms: N_8  and  C_9
REMARK    5  A    between atoms: N_8  and  C_10
REMARK    6  A    between atoms: C_19  and  O_21
REMARK                            x       y       z     vdW  Elec       q    Type
REMARK                         _______ _______ _______ _____ _____    ______ ____
ROOT
ATOM      1  C   UNL     1       0.139   5.353   0.012  0.00  0.00    -0.007 C 
ATOM      2  C   UNL     1      -0.232   3.885  -0.020  0.00  0.00    -0.055 A 
ATOM      3  C   UNL     1      -1.474   3.274  -0.009  0.00  0.00    +0.002 A 
ATOM      4  C   UNL     1      -1.573   1.897  -0.049  0.00  0.00    +0.000 A 
ATOM      5  C   UNL     1      -0.426   1.125  -0.090  0.00  0.00    +0.000 A 
ATOM      6  C   UNL     1       0.814   1.733  -0.100  0.00  0.00    +0.004 A 
ATOM      7  C   UNL     1       0.915   3.114  -0.065  0.00  0.00    -0.037 A 
ATOM      8  C   UNL     1       2.129   4.011  -0.068  0.00  0.00    +0.017 C 
ATOM      9  C   UNL     1       1.611   5.408  -0.454  0.00  0.00    +0.116 C 
ATOM     10  C   UNL     1       3.147   3.529  -1.097  0.00  0.00    -0.005 C 
ATOM     11  C   UNL     1       4.379   4.437  -1.056  0.00  0.00    -0.082 C 
ATOM     12  N   UNL     1       4.954   4.422   0.295  0.00  0.00    +0.379 N 
ATOM     13  C   UNL     1       4.004   4.947   1.284  0.00  0.00    -0.082 C 
ATOM     14  C   UNL     1       2.760   4.055   1.321  0.00  0.00    -0.005 C 
ATOM     15  H   UNL     1       5.212   3.389   0.572  0.00  0.00    -0.086 HD
ATOM     16  H   UNL     1       5.861   5.044   0.314  0.00  0.00    -0.086 HD
ENDROOT
BRANCH   1  17
ATOM     17  N   UNL     1       0.017   5.880   1.378  0.00  0.00    +0.388 N 
ATOM     18  C   UNL     1       0.369   7.306   1.425  0.00  0.00    -0.095 C 
ATOM     19  H   UNL     1       0.728   5.335   2.015  0.00  0.00    -0.081 HD
BRANCH  17  20
ATOM     20  C   UNL     1      -1.333   5.654   1.911  0.00  0.00    -0.016 C 
BRANCH  20  23
ATOM     21  C   UNL     1      -1.982   8.481   3.141  0.00  0.00    +0.071 C 
ATOM     22  C   UNL     1      -1.644   7.244   3.932  0.00  0.00    +0.103 A 
ATOM     23  C   UNL     1      -1.354   5.979   3.382  0.00  0.00    +0.091 A 
ATOM     24  N   UNL     1      -1.112   5.136   4.341  0.00  0.00    -0.056 NA
ATOM     25  O   UNL     1      -1.231   5.842   5.566  0.00  0.00    -0.242 OA
ATOM     26  N   UNL     1      -1.575   7.176   5.228  0.00  0.00    -0.054 NA
ENDBRANCH  20  23
ENDBRANCH  17  20
ENDBRANCH   1  17
BRANCH   9  27
ATOM     27  O   UNL     1       1.689   5.612  -1.866  0.00  0.00    -0.392 OA
ATOM     28  H   UNL     1       2.671   5.675  -2.359  0.00  0.00    +0.210 HD
ENDBRANCH   9  27
TORSDOF 4
