REMARK  Name = ZINC44963148
REMARK  6 active torsions:
REMARK  status: ('A' for Active; 'I' for Inactive)
REMARK    1  A    between atoms: C_1  and  C_2
REMARK    2  A    between atoms: C_3  and  C_4
REMARK    3  A    between atoms: C_4  and  O_33
REMARK    4  A    between atoms: C_9  and  C_32
REMARK    5  A    between atoms: C_11  and  C_25
REMARK    6  A    between atoms: C_28  and  N_31
REMARK                            x       y       z     vdW  Elec       q    Type
REMARK                         _______ _______ _______ _____ _____    ______ ____
ROOT
ATOM      1  C   UNL     1       0.049  -1.866   0.174  0.00  0.00    +0.132 C 
ATOM      2  C   UNL     1       0.729  -2.424  -1.091  0.00  0.00    +0.049 C 
ATOM      3  C   UNL     1      -0.297  -3.364  -1.766  0.00  0.00    +0.008 C 
ATOM      4  C   UNL     1      -1.232  -3.758  -0.609  0.00  0.00    +0.006 C 
ATOM      5  C   UNL     1      -1.389  -2.454   0.188  0.00  0.00    +0.012 C 
ATOM      6  C   UNL     1      -2.267  -1.461  -0.581  0.00  0.00    +0.023 C 
ATOM      7  C   UNL     1      -3.654  -2.055  -0.814  0.00  0.00    +0.046 C 
ATOM      8  C   UNL     1      -3.493  -3.346  -1.592  0.00  0.00    -0.055 C 
ATOM      9  C   UNL     1      -4.217  -3.513  -2.694  0.00  0.00    -0.044 C 
ATOM     10  C   UNL     1      -5.163  -2.438  -3.176  0.00  0.00    +0.043 C 
ATOM     11  C   UNL     1      -5.025  -2.311  -4.696  0.00  0.00    +0.083 C 
ATOM     12  C   UNL     1      -5.138  -3.666  -5.339  0.00  0.00    +0.157 C 
ATOM     13  O   UNL     1      -5.691  -3.770  -6.416  0.00  0.00    -0.293 OA
ATOM     14  C   UNL     1      -4.616  -4.815  -4.720  0.00  0.00    +0.050 C 
ATOM     15  C   UNL     1      -4.135  -4.757  -3.460  0.00  0.00    -0.041 C 
ATOM     16  C   UNL     1      -3.509  -5.954  -2.787  0.00  0.00    +0.036 C 
ATOM     17  C   UNL     1      -2.240  -5.484  -2.077  0.00  0.00    +0.013 C 
ATOM     18  C   UNL     1      -2.534  -4.358  -1.081  0.00  0.00    +0.020 C 
ATOM     19  C   UNL     1      -1.897  -2.706   1.609  0.00  0.00    +0.015 C 
ENDROOT
BRANCH   7  20
ATOM     20  C   UNL     1      -4.314  -2.337   0.511  0.00  0.00    -0.040 A 
ATOM     21  C   UNL     1      -4.312  -1.373   1.502  0.00  0.00    +0.006 A 
ATOM     22  C   UNL     1      -4.917  -1.629   2.717  0.00  0.00    +0.023 A 
ATOM     23  C   UNL     1      -5.528  -2.856   2.943  0.00  0.00    +0.025 A 
ATOM     24  C   UNL     1      -5.528  -3.822   1.945  0.00  0.00    +0.023 A 
ATOM     25  C   UNL     1      -4.926  -3.558   0.730  0.00  0.00    +0.006 A 
BRANCH  23  26
ATOM     26  N   UNL     1      -6.140  -3.118   4.171  0.00  0.00    -0.358 N 
ATOM     27  H   UNL     1      -6.139  -2.443   4.867  0.00  0.00    +0.142 HD
ATOM     28  H   UNL     1      -6.566  -3.975   4.327  0.00  0.00    +0.142 HD
ENDBRANCH  23  26
ENDBRANCH   7  20
BRANCH   1  31
ATOM     29  C   UNL     1      -0.105   2.245   0.004  0.00  0.00    +0.106 C 
ATOM     30  C   UNL     1      -0.050   0.775   0.065  0.00  0.00    -0.103 C 
ATOM     31  C   UNL     1      -0.006  -0.397   0.113  0.00  0.00    -0.067 C 
ENDBRANCH   1  31
BRANCH   1  32
ATOM     32  O   UNL     1       0.762  -2.283   1.340  0.00  0.00    -0.376 OA
ATOM     33  H   UNL     1       1.672  -1.958   1.382  0.00  0.00    +0.211 HD
ENDBRANCH   1  32
TORSDOF 4
