REMARK  Name = ZINC36955796
REMARK  3 active torsions:
REMARK  status: ('A' for Active; 'I' for Inactive)
REMARK    1  A    between atoms: C_3  and  C_9
REMARK    2  A    between atoms: C_9  and  N_10
REMARK    3  A    between atoms: C_17  and  N_21
REMARK                            x       y       z     vdW  Elec       q    Type
REMARK                         _______ _______ _______ _____ _____    ______ ____
ROOT
ATOM      1  N   UNL     1       4.227   2.224   1.332  0.00  0.00    -0.230 N 
ATOM      2  C   UNL     1       3.881   3.122   2.272  0.00  0.00    +0.254 C 
ATOM      3  O   UNL     1       3.070   4.015   2.136  0.00  0.00    -0.270 OA
ATOM      4  C   UNL     1       4.653   2.836   3.500  0.00  0.00    +0.051 A 
ATOM      5  C   UNL     1       4.716   3.410   4.758  0.00  0.00    +0.014 A 
ATOM      6  C   UNL     1       5.572   2.885   5.717  0.00  0.00    +0.003 A 
ATOM      7  C   UNL     1       6.364   1.795   5.429  0.00  0.00    +0.023 A 
ATOM      8  C   UNL     1       6.316   1.201   4.166  0.00  0.00    +0.038 A 
ATOM      9  C   UNL     1       5.460   1.719   3.196  0.00  0.00    +0.070 A 
ATOM     10  C   UNL     1       5.147   1.362   1.802  0.00  0.00    +0.256 C 
ATOM     11  O   UNL     1       5.640   0.443   1.178  0.00  0.00    -0.269 OA
ENDROOT
BRANCH   8  12
ATOM     12  N   UNL     1       7.115   0.104   3.879  0.00  0.00    -0.357 N 
ATOM     13  H   UNL     1       7.709  -0.254   4.557  0.00  0.00    +0.142 HD
ATOM     14  H   UNL     1       7.078  -0.306   3.001  0.00  0.00    +0.142 HD
ENDBRANCH   8  12
BRANCH   1  15
ATOM     15  C   UNL     1       3.671   2.186  -0.023  0.00  0.00    +0.153 C 
BRANCH  15  18
ATOM     16  C   UNL     1       0.796   0.034   1.142  0.00  0.00    +0.002 A 
ATOM     17  C   UNL     1       1.976   0.753   1.135  0.00  0.00    +0.007 A 
ATOM     18  C   UNL     1       2.385   1.401  -0.016  0.00  0.00    -0.010 A 
ATOM     19  C   UNL     1       1.613   1.329  -1.162  0.00  0.00    +0.064 A 
ATOM     20  C   UNL     1       0.431   0.608  -1.155  0.00  0.00    +0.060 A 
ATOM     21  C   UNL     1       0.023  -0.039  -0.002  0.00  0.00    +0.021 A 
ATOM     22 CL   UNL     1      -0.539   0.517  -2.591  0.00  0.00    -0.082 Cl
ATOM     23 CL   UNL     1       2.125   2.143  -2.607  0.00  0.00    -0.082 Cl
ENDBRANCH  15  18
ENDBRANCH   1  15
TORSDOF 3
