REMARK  Name = ZINC59423144
REMARK  10 active torsions:
REMARK  status: ('A' for Active; 'I' for Inactive)
REMARK    1  A    between atoms: C_1  and  O_2
REMARK    2  A    between atoms: O_2  and  C_3
REMARK    3  A    between atoms: C_6  and  C_9
REMARK    4  A    between atoms: C_9  and  N_10
REMARK    5  A    between atoms: N_10  and  C_11
REMARK    6  A    between atoms: N_10  and  C_14
REMARK    7  A    between atoms: C_11  and  C_12
REMARK    8  A    between atoms: C_14  and  C_15
REMARK    9  A    between atoms: N_17  and  C_18
REMARK   10  A    between atoms: C_21  and  N_25
REMARK                            x       y       z     vdW  Elec       q    Type
REMARK                         _______ _______ _______ _____ _____    ______ ____
ROOT
ATOM      1  C   UNL     1       2.307  -3.700   6.361  0.00  0.00    +0.020 C 
ENDROOT
BRANCH   1   2
ATOM      2  C   UNL     1       1.069  -4.027   7.156  0.00  0.00    +0.201 C 
ATOM      3  O   UNL     1      -0.026  -3.737   6.722  0.00  0.00    -0.278 OA
ATOM      4  N   UNL     1       1.178  -4.644   8.350  0.00  0.00    -0.286 N 
ATOM      5  H   UNL     1       2.055  -4.816   8.728  0.00  0.00    +0.155 HD
BRANCH   4   6
ATOM      6  C   UNL     1       0.027  -5.034   9.044  0.00  0.00    +0.048 A 
ATOM      7  C   UNL     1      -1.101  -5.445   8.346  0.00  0.00    +0.026 A 
ATOM      8  C   UNL     1      -2.235  -5.830   9.034  0.00  0.00    +0.034 A 
ATOM      9  C   UNL     1      -2.249  -5.806  10.416  0.00  0.00    +0.127 A 
ATOM     10  C   UNL     1      -1.128  -5.398  11.115  0.00  0.00    +0.049 A 
ATOM     11  C   UNL     1       0.013  -5.017  10.433  0.00  0.00    +0.041 A 
ATOM     12 BR   UNL     1       1.548  -4.466  11.389  0.00  0.00    -0.048 Br
BRANCH   9  13
ATOM     13  N   UNL     1      -3.466  -6.218  11.150  0.00  0.00    +0.056 N 
ATOM     14  O   UNL     1      -4.448  -6.575  10.540  0.00  0.00    -0.126 OA
ATOM     15  O   UNL     1      -3.480  -6.198  12.358  0.00  0.00    -0.126 OA
ENDBRANCH   9  13
ENDBRANCH   4   6
ENDBRANCH   1   2
BRANCH   1  16
ATOM     16  N   UNL     1       1.922  -3.036   5.108  0.00  0.00    +0.390 N 
ATOM     17  H   UNL     1       1.265  -3.616   4.608  0.00  0.00    -0.080 HD
BRANCH  16  18
ATOM     18  C   UNL     1       3.117  -2.825   4.280  0.00  0.00    -0.042 C 
BRANCH  18  22
ATOM     19  C   UNL     1       4.708  -6.605   3.081  0.00  0.00    +0.120 A 
ATOM     20  C   UNL     1       3.680  -6.022   2.354  0.00  0.00    +0.046 A 
ATOM     21  C   UNL     1       3.168  -4.800   2.744  0.00  0.00    +0.005 A 
ATOM     22  C   UNL     1       3.678  -4.158   3.857  0.00  0.00    -0.064 A 
ATOM     23  C   UNL     1       4.702  -4.737   4.583  0.00  0.00    +0.005 A 
ATOM     24  C   UNL     1       5.214  -5.962   4.201  0.00  0.00    +0.046 A 
BRANCH  19  26
ATOM     25  C   UNL     1       4.644  -8.412   1.537  0.00  0.00    +0.277 C 
ATOM     26  O   UNL     1       5.214  -7.808   2.700  0.00  0.00    -0.495 OA
ENDBRANCH  19  26
ENDBRANCH  18  22
ENDBRANCH  16  18
BRANCH  16  27
ATOM     27  C   UNL     1       1.300  -1.740   5.411  0.00  0.00    -0.051 C 
BRANCH  27  28
ATOM     28  C   UNL     1       0.784  -1.121   4.138  0.00  0.00    -0.053 C 
ATOM     29  C   UNL     1      -0.481  -0.796   4.034  0.00  0.00    +0.002 C 
ENDBRANCH  27  28
ENDBRANCH  16  27
ENDBRANCH   1  16
TORSDOF 9
