REMARK  Name = ZINC09124313
REMARK  12 active torsions:
REMARK  status: ('A' for Active; 'I' for Inactive)
REMARK    1  A    between atoms: C_1  and  C_2
REMARK    2  A    between atoms: C_2  and  O_3
REMARK    3  A    between atoms: O_3  and  C_4
REMARK    4  A    between atoms: C_7  and  C_13
REMARK    5  A    between atoms: C_9  and  O_10
REMARK    6  A    between atoms: O_10  and  C_11
REMARK    7  A    between atoms: C_11  and  C_12
REMARK    8  A    between atoms: C_16  and  C_31
REMARK    9  A    between atoms: N_23  and  C_24
REMARK   10  A    between atoms: C_24  and  C_25
REMARK   11  A    between atoms: C_34  and  C_38
REMARK   12  A    between atoms: C_36  and  O_37
REMARK                            x       y       z     vdW  Elec       q    Type
REMARK                         _______ _______ _______ _____ _____    ______ ____
ROOT
ATOM      1  C   UNL     1       1.825  -5.908  -1.309  0.00  0.00    +0.142 C 
ATOM      2  C   UNL     1       3.030  -6.208  -0.460  0.00  0.00    +0.035 A 
ATOM      3  C   UNL     1       4.391  -5.988  -0.225  0.00  0.00    +0.102 A 
ATOM      4  N   UNL     1       4.730  -6.704   0.830  0.00  0.00    -0.173 NA
ATOM      5  N   UNL     1       3.718  -7.354   1.283  0.00  0.00    -0.272 N 
ATOM      6  H   UNL     1       3.734  -7.944   2.052  0.00  0.00    +0.189 HD
ATOM      7  C   UNL     1       2.616  -7.089   0.520  0.00  0.00    +0.126 A 
ATOM      8  C   UNL     1       1.188  -7.364   0.328  0.00  0.00    +0.266 C 
ATOM      9  O   UNL     1       0.522  -8.103   1.028  0.00  0.00    -0.268 OA
ATOM     10  N   UNL     1       0.718  -6.682  -0.734  0.00  0.00    -0.281 N 
ENDROOT
BRANCH   3  11
ATOM     11  C   UNL     1       5.289  -5.110  -1.016  0.00  0.00    +0.045 A 
ATOM     12  C   UNL     1       4.828  -4.511  -2.186  0.00  0.00    +0.034 A 
ATOM     13  C   UNL     1       5.668  -3.695  -2.919  0.00  0.00    +0.045 A 
ATOM     14  C   UNL     1       6.967  -3.471  -2.495  0.00  0.00    -0.029 A 
ATOM     15  C   UNL     1       7.433  -4.062  -1.336  0.00  0.00    +0.050 A 
ATOM     16  C   UNL     1       6.599  -4.877  -0.588  0.00  0.00    +0.126 A 
ATOM     17  C   UNL     1       7.876  -2.580  -3.301  0.00  0.00    +0.045 C 
ATOM     18 CL   UNL     1       5.093  -2.949  -4.377  0.00  0.00    -0.083 Cl
BRANCH  16  19
ATOM     19  O   UNL     1       7.055  -5.454   0.555  0.00  0.00    -0.506 OA
ATOM     20  H   UNL     1       7.463  -6.320   0.423  0.00  0.00    +0.292 HD
ENDBRANCH  16  19
ENDBRANCH   3  11
BRANCH   1  24
ATOM     21  C   UNL     1       0.930  -1.728  -1.174  0.00  0.00    +0.162 A 
ATOM     22  C   UNL     1       1.410  -2.299  -2.342  0.00  0.00    +0.050 A 
ATOM     23  C   UNL     1       1.699  -3.651  -2.382  0.00  0.00    +0.009 A 
ATOM     24  C   UNL     1       1.509  -4.435  -1.260  0.00  0.00    -0.019 A 
ATOM     25  C   UNL     1       1.030  -3.872  -0.092  0.00  0.00    +0.055 A 
ATOM     26  C   UNL     1       0.745  -2.517  -0.042  0.00  0.00    +0.162 A 
BRANCH  21  27
ATOM     27  O   UNL     1       0.646  -0.399  -1.132  0.00  0.00    -0.489 OA
BRANCH  27  29
ATOM     28  C   UNL     1       0.489   1.813  -2.093  0.00  0.00    +0.048 C 
ATOM     29  C   UNL     1       0.861   0.348  -2.332  0.00  0.00    +0.226 C 
ENDBRANCH  27  29
ENDBRANCH  21  27
BRANCH  26  30
ATOM     30  O   UNL     1       0.280  -1.959   1.107  0.00  0.00    -0.489 OA
BRANCH  30  31
ATOM     31  C   UNL     1       0.159  -2.819   2.242  0.00  0.00    +0.226 C 
ATOM     32  C   UNL     1      -0.319  -2.008   3.448  0.00  0.00    +0.048 C 
ENDBRANCH  30  31
ENDBRANCH  26  30
ENDBRANCH   1  24
BRANCH  10  33
ATOM     33  C   UNL     1      -0.661  -6.707  -1.230  0.00  0.00    +0.145 C 
BRANCH  33  34
ATOM     34  C   UNL     1      -0.809  -7.809  -2.248  0.00  0.00    -0.012 A 
ATOM     35  C   UNL     1      -0.573  -7.561  -3.591  0.00  0.00    +0.008 A 
ATOM     36  C   UNL     1      -0.721  -8.604  -4.491  0.00  0.00    +0.020 A 
ATOM     37  C   UNL     1      -1.097  -9.849  -4.023  0.00  0.00    +0.111 A 
ATOM     38  N   UNL     1      -1.314 -10.049  -2.737  0.00  0.00    -0.263 NA
ATOM     39  C   UNL     1      -1.176  -9.081  -1.852  0.00  0.00    +0.115 A 
ENDBRANCH  33  34
ENDBRANCH  10  33
TORSDOF 9
