REMARK  Name = ZINC09355011
REMARK  4 active torsions:
REMARK  status: ('A' for Active; 'I' for Inactive)
REMARK    1  A    between atoms: C_4  and  N_7
REMARK    2  A    between atoms: N_10  and  C_13
REMARK    3  A    between atoms: N_24  and  S_25
REMARK    4  A    between atoms: S_25  and  C_28
REMARK                            x       y       z     vdW  Elec       q    Type
REMARK                         _______ _______ _______ _____ _____    ______ ____
ROOT
ATOM      1  C   UNL     1       6.968  -2.594   1.032  0.00  0.00    +0.109 C 
ATOM      2  C   UNL     1       8.137  -1.905   1.035  0.00  0.00    +0.210 C 
ATOM      3  C   UNL     1       9.433  -2.597   1.017  0.00  0.00    +0.034 A 
ATOM      4  C   UNL     1      10.613  -1.899   1.284  0.00  0.00    +0.012 A 
ATOM      5  C   UNL     1      11.824  -2.562   1.261  0.00  0.00    +0.001 A 
ATOM      6  C   UNL     1      11.886  -3.917   0.975  0.00  0.00    +0.001 A 
ATOM      7  C   UNL     1      10.732  -4.629   0.709  0.00  0.00    +0.012 A 
ATOM      8  C   UNL     1       9.503  -3.977   0.729  0.00  0.00    +0.035 A 
ATOM      9  C   UNL     1       8.244  -4.703   0.455  0.00  0.00    +0.215 C 
ATOM     10  O   UNL     1       8.218  -5.741  -0.176  0.00  0.00    -0.285 OA
ATOM     11  C   UNL     1       6.999  -4.071   1.018  0.00  0.00    +0.157 C 
ATOM     12  N   UNL     1       6.002  -4.785   1.464  0.00  0.00    -0.123 NA
ATOM     13  O   UNL     1       8.109  -0.547   1.055  0.00  0.00    -0.285 OA
ENDROOT
BRANCH   1  17
ATOM     14  N   UNL     1       3.110  -1.603   1.707  0.00  0.00    -0.327 N 
ATOM     15  C   UNL     1       3.427  -2.546   0.626  0.00  0.00    +0.124 C 
ATOM     16  C   UNL     1       4.754  -2.127  -0.017  0.00  0.00    +0.124 C 
ATOM     17  N   UNL     1       5.744  -1.912   1.047  0.00  0.00    -0.322 N 
ATOM     18  C   UNL     1       5.428  -0.969   2.129  0.00  0.00    +0.124 C 
ATOM     19  C   UNL     1       4.103  -1.384   2.769  0.00  0.00    +0.124 C 
BRANCH  14  23
ATOM     20  C   UNL     1      -0.526   0.425   1.754  0.00  0.00    +0.000 A 
ATOM     21  C   UNL     1       0.351   0.557   2.815  0.00  0.00    +0.002 A 
ATOM     22  C   UNL     1       1.558  -0.115   2.803  0.00  0.00    +0.023 A 
ATOM     23  C   UNL     1       1.890  -0.923   1.723  0.00  0.00    +0.030 A 
ATOM     24  C   UNL     1       1.007  -1.053   0.659  0.00  0.00    +0.023 A 
ATOM     25  C   UNL     1      -0.198  -0.378   0.677  0.00  0.00    +0.002 A 
ENDBRANCH  14  23
ENDBRANCH   1  17
BRANCH  12  26
ATOM     26  S   UNL     1       6.086  -6.438   1.426  0.00  0.00    +0.099 S 
ATOM     27  O   UNL     1       6.100  -6.813   0.056  0.00  0.00    -0.146 OA
ATOM     28  O   UNL     1       7.118  -6.813   2.329  0.00  0.00    -0.146 OA
BRANCH  26  29
ATOM     29  C   UNL     1       4.579  -7.052   2.101  0.00  0.00    +0.112 A 
ATOM     30  C   UNL     1       4.474  -7.287   3.459  0.00  0.00    +0.029 A 
ATOM     31  C   UNL     1       3.292  -7.768   3.989  0.00  0.00    +0.002 A 
ATOM     32  C   UNL     1       2.213  -8.014   3.160  0.00  0.00    +0.000 A 
ATOM     33  C   UNL     1       2.317  -7.778   1.802  0.00  0.00    +0.002 A 
ATOM     34  C   UNL     1       3.498  -7.293   1.273  0.00  0.00    +0.029 A 
ENDBRANCH  26  29
ENDBRANCH  12  26
TORSDOF 4
