REMARK  Name = ZINC25050418
REMARK  11 active torsions:
REMARK  status: ('A' for Active; 'I' for Inactive)
REMARK    1  A    between atoms: C_1  and  C_2
REMARK    2  A    between atoms: C_2  and  C_4
REMARK    3  A    between atoms: C_2  and  O_16
REMARK    4  A    between atoms: N_6  and  C_7
REMARK    5  A    between atoms: C_10  and  C_13
REMARK    6  A    between atoms: O_16  and  C_17
REMARK    7  A    between atoms: C_17  and  C_19
REMARK    8  A    between atoms: C_26  and  C_29
REMARK    9  A    between atoms: C_29  and  C_30
REMARK   10  A    between atoms: C_29  and  C_31
REMARK   11  A    between atoms: C_29  and  C_32
REMARK                            x       y       z     vdW  Elec       q    Type
REMARK                         _______ _______ _______ _____ _____    ______ ____
ROOT
ATOM      1  C   UNL     1       1.517   2.207  -1.341  0.00  0.00    +0.062 C 
ATOM      2  C   UNL     1       1.295   1.957   0.152  0.00  0.00    +0.259 C 
ENDROOT
BRANCH   2   3
ATOM      3  C   UNL     1       1.191   3.276   0.872  0.00  0.00    +0.258 C 
ATOM      4  O   UNL     1       0.182   3.556   1.483  0.00  0.00    -0.271 OA
ATOM      5  N   UNL     1       2.220   4.146   0.837  0.00  0.00    -0.282 N 
ATOM      6  H   UNL     1       3.167   3.858   0.357  0.00  0.00    +0.155 HD
BRANCH   5   7
ATOM      7  C   UNL     1       2.084   5.410   1.409  0.00  0.00    +0.034 A 
ATOM      8  C   UNL     1       0.853   6.058   1.378  0.00  0.00    +0.024 A 
ATOM      9  C   UNL     1       0.714   7.304   1.946  0.00  0.00    +0.015 A 
ATOM     10  C   UNL     1       1.815   7.923   2.545  0.00  0.00    +0.037 A 
ATOM     11  C   UNL     1       3.051   7.273   2.569  0.00  0.00    +0.015 A 
ATOM     12  C   UNL     1       3.182   6.025   2.004  0.00  0.00    +0.024 A 
BRANCH  10  13
ATOM     13  C   UNL     1       1.671   9.262   3.150  0.00  0.00    +0.242 C 
ATOM     14  O   UNL     1       2.629   9.800   3.671  0.00  0.00    -0.270 OA
ATOM     15  N   UNL     1       0.477   9.888   3.126  0.00  0.00    -0.325 N 
ATOM     16  H   UNL     1       0.370  10.885   3.577  0.00  0.00    +0.145 HD
ATOM     17  H   UNL     1      -0.390   9.401   2.655  0.00  0.00    +0.145 HD
ENDBRANCH  10  13
ENDBRANCH   5   7
ENDBRANCH   2   3
BRANCH   2  18
ATOM     18  O   UNL     1       0.067   1.205   0.340  0.00  0.00    -0.448 OA
BRANCH  18  19
ATOM     19  C   UNL     1       0.167  -0.141   0.338  0.00  0.00    +0.347 C 
ATOM     20  O   UNL     1       1.251  -0.670   0.184  0.00  0.00    -0.244 OA
BRANCH  19  21
ATOM     21  C   UNL     1      -1.030  -0.963   0.522  0.00  0.00    +0.097 A 
ATOM     22  C   UNL     1      -1.147  -2.341   0.547  0.00  0.00    +0.026 A 
ATOM     23  C   UNL     1      -2.404  -2.888   0.743  0.00  0.00    -0.036 A 
ATOM     24  C   UNL     1      -3.441  -2.010   0.886  0.00  0.00    -0.006 A 
ATOM     25  S   UNL     1      -2.723  -0.450   0.765  0.00  0.00    -0.086 S 
ATOM     26  C   UNL     1      -4.885  -2.346   1.102  0.00  0.00    +0.043 C 
ATOM     27  C   UNL     1      -4.982  -3.823   1.511  0.00  0.00    +0.009 C 
ATOM     28  C   UNL     1      -4.136  -4.658   0.546  0.00  0.00    -0.001 C 
ATOM     29  C   UNL     1      -2.651  -4.394   0.793  0.00  0.00    +0.040 C 
BRANCH  28  30
ATOM     30  C   UNL     1      -4.432  -6.143   0.766  0.00  0.00    -0.035 C 
ATOM     31  C   UNL     1      -5.916  -6.411   0.508  0.00  0.00    +0.011 C 
ATOM     32  C   UNL     1      -3.587  -6.979  -0.197  0.00  0.00    +0.011 C 
ATOM     33  C   UNL     1      -4.088  -6.523   2.208  0.00  0.00    +0.011 C 
ENDBRANCH  28  30
ENDBRANCH  19  21
ENDBRANCH  18  19
ENDBRANCH   2  18
TORSDOF 7
