REMARK  Name = ZINC20609501
REMARK  12 active torsions:
REMARK  status: ('A' for Active; 'I' for Inactive)
REMARK    1  A    between atoms: C_1  and  C_2
REMARK    2  A    between atoms: C_2  and  O_3
REMARK    3  A    between atoms: O_3  and  C_4
REMARK    4  A    between atoms: C_4  and  C_6
REMARK    5  A    between atoms: C_9  and  C_10
REMARK    6  A    between atoms: C_13  and  O_16
REMARK    7  A    between atoms: C_17  and  N_36
REMARK    8  A    between atoms: C_18  and  C_32
REMARK    9  A    between atoms: C_22  and  C_25
REMARK   10  A    between atoms: C_28  and  O_31
REMARK   11  A    between atoms: C_32  and  O_34
REMARK   12  A    between atoms: O_34  and  C_35
REMARK                            x       y       z     vdW  Elec       q    Type
REMARK                         _______ _______ _______ _____ _____    ______ ____
ROOT
ATOM      1  C   UNL     1      -0.453   8.469   0.002  0.00  0.00    +0.118 C 
ATOM      2  C   UNL     1      -1.462   7.574  -0.306  0.00  0.00    +0.079 A 
ATOM      3  C   UNL     1      -1.312   6.245  -0.909  0.00  0.00    +0.024 A 
ATOM      4  C   UNL     1      -0.149   5.662  -1.375  0.00  0.00    +0.019 C 
ATOM      5  C   UNL     1      -2.667   5.667  -0.917  0.00  0.00    +0.065 A 
ATOM      6  C   UNL     1      -3.521   6.622  -0.412  0.00  0.00    +0.155 A 
ATOM      7  N   UNL     1      -2.816   7.793  -0.106  0.00  0.00    -0.270 N 
ATOM      8  C   UNL     1      -3.377   8.955   0.283  0.00  0.00    +0.250 C 
ATOM      9  O   UNL     1      -4.520   8.958   0.686  0.00  0.00    -0.271 OA
ATOM     10  C   UNL     1      -2.611  10.251   0.226  0.00  0.00    +0.170 C 
ATOM     11  S   UNL     1      -0.910   9.980   0.801  0.00  0.00    -0.099 S 
ENDROOT
BRANCH   4  12
ATOM     12  C   UNL     1      -0.207   4.399  -2.111  0.00  0.00    -0.024 A 
ATOM     13  C   UNL     1       0.732   3.389  -1.853  0.00  0.00    +0.011 A 
ATOM     14  C   UNL     1       0.671   2.208  -2.546  0.00  0.00    +0.046 A 
ATOM     15  C   UNL     1      -0.319   2.009  -3.502  0.00  0.00    +0.117 A 
ATOM     16  C   UNL     1      -1.250   3.008  -3.766  0.00  0.00    +0.046 A 
ATOM     17  C   UNL     1      -1.203   4.192  -3.077  0.00  0.00    +0.011 A 
BRANCH  15  18
ATOM     18  O   UNL     1      -0.374   0.836  -4.184  0.00  0.00    -0.507 OA
ATOM     19  H   UNL     1      -1.156   0.676  -4.941  0.00  0.00    +0.292 HD
ENDBRANCH  15  18
ENDBRANCH   4  12
BRANCH  10  20
ATOM     20  C   UNL     1      -2.586  10.756  -1.194  0.00  0.00    -0.025 A 
ATOM     21  C   UNL     1      -2.008   9.989  -2.189  0.00  0.00    +0.009 A 
ATOM     22  C   UNL     1      -1.989  10.447  -3.492  0.00  0.00    +0.046 A 
ATOM     23  C   UNL     1      -2.539  11.683  -3.800  0.00  0.00    +0.117 A 
ATOM     24  C   UNL     1      -3.113  12.453  -2.799  0.00  0.00    +0.046 A 
ATOM     25  C   UNL     1      -3.135  11.988  -1.498  0.00  0.00    +0.009 A 
BRANCH  23  26
ATOM     26  O   UNL     1      -2.517  12.138  -5.080  0.00  0.00    -0.507 OA
ATOM     27  H   UNL     1      -2.953  13.118  -5.323  0.00  0.00    +0.292 HD
ENDBRANCH  23  26
ENDBRANCH  10  20
BRANCH   5  28
ATOM     28  N   UNL     1      -3.016   4.400  -1.349  0.00  0.00    -0.356 N 
ATOM     29  H   UNL     1      -4.066   4.075  -1.308  0.00  0.00    +0.142 HD
ATOM     30  H   UNL     1      -2.244   3.718  -1.733  0.00  0.00    +0.142 HD
ENDBRANCH   5  28
BRANCH   1  31
ATOM     31  C   UNL     1       0.895   8.187  -0.311  0.00  0.00    +0.348 C 
ATOM     32  O   UNL     1       1.637   7.737   0.543  0.00  0.00    -0.244 OA
BRANCH  31  33
ATOM     33  O   UNL     1       1.361   8.416  -1.558  0.00  0.00    -0.461 OA
BRANCH  33  35
ATOM     34  C   UNL     1       3.077   8.431  -3.260  0.00  0.00    +0.048 C 
ATOM     35  C   UNL     1       2.735   8.107  -1.804  0.00  0.00    +0.229 C 
ENDBRANCH  33  35
ENDBRANCH  31  33
ENDBRANCH   1  31
BRANCH   6  36
ATOM     36  C   UNL     1      -4.910   6.448  -0.234  0.00  0.00    +0.358 C 
ATOM     37  O   UNL     1      -5.679   7.347  -0.525  0.00  0.00    -0.243 OA
BRANCH  36  38
ATOM     38  O   UNL     1      -5.387   5.286   0.260  0.00  0.00    -0.463 OA
ATOM     39  C   UNL     1      -6.804   5.179   0.415  0.00  0.00    +0.280 C 
ENDBRANCH  36  38
ENDBRANCH   6  36
TORSDOF 10
