REMARK  Name = ZINC39159828
REMARK  7 active torsions:
REMARK  status: ('A' for Active; 'I' for Inactive)
REMARK    1  A    between atoms: C_1  and  C_2
REMARK    2  A    between atoms: C_7  and  S_9
REMARK    3  A    between atoms: S_9  and  C_10
REMARK    4  A    between atoms: C_10  and  C_11
REMARK    5  A    between atoms: N_13  and  C_14
REMARK    6  A    between atoms: C_19  and  C_26
REMARK    7  A    between atoms: C_19  and  C_27
REMARK                            x       y       z     vdW  Elec       q    Type
REMARK                         _______ _______ _______ _____ _____    ______ ____
ROOT
ATOM      1  C   UNL     1      -0.369   3.440  -7.393  0.00  0.00    +0.225 C 
ATOM      2  O   UNL     1       0.827   3.281  -7.519  0.00  0.00    -0.275 OA
ATOM      3  N   UNL     1      -1.103   3.885  -8.432  0.00  0.00    -0.288 N 
ATOM      4  H   UNL     1      -2.059   4.012  -8.331  0.00  0.00    +0.151 HD
ENDROOT
BRANCH   3   5
ATOM      5  C   UNL     1      -0.456   4.175  -9.714  0.00  0.00    +0.224 C 
ATOM      6  N   UNL     1      -1.370   4.891 -10.623  0.00  0.00    -0.320 N 
ATOM      7  C   UNL     1      -1.705   4.284 -11.789  0.00  0.00    +0.023 C 
ATOM      8  C   UNL     1      -2.638   4.936 -12.812  0.00  0.00    +0.058 C 
ATOM      9  C   UNL     1      -2.264   4.422 -14.203  0.00  0.00    -0.023 C 
ATOM     10  C   UNL     1      -2.377   2.897 -14.258  0.00  0.00    +0.087 C 
ATOM     11  C   UNL     1      -1.450   2.297 -13.220  0.00  0.00    +0.171 C 
ATOM     12  O   UNL     1      -0.948   1.202 -13.384  0.00  0.00    -0.291 OA
ATOM     13  C   UNL     1      -1.193   3.044 -12.070  0.00  0.00    +0.070 C 
ATOM     14  H   UNL     1      -1.719   5.767 -10.395  0.00  0.00    +0.148 HD
ATOM     15  S   UNL     1      -0.169   2.635 -10.681  0.00  0.00    -0.079 S 
ATOM     16  C   UNL     1      -3.207   5.036 -15.239  0.00  0.00    +0.011 C 
ATOM     17  C   UNL     1      -0.826   4.834 -14.523  0.00  0.00    +0.011 C 
ENDBRANCH   3   5
BRANCH   1  18
ATOM     18  C   UNL     1      -1.034   3.142  -6.074  0.00  0.00    +0.173 C 
BRANCH  18  19
ATOM     19  S   UNL     1       0.211   2.566  -4.886  0.00  0.00    -0.077 S 
BRANCH  19  26
ATOM     20  C   UNL     1      -0.013   1.086   0.008  0.00  0.00    +0.066 C 
ATOM     21  C   UNL     1      -0.742   1.585  -1.213  0.00  0.00    +0.046 A 
ATOM     22  C   UNL     1      -2.106   1.799  -1.173  0.00  0.00    +0.095 A 
ATOM     23  C   UNL     1      -2.742   2.262  -2.325  0.00  0.00    +0.274 A 
ATOM     24  O   UNL     1      -4.078   2.486  -2.329  0.00  0.00    -0.266 OA
ATOM     25  N   UNL     1      -2.019   2.481  -3.416  0.00  0.00    -0.183 NA
ATOM     26  C   UNL     1      -0.712   2.263  -3.415  0.00  0.00    +0.192 A 
ATOM     27  N   UNL     1      -0.080   1.829  -2.334  0.00  0.00    -0.227 NA
ENDBRANCH  19  26
ENDBRANCH  18  19
ENDBRANCH   1  18
TORSDOF 4
