REMARK  Name = ZINC22204093
REMARK  11 active torsions:
REMARK  status: ('A' for Active; 'I' for Inactive)
REMARK    1  A    between atoms: C_1  and  N_2
REMARK    2  A    between atoms: N_2  and  C_3
REMARK    3  A    between atoms: N_2  and  C_4
REMARK    4  A    between atoms: C_4  and  C_5
REMARK    5  A    between atoms: C_5  and  C_6
REMARK    6  A    between atoms: C_6  and  N_7
REMARK    7  A    between atoms: C_16  and  S_17
REMARK    8  A    between atoms: S_17  and  C_18
REMARK    9  A    between atoms: C_18  and  C_19
REMARK   10  A    between atoms: N_21  and  C_22
REMARK   11  A    between atoms: C_22  and  C_23
REMARK                            x       y       z     vdW  Elec       q    Type
REMARK                         _______ _______ _______ _____ _____    ______ ____
ROOT
ATOM      1  N   UNL     1      -5.727   6.276  -5.176  0.00  0.00    -0.287 N 
ATOM      2  C   UNL     1      -5.945   6.455  -6.491  0.00  0.00    +0.263 A 
ATOM      3  O   UNL     1      -6.854   7.172  -6.875  0.00  0.00    -0.267 OA
ATOM      4  C   UNL     1      -5.099   5.790  -7.434  0.00  0.00    +0.076 A 
ATOM      5  C   UNL     1      -5.156   5.838  -8.896  0.00  0.00    -0.023 A 
ATOM      6  C   UNL     1      -4.238   5.115  -9.569  0.00  0.00    -0.004 A 
ATOM      7  S   UNL     1      -3.255   4.338  -8.314  0.00  0.00    -0.073 S 
ATOM      8  C   UNL     1      -4.083   4.989  -6.886  0.00  0.00    +0.117 A 
ATOM      9  N   UNL     1      -3.917   4.857  -5.575  0.00  0.00    -0.216 NA
ATOM     10  C   UNL     1      -4.711   5.482  -4.728  0.00  0.00    +0.173 A 
ATOM     11  C   UNL     1      -4.086   4.998 -11.055  0.00  0.00    +0.043 C 
ATOM     12  C   UNL     1      -5.364   5.531 -11.716  0.00  0.00    +0.005 C 
ATOM     13  C   UNL     1      -5.722   6.877 -11.080  0.00  0.00    +0.005 C 
ATOM     14  C   UNL     1      -6.200   6.662  -9.644  0.00  0.00    +0.037 C 
ENDROOT
BRANCH   1  15
ATOM     15  C   UNL     1      -6.593   6.950  -4.205  0.00  0.00    +0.125 C 
BRANCH  15  16
ATOM     16  C   UNL     1      -6.006   8.322  -3.865  0.00  0.00    +0.003 C 
BRANCH  16  17
ATOM     17  C   UNL     1      -6.911   9.026  -2.851  0.00  0.00    -0.078 C 
BRANCH  17  19
ATOM     18  C   UNL     1      -7.300  11.143  -1.743  0.00  0.00    -0.097 C 
ATOM     19  N   UNL     1      -6.348  10.343  -2.524  0.00  0.00    +0.376 N 
ATOM     20  C   UNL     1      -5.068  10.207  -1.816  0.00  0.00    -0.097 C 
ATOM     21  H   UNL     1      -6.157  10.873  -3.469  0.00  0.00    -0.083 HD
ENDBRANCH  17  19
ENDBRANCH  16  17
ENDBRANCH  15  16
ENDBRANCH   1  15
BRANCH  10  22
ATOM     22  S   UNL     1      -4.461   5.284  -2.995  0.00  0.00    -0.078 S 
BRANCH  22  23
ATOM     23  C   UNL     1      -3.040   4.163  -3.009  0.00  0.00    +0.173 C 
BRANCH  23  24
ATOM     24  C   UNL     1      -2.638   3.845  -1.591  0.00  0.00    +0.224 C 
ATOM     25  O   UNL     1      -3.252   4.328  -0.664  0.00  0.00    -0.275 OA
ATOM     26  N   UNL     1      -1.596   3.023  -1.355  0.00  0.00    -0.310 N 
ATOM     27  H   UNL     1      -1.039   2.585  -2.196  0.00  0.00    +0.149 HD
BRANCH  26  28
ATOM     28  C   UNL     1      -1.206   2.714   0.023  0.00  0.00    +0.146 C 
BRANCH  28  29
ATOM     29  C   UNL     1      -0.022   1.781   0.012  0.00  0.00    +0.007 A 
ATOM     30  C   UNL     1       1.300   2.079   0.001  0.00  0.00    +0.013 A 
ATOM     31  C   UNL     1       2.220   1.048  -0.013  0.00  0.00    +0.008 A 
ATOM     32  C   UNL     1       1.773  -0.232  -0.016  0.00  0.00    +0.045 A 
ATOM     33  S   UNL     1       0.002  -0.004   0.002  0.00  0.00    -0.100 S 
ENDBRANCH  28  29
ENDBRANCH  26  28
ENDBRANCH  23  24
ENDBRANCH  22  23
ENDBRANCH  10  22
TORSDOF 9
