REMARK  Name = ZINC39969624
REMARK  11 active torsions:
REMARK  status: ('A' for Active; 'I' for Inactive)
REMARK    1  A    between atoms: C_1  and  C_2
REMARK    2  A    between atoms: C_2  and  C_4
REMARK    3  A    between atoms: C_2  and  N_28
REMARK    4  A    between atoms: C_8  and  S_14
REMARK    5  A    between atoms: N_10  and  C_11
REMARK    6  A    between atoms: C_11  and  C_12
REMARK    7  A    between atoms: S_14  and  C_15
REMARK    8  A    between atoms: C_15  and  C_16
REMARK    9  A    between atoms: C_29  and  C_31
REMARK   10  A    between atoms: C_34  and  O_37
REMARK   11  A    between atoms: O_37  and  C_38
REMARK                            x       y       z     vdW  Elec       q    Type
REMARK                         _______ _______ _______ _____ _____    ______ ____
ROOT
ATOM      1  C   UNL     1       0.742  -0.511   1.242  0.00  0.00    +0.161 C 
ATOM      2  N   UNL     1       0.725  -1.991   1.273  0.00  0.00    -0.236 NA
ATOM      3  N   UNL     1      -0.417  -2.328   2.136  0.00  0.00    -0.229 NA
ATOM      4  C   UNL     1      -0.361  -1.282   3.190  0.00  0.00    +0.200 C 
ATOM      5  N   UNL     1       0.051  -0.056   2.466  0.00  0.00    -0.256 NA
ATOM      6  H   UNL     1       0.603  -2.371   0.346  0.00  0.00    +0.142 HD
ATOM      7  H   UNL     1      -0.310  -3.249   2.535  0.00  0.00    +0.143 HD
ENDROOT
BRANCH   1   9
ATOM      8  C   UNL     1      -0.019   1.526   0.010  0.00  0.00    +0.031 C 
ATOM      9  C   UNL     1       0.002  -0.004   0.002  0.00  0.00    +0.103 C 
BRANCH   9  10
ATOM     10  N   UNL     1       0.688  -0.476  -1.203  0.00  0.00    -0.306 N 
ATOM     11  C   UNL     1       0.006  -0.608  -2.358  0.00  0.00    +0.244 C 
ATOM     12  O   UNL     1      -1.178  -0.335  -2.400  0.00  0.00    -0.270 OA
ATOM     13  H   UNL     1       1.632  -0.695  -1.170  0.00  0.00    +0.149 HD
BRANCH  11  14
ATOM     14  C   UNL     1       0.697  -1.084  -3.573  0.00  0.00    +0.037 A 
ATOM     15  C   UNL     1       2.056  -1.404  -3.526  0.00  0.00    +0.016 A 
ATOM     16  C   UNL     1       2.697  -1.849  -4.661  0.00  0.00    +0.046 A 
ATOM     17  C   UNL     1       1.994  -1.978  -5.852  0.00  0.00    +0.120 A 
ATOM     18  C   UNL     1       0.642  -1.661  -5.904  0.00  0.00    +0.046 A 
ATOM     19  C   UNL     1      -0.008  -1.221  -4.772  0.00  0.00    +0.016 A 
BRANCH  17  20
ATOM     20  O   UNL     1       2.629  -2.415  -6.969  0.00  0.00    -0.495 OA
ATOM     21  C   UNL     1       1.847  -2.525  -8.160  0.00  0.00    +0.277 C 
ENDBRANCH  17  20
ENDBRANCH  11  14
ENDBRANCH   9  10
ENDBRANCH   1   9
BRANCH   5  22
ATOM     22  C   UNL     1       0.937   0.774   3.293  0.00  0.00    +0.115 C 
BRANCH  22  23
ATOM     23  C   UNL     1       0.137   1.417   4.396  0.00  0.00    -0.019 C 
ATOM     24  C   UNL     1       0.498   1.259   5.646  0.00  0.00    +0.005 C 
ENDBRANCH  22  23
ENDBRANCH   5  22
BRANCH   4  25
ATOM     25  S   UNL     1      -1.994  -1.056   3.949  0.00  0.00    -0.117 S 
BRANCH  25  26
ATOM     26  C   UNL     1      -3.065  -0.602   2.557  0.00  0.00    +0.146 C 
BRANCH  26  27
ATOM     27  C   UNL     1      -4.470  -0.383   3.056  0.00  0.00    +0.120 A 
ATOM     28  N   UNL     1      -5.427  -0.038   2.155  0.00  0.00    -0.310 N 
ATOM     29  H   UNL     1      -5.193   0.061   1.219  0.00  0.00    +0.170 HD
ATOM     30  C   UNL     1      -6.704   0.170   2.553  0.00  0.00    +0.259 A 
ATOM     31  O   UNL     1      -7.572   0.478   1.756  0.00  0.00    -0.267 OA
ATOM     32  C   UNL     1      -7.003   0.007   3.983  0.00  0.00    +0.065 A 
ATOM     33  C   UNL     1      -8.285   0.198   4.495  0.00  0.00    +0.015 A 
ATOM     34  C   UNL     1      -8.509   0.032   5.844  0.00  0.00    +0.001 A 
ATOM     35  C   UNL     1      -7.470  -0.322   6.694  0.00  0.00    +0.002 A 
ATOM     36  C   UNL     1      -6.196  -0.514   6.209  0.00  0.00    +0.028 A 
ATOM     37  C   UNL     1      -5.944  -0.353   4.845  0.00  0.00    +0.078 A 
ATOM     38  N   UNL     1      -4.705  -0.539   4.323  0.00  0.00    -0.233 NA
ENDBRANCH  26  27
ENDBRANCH  25  26
ENDBRANCH   4  25
TORSDOF 9
