REMARK  Name = ZINC17063178
REMARK  3 active torsions:
REMARK  status: ('A' for Active; 'I' for Inactive)
REMARK    1  A    between atoms: C_1  and  N_2
REMARK    2  A    between atoms: C_3  and  C_5
REMARK    3  A    between atoms: N_15  and  N_16
REMARK                            x       y       z     vdW  Elec       q    Type
REMARK                         _______ _______ _______ _____ _____    ______ ____
ROOT
ATOM      1  C   UNL     1       1.238   5.773   0.034  0.00  0.00    +0.100 A 
ATOM      2  C   UNL     1       1.194   7.037  -0.512  0.00  0.00    +0.030 A 
ATOM      3  C   UNL     1      -0.093   7.505  -1.041  0.00  0.00    +0.018 A 
ATOM      4  C   UNL     1      -0.163   8.651  -1.839  0.00  0.00    +0.011 A 
ATOM      5  C   UNL     1      -1.382   9.067  -2.328  0.00  0.00    +0.001 A 
ATOM      6  C   UNL     1      -2.535   8.356  -2.033  0.00  0.00    +0.004 A 
ATOM      7  C   UNL     1      -2.481   7.223  -1.244  0.00  0.00    +0.047 A 
ATOM      8  C   UNL     1      -1.265   6.789  -0.741  0.00  0.00    +0.138 A 
ATOM      9  O   UNL     1      -1.197   5.680   0.039  0.00  0.00    -0.436 OA
ATOM     10  C   UNL     1      -0.020   4.993   0.029  0.00  0.00    +0.248 A 
ATOM     11  N   UNL     1      -0.002   3.688   0.022  0.00  0.00    -0.140 NA
ENDROOT
BRANCH  11  12
ATOM     12  N   UNL     1      -1.206   2.971   0.024  0.00  0.00    -0.188 N 
ATOM     13  C   UNL     1      -1.187   1.624   0.017  0.00  0.00    +0.317 C 
ATOM     14  O   UNL     1      -2.232   1.001   0.018  0.00  0.00    -0.251 OA
ATOM     15  N   UNL     1      -0.011   0.966   0.007  0.00  0.00    -0.312 N 
ATOM     16  H   UNL     1      -2.052   3.445   0.030  0.00  0.00    +0.179 HD
ATOM     17  H   UNL     1       0.002  -0.004   0.002  0.00  0.00    +0.147 HD
ATOM     18  H   UNL     1       0.822   1.462   0.002  0.00  0.00    +0.147 HD
ENDBRANCH  11  12
BRANCH   1  21
ATOM     19  C   UNL     1       3.730   3.426   1.672  0.00  0.00    +0.128 C 
ATOM     20  N   UNL     1       2.492   3.977   1.116  0.00  0.00    -0.314 N 
ATOM     21  C   UNL     1       2.483   5.220   0.593  0.00  0.00    +0.249 C 
ATOM     22  O   UNL     1       3.502   5.883   0.584  0.00  0.00    -0.270 OA
ATOM     23  H   UNL     1       1.679   3.448   1.123  0.00  0.00    +0.149 HD
ENDBRANCH   1  21
TORSDOF 2
