REMARK  Name = ZINC60041757
REMARK  9 active torsions:
REMARK  status: ('A' for Active; 'I' for Inactive)
REMARK    1  A    between atoms: C_4  and  C_7
REMARK    2  A    between atoms: C_7  and  N_8
REMARK    3  A    between atoms: N_8  and  C_9
REMARK    4  A    between atoms: N_8  and  C_14
REMARK    5  A    between atoms: C_9  and  C_10
REMARK    6  A    between atoms: C_14  and  C_15
REMARK    7  A    between atoms: C_15  and  C_17
REMARK    8  A    between atoms: C_18  and  N_29
REMARK    9  A    between atoms: N_19  and  C_26
REMARK                            x       y       z     vdW  Elec       q    Type
REMARK                         _______ _______ _______ _____ _____    ______ ____
ROOT
ATOM      1  C   UNL     1       6.315  -1.962   2.002  0.00  0.00    +0.155 C 
ATOM      2  O   UNL     1       5.829  -1.384   2.953  0.00  0.00    -0.294 OA
ENDROOT
BRANCH   1   3
ATOM      3  C   UNL     1       7.316  -2.936   2.204  0.00  0.00    +0.118 A 
ATOM      4  C   UNL     1       7.693  -3.330   3.499  0.00  0.00    +0.116 A 
ATOM      5  N   UNL     1       8.667  -4.277   3.644  0.00  0.00    -0.278 N 
ATOM      6  C   UNL     1       9.265  -4.832   2.578  0.00  0.00    +0.331 A 
ATOM      7  O   UNL     1      10.126  -5.670   2.761  0.00  0.00    -0.246 OA
ATOM      8  N   UNL     1       8.947  -4.495   1.318  0.00  0.00    -0.274 N 
ATOM      9  H   UNL     1       9.406  -4.922   0.578  0.00  0.00    +0.173 HD
ATOM     10  C   UNL     1       7.993  -3.574   1.068  0.00  0.00    +0.266 A 
ATOM     11  O   UNL     1       7.704  -3.275  -0.076  0.00  0.00    -0.267 OA
BRANCH   5  12
ATOM     12  C   UNL     1       9.067  -4.695   4.990  0.00  0.00    +0.094 C 
ATOM     13  C   UNL     1       9.153  -6.197   5.267  0.00  0.00    +0.027 C 
ATOM     14  C   UNL     1       8.009  -5.374   5.862  0.00  0.00    +0.027 C 
ENDBRANCH   5  12
BRANCH   4  15
ATOM     15  N   UNL     1       7.098  -2.778   4.591  0.00  0.00    -0.344 N 
ATOM     16  H   UNL     1       6.275  -2.274   4.492  0.00  0.00    +0.144 HD
ATOM     17  H   UNL     1       7.496  -2.888   5.468  0.00  0.00    +0.144 HD
ENDBRANCH   4  15
ENDBRANCH   1   3
BRANCH   1  18
ATOM     18  C   UNL     1       5.849  -1.639   0.605  0.00  0.00    +0.003 C 
BRANCH  18  19
ATOM     19  N   UNL     1       4.811  -0.602   0.663  0.00  0.00    +0.387 N 
ATOM     20  H   UNL     1       4.068  -0.904   1.276  0.00  0.00    -0.081 HD
BRANCH  19  21
ATOM     21  C   UNL     1       4.272  -0.372  -0.684  0.00  0.00    -0.042 C 
BRANCH  21  25
ATOM     22  C   UNL     1       0.948   2.300  -0.455  0.00  0.00    +0.000 A 
ATOM     23  C   UNL     1       2.209   2.789  -0.741  0.00  0.00    +0.000 A 
ATOM     24  C   UNL     1       3.285   1.924  -0.815  0.00  0.00    +0.002 A 
ATOM     25  C   UNL     1       3.099   0.571  -0.602  0.00  0.00    -0.064 A 
ATOM     26  C   UNL     1       1.838   0.082  -0.316  0.00  0.00    +0.002 A 
ATOM     27  C   UNL     1       0.762   0.947  -0.243  0.00  0.00    +0.000 A 
ENDBRANCH  21  25
ENDBRANCH  19  21
BRANCH  19  28
ATOM     28  C   UNL     1       5.392   0.645   1.177  0.00  0.00    -0.074 C 
BRANCH  28  29
ATOM     29  C   UNL     1       6.617   1.020   0.339  0.00  0.00    -0.028 C 
ATOM     30  C   UNL     1       7.932   0.425   0.871  0.00  0.00    +0.002 C 
ATOM     31  C   UNL     1       8.589   1.771   0.522  0.00  0.00    +0.000 C 
ATOM     32  C   UNL     1       7.196   2.403   0.680  0.00  0.00    +0.002 C 
ENDBRANCH  28  29
ENDBRANCH  19  28
ENDBRANCH  18  19
ENDBRANCH   1  18
TORSDOF 9
