REMARK  Name = ZINC09189974
REMARK  8 active torsions:
REMARK  status: ('A' for Active; 'I' for Inactive)
REMARK    1  A    between atoms: C_1  and  C_2
REMARK    2  A    between atoms: C_2  and  C_31
REMARK    3  A    between atoms: C_6  and  C_20
REMARK    4  A    between atoms: C_11  and  S_13
REMARK    5  A    between atoms: S_13  and  C_14
REMARK    6  A    between atoms: C_14  and  C_15
REMARK    7  A    between atoms: C_15  and  O_17
REMARK    8  A    between atoms: O_17  and  C_18
REMARK                            x       y       z     vdW  Elec       q    Type
REMARK                         _______ _______ _______ _____ _____    ______ ____
ROOT
ATOM      1  C   UNL     1      -0.019   1.526   0.010  0.00  0.00    +0.011 C 
ATOM      2  C   UNL     1       0.002  -0.004   0.002  0.00  0.00    -0.023 C 
ATOM      3  C   UNL     1       0.742  -0.503  -1.241  0.00  0.00    +0.058 C 
ATOM      4  C   UNL     1       2.168  -0.005  -1.216  0.00  0.00    +0.020 C 
ATOM      5  C   UNL     1       2.816   0.182  -0.046  0.00  0.00    +0.041 C 
ATOM      6  C   UNL     1       4.249   0.663   0.011  0.00  0.00    +0.176 C 
ATOM      7  N   UNL     1       4.650   1.189  -1.288  0.00  0.00    -0.220 N 
ATOM      8  C   UNL     1       3.945   0.982  -2.427  0.00  0.00    +0.219 A 
ATOM      9  N   UNL     1       4.571   1.575  -3.406  0.00  0.00    -0.187 NA
ATOM     10  C   UNL     1       5.675   2.173  -2.935  0.00  0.00    +0.211 A 
ATOM     11  N   UNL     1       5.758   1.960  -1.639  0.00  0.00    -0.141 NA
ATOM     12  N   UNL     1       2.768   0.251  -2.425  0.00  0.00    -0.287 N 
ATOM     13  C   UNL     1       2.173  -0.060   1.181  0.00  0.00    +0.164 C 
ATOM     14  O   UNL     1       2.788   0.104   2.217  0.00  0.00    -0.292 OA
ATOM     15  C   UNL     1       0.742  -0.517   1.242  0.00  0.00    +0.086 C 
ATOM     16  C   UNL     1      -1.431  -0.539  -0.001  0.00  0.00    +0.011 C 
ATOM     17  H   UNL     1       2.379  -0.071  -3.253  0.00  0.00    +0.155 HD
ENDROOT
BRANCH   6  18
ATOM     18  C   UNL     1       5.148  -0.488   0.381  0.00  0.00    -0.013 A 
ATOM     19  C   UNL     1       5.207  -1.607  -0.428  0.00  0.00    +0.044 A 
ATOM     20  C   UNL     1       6.032  -2.666  -0.088  0.00  0.00    +0.126 A 
ATOM     21  C   UNL     1       6.800  -2.603   1.062  0.00  0.00    +0.076 A 
ATOM     22  C   UNL     1       6.741  -1.481   1.871  0.00  0.00    +0.126 A 
ATOM     23  C   UNL     1       5.919  -0.422   1.527  0.00  0.00    +0.044 A 
ATOM     24  F   UNL     1       7.489  -1.418   2.994  0.00  0.00    -0.205 F 
ATOM     25  F   UNL     1       6.088  -3.760  -0.878  0.00  0.00    -0.205 F 
ENDBRANCH   6  18
BRANCH  10  26
ATOM     26  S   UNL     1       6.828   3.095  -3.896  0.00  0.00    -0.073 S 
BRANCH  26  27
ATOM     27  C   UNL     1       6.158   3.017  -5.580  0.00  0.00    +0.197 C 
BRANCH  27  28
ATOM     28  C   UNL     1       7.062   3.777  -6.516  0.00  0.00    +0.317 C 
ATOM     29  O   UNL     1       8.057   4.315  -6.091  0.00  0.00    -0.250 OA
BRANCH  28  30
ATOM     30  O   UNL     1       6.762   3.855  -7.822  0.00  0.00    -0.467 OA
ATOM     31  C   UNL     1       7.664   4.591  -8.652  0.00  0.00    +0.280 C 
ENDBRANCH  28  30
ENDBRANCH  27  28
ENDBRANCH  26  27
ENDBRANCH  10  26
TORSDOF 5
