REMARK  Name = ZINC64152387
REMARK  4 active torsions:
REMARK  status: ('A' for Active; 'I' for Inactive)
REMARK    1  A    between atoms: C_8  and  C_28
REMARK    2  A    between atoms: N_10  and  C_16
REMARK    3  A    between atoms: C_16  and  C_17
REMARK    4  A    between atoms: N_21  and  C_22
REMARK                            x       y       z     vdW  Elec       q    Type
REMARK                         _______ _______ _______ _____ _____    ______ ____
ROOT
ATOM      1  C   UNL     1      -0.016   1.347   0.009  0.00  0.00    +0.001 A 
ATOM      2  C   UNL     1       1.165   2.101   0.002  0.00  0.00    +0.002 A 
ATOM      3  C   UNL     1       2.390   1.534  -0.017  0.00  0.00    +0.026 A 
ATOM      4  C   UNL     1       2.529   0.120  -0.031  0.00  0.00    +0.043 A 
ATOM      5  N   UNL     1       3.593  -0.653  -0.026  0.00  0.00    -0.376 N 
ATOM      6  C   UNL     1       3.155  -2.041  -0.140  0.00  0.00    +0.129 C 
ATOM      7  C   UNL     1       3.676  -2.919   1.001  0.00  0.00    +0.132 C 
ATOM      8  N   UNL     1       2.957  -4.202   0.964  0.00  0.00    -0.286 NA
ATOM      9  C   UNL     1       1.532  -4.075   1.282  0.00  0.00    +0.090 C 
ATOM     10  C   UNL     1       0.819  -3.248   0.195  0.00  0.00    +0.049 C 
ATOM     11  C   UNL     1       1.640  -1.996  -0.015  0.00  0.00    -0.035 C 
ATOM     12  C   UNL     1       1.294  -0.703  -0.014  0.00  0.00    -0.001 A 
ATOM     13  C   UNL     1       0.002  -0.004   0.002  0.00  0.00    +0.010 A 
ATOM     14  H   UNL     1       4.512  -0.352   0.043  0.00  0.00    +0.160 HD
ENDROOT
BRANCH   7  15
ATOM     15  C   UNL     1       5.153  -3.159   0.824  0.00  0.00    +0.061 A 
ATOM     16  C   UNL     1       6.024  -2.848   1.851  0.00  0.00    +0.025 A 
ATOM     17  C   UNL     1       7.381  -3.072   1.677  0.00  0.00    +0.003 A 
ATOM     18  C   UNL     1       7.813  -3.604   0.471  0.00  0.00    +0.020 A 
ATOM     19  C   UNL     1       6.884  -3.890  -0.510  0.00  0.00    +0.111 A 
ATOM     20  N   UNL     1       5.599  -3.668  -0.308  0.00  0.00    -0.258 NA
ENDBRANCH   7  15
BRANCH   8  21
ATOM     21  C   UNL     1       3.604  -5.194   1.833  0.00  0.00    +0.138 C 
BRANCH  21  22
ATOM     22  C   UNL     1       2.997  -6.551   1.586  0.00  0.00    +0.038 A 
ATOM     23  C   UNL     1       3.482  -7.494   0.754  0.00  0.00    +0.024 A 
ATOM     24  C   UNL     1       2.615  -8.604   0.821  0.00  0.00    +0.020 A 
ATOM     25  C   UNL     1       1.633  -8.297   1.692  0.00  0.00    +0.091 A 
ATOM     26  N   UNL     1       1.863  -7.039   2.170  0.00  0.00    -0.317 N 
BRANCH  26  27
ATOM     27  C   UNL     1       1.066  -6.360   3.103  0.00  0.00    +0.064 A 
ATOM     28  C   UNL     1      -0.313  -6.281   2.929  0.00  0.00    +0.029 A 
ATOM     29  C   UNL     1      -1.058  -5.599   3.877  0.00  0.00    +0.022 A 
ATOM     30  C   UNL     1      -0.413  -5.025   4.957  0.00  0.00    +0.111 A 
ATOM     31  N   UNL     1       0.895  -5.118   5.092  0.00  0.00    -0.261 NA
ATOM     32  C   UNL     1       1.640  -5.762   4.216  0.00  0.00    +0.136 A 
ENDBRANCH  26  27
ENDBRANCH  21  22
ENDBRANCH   8  21
TORSDOF 4
