REMARK  Name = ZINC22137352
REMARK  9 active torsions:
REMARK  status: ('A' for Active; 'I' for Inactive)
REMARK    1  A    between atoms: C_1  and  O_2
REMARK    2  A    between atoms: O_2  and  C_3
REMARK    3  A    between atoms: C_8  and  C_9
REMARK    4  A    between atoms: C_12  and  S_21
REMARK    5  A    between atoms: N_13  and  C_14
REMARK    6  A    between atoms: S_21  and  C_22
REMARK    7  A    between atoms: C_22  and  C_23
REMARK    8  A    between atoms: N_25  and  C_26
REMARK    9  A    between atoms: C_26  and  C_32
REMARK                            x       y       z     vdW  Elec       q    Type
REMARK                         _______ _______ _______ _____ _____    ______ ____
ROOT
ATOM      1  C   UNL     1       1.038   0.520  -4.650  0.00  0.00    +0.173 A 
ATOM      2  N   UNL     1       1.706  -0.064  -3.682  0.00  0.00    -0.128 NA
ATOM      3  N   UNL     1       1.137   0.167  -2.553  0.00  0.00    -0.122 NA
ATOM      4  C   UNL     1       0.065   0.905  -2.729  0.00  0.00    +0.197 A 
ATOM      5  N   UNL     1      -0.036   1.160  -4.070  0.00  0.00    -0.270 N 
ENDROOT
BRANCH   5   6
ATOM      6  C   UNL     1      -1.024   1.915  -4.718  0.00  0.00    +0.051 A 
ATOM      7  C   UNL     1      -1.913   1.296  -5.586  0.00  0.00    +0.028 A 
ATOM      8  C   UNL     1      -2.889   2.041  -6.219  0.00  0.00    +0.022 A 
ATOM      9  C   UNL     1      -2.974   3.405  -5.997  0.00  0.00    +0.041 A 
ATOM     10  C   UNL     1      -2.085   4.024  -5.136  0.00  0.00    +0.022 A 
ATOM     11  C   UNL     1      -1.111   3.282  -4.496  0.00  0.00    +0.028 A 
ATOM     12 CL   UNL     1      -4.196   4.339  -6.800  0.00  0.00    -0.084 Cl
ENDBRANCH   5   6
BRANCH   1  18
ATOM     13  C   UNL     1       1.708  -0.713  -6.712  0.00  0.00    +0.131 A 
ATOM     14  C   UNL     1       2.015  -0.727  -8.063  0.00  0.00    +0.046 A 
ATOM     15  C   UNL     1       2.003   0.450  -8.788  0.00  0.00    +0.004 A 
ATOM     16  C   UNL     1       1.678   1.647  -8.174  0.00  0.00    +0.001 A 
ATOM     17  C   UNL     1       1.364   1.677  -6.831  0.00  0.00    +0.015 A 
ATOM     18  C   UNL     1       1.373   0.495  -6.088  0.00  0.00    +0.061 A 
BRANCH  13  20
ATOM     19  C   UNL     1       2.076  -3.061  -6.701  0.00  0.00    +0.277 C 
ATOM     20  O   UNL     1       1.725  -1.868  -5.997  0.00  0.00    -0.494 OA
ENDBRANCH  13  20
ENDBRANCH   1  18
BRANCH   4  21
ATOM     21  S   UNL     1      -1.034   1.468  -1.472  0.00  0.00    -0.076 S 
BRANCH  21  22
ATOM     22  C   UNL     1      -0.247   0.737  -0.015  0.00  0.00    +0.173 C 
BRANCH  22  23
ATOM     23  C   UNL     1      -1.038   1.096   1.216  0.00  0.00    +0.224 C 
ATOM     24  O   UNL     1      -2.035   1.780   1.119  0.00  0.00    -0.275 OA
ATOM     25  N   UNL     1      -0.637   0.658   2.426  0.00  0.00    -0.297 N 
ATOM     26  H   UNL     1       0.267   0.038   2.514  0.00  0.00    +0.150 HD
BRANCH  25  27
ATOM     27  C   UNL     1      -1.405   1.008   3.623  0.00  0.00    +0.121 C 
ATOM     28  C   UNL     1      -1.447   2.529   3.776  0.00  0.00    +0.041 C 
ATOM     29  C   UNL     1      -2.249   2.894   5.027  0.00  0.00    +0.003 C 
ATOM     30  C   UNL     1      -1.584   2.276   6.258  0.00  0.00    +0.000 C 
ATOM     31  C   UNL     1      -1.543   0.754   6.105  0.00  0.00    +0.003 C 
ATOM     32  C   UNL     1      -0.740   0.389   4.855  0.00  0.00    +0.041 C 
BRANCH  27  33
ATOM     33  C   UNL     1      -2.777   0.490   3.494  0.00  0.00    +0.088 C 
ATOM     34  N   UNL     1      -3.836   0.090   3.395  0.00  0.00    -0.194 NA
ENDBRANCH  27  33
ENDBRANCH  25  27
ENDBRANCH  22  23
ENDBRANCH  21  22
ENDBRANCH   4  21
TORSDOF 8
