REMARK  Name = ZINC63577446
REMARK  11 active torsions:
REMARK  status: ('A' for Active; 'I' for Inactive)
REMARK    1  A    between atoms: C_1  and  C_2
REMARK    2  A    between atoms: C_4  and  O_28
REMARK    3  A    between atoms: C_5  and  S_10
REMARK    4  A    between atoms: C_7  and  O_8
REMARK    5  A    between atoms: O_8  and  C_9
REMARK    6  A    between atoms: S_10  and  N_13
REMARK    7  A    between atoms: N_13  and  C_14
REMARK    8  A    between atoms: C_14  and  C_15
REMARK    9  A    between atoms: C_15  and  C_16
REMARK   10  A    between atoms: C_24  and  C_26
REMARK   11  A    between atoms: O_28  and  C_29
REMARK                            x       y       z     vdW  Elec       q    Type
REMARK                         _______ _______ _______ _____ _____    ______ ____
ROOT
ATOM      1  N   UNL     1      -1.135  -4.823  -0.463  0.00  0.00    -0.190 NA
ATOM      2  H   UNL     1      -1.793  -5.143   0.175  0.00  0.00    +0.148 HD
ENDROOT
BRANCH   1   3
ATOM      3  S   UNL     1       0.353  -4.321   0.063  0.00  0.00    +0.062 S 
ATOM      4  O   UNL     1       1.313  -4.952  -0.773  0.00  0.00    -0.153 OA
ATOM      5  O   UNL     1       0.357  -4.473   1.476  0.00  0.00    -0.153 OA
BRANCH   3  10
ATOM      6  C   UNL     1       0.731   1.605  -1.043  0.00  0.00    +0.047 C 
ATOM      7  C   UNL     1       0.636   0.126  -0.768  0.00  0.00    -0.005 A 
ATOM      8  C   UNL     1       0.648  -0.774  -1.817  0.00  0.00    +0.054 A 
ATOM      9  C   UNL     1       0.562  -2.135  -1.564  0.00  0.00    +0.147 A 
ATOM     10  C   UNL     1       0.463  -2.592  -0.258  0.00  0.00    +0.150 A 
ATOM     11  C   UNL     1       0.451  -1.693   0.790  0.00  0.00    +0.078 A 
ATOM     12  C   UNL     1       0.543  -0.332   0.537  0.00  0.00    +0.125 A 
BRANCH  12  13
ATOM     13  O   UNL     1       0.536   0.553   1.569  0.00  0.00    -0.495 OA
ATOM     14  C   UNL     1       0.438   0.011   2.888  0.00  0.00    +0.277 C 
ENDBRANCH  12  13
BRANCH   9  15
ATOM     15  O   UNL     1       0.574  -3.020  -2.596  0.00  0.00    -0.493 OA
ATOM     16  C   UNL     1       0.613  -2.476  -3.917  0.00  0.00    +0.277 C 
ENDBRANCH   9  15
ENDBRANCH   3  10
ENDBRANCH   1   3
BRANCH   1  17
ATOM     17  C   UNL     1      -1.459  -4.784  -1.891  0.00  0.00    +0.110 C 
BRANCH  17  18
ATOM     18  C   UNL     1      -2.208  -3.488  -2.209  0.00  0.00    +0.050 C 
BRANCH  18  19
ATOM     19  C   UNL     1      -2.555  -3.455  -3.675  0.00  0.00    -0.037 C 
ATOM     20  C   UNL     1      -2.276  -4.403  -4.598  0.00  0.00    +0.001 A 
ATOM     21  C   UNL     1      -1.592  -5.699  -4.520  0.00  0.00    +0.010 A 
ATOM     22  C   UNL     1      -1.457  -6.449  -5.635  0.00  0.00    +0.002 A 
ATOM     23  C   UNL     1      -1.949  -6.038  -6.880  0.00  0.00    +0.022 A 
ATOM     24  C   UNL     1      -2.593  -4.862  -7.057  0.00  0.00    +0.064 A 
ATOM     25  C   UNL     1      -2.797  -3.967  -5.914  0.00  0.00    +0.062 A 
ATOM     26  N   UNL     1      -3.374  -2.796  -5.808  0.00  0.00    -0.377 N 
ATOM     27  C   UNL     1      -3.292  -2.358  -4.410  0.00  0.00    +0.103 C 
ATOM     28  C   UNL     1      -4.695  -2.182  -3.826  0.00  0.00    +0.035 C 
ATOM     29 CL   UNL     1      -3.175  -4.415  -8.630  0.00  0.00    -0.081 Cl
ATOM     30  H   UNL     1      -3.791  -2.303  -6.533  0.00  0.00    +0.160 HD
ENDBRANCH  18  19
ENDBRANCH  17  18
ENDBRANCH   1  17
TORSDOF 7
