REMARK  Name = ZINC33783418
REMARK  15 active torsions:
REMARK  status: ('A' for Active; 'I' for Inactive)
REMARK    1  A    between atoms: C_1  and  C_2
REMARK    2  A    between atoms: C_2  and  C_3
REMARK    3  A    between atoms: C_3  and  C_5
REMARK    4  A    between atoms: C_3  and  N_6
REMARK    5  A    between atoms: N_6  and  C_7
REMARK    6  A    between atoms: C_7  and  C_8
REMARK    7  A    between atoms: N_12  and  C_13
REMARK    8  A    between atoms: C_13  and  C_14
REMARK    9  A    between atoms: C_19  and  C_20
REMARK   10  A    between atoms: C_21  and  C_23
REMARK   11  A    between atoms: C_23  and  N_24
REMARK   12  A    between atoms: N_24  and  C_25
REMARK   13  A    between atoms: C_25  and  C_26
REMARK   14  A    between atoms: C_25  and  C_27
REMARK   15  A    between atoms: C_28  and  C_30
REMARK                            x       y       z     vdW  Elec       q    Type
REMARK                         _______ _______ _______ _____ _____    ______ ____
ROOT
ATOM      1  N   UNL     1       0.509   1.487   2.120  0.00  0.00    -0.292 N 
ATOM      2  C   UNL     1       0.772   1.309   3.429  0.00  0.00    +0.234 C 
ATOM      3  O   UNL     1       1.853   0.884   3.779  0.00  0.00    -0.274 OA
ENDROOT
BRANCH   1   4
ATOM      4  C   UNL     1      -0.757   2.095   1.703  0.00  0.00    +0.073 C 
ATOM      5  C   UNL     1      -1.444   1.190   0.678  0.00  0.00    +0.028 C 
BRANCH   4   7
ATOM      6  C   UNL     1       0.077   4.409   2.137  0.00  0.00    +0.005 C 
ATOM      7  C   UNL     1      -0.484   3.462   1.074  0.00  0.00    +0.019 C 
ENDBRANCH   4   7
ENDBRANCH   1   4
BRANCH   1   8
ATOM      8  C   UNL     1       1.490   1.073   1.113  0.00  0.00    +0.161 C 
BRANCH   8   9
ATOM      9  C   UNL     1       2.424   2.219   0.820  0.00  0.00    +0.036 A 
ATOM     10  C   UNL     1       2.296   3.106  -0.188  0.00  0.00    +0.024 A 
ATOM     11  C   UNL     1       3.376   4.005  -0.098  0.00  0.00    +0.019 A 
ATOM     12  C   UNL     1       4.123   3.634   0.962  0.00  0.00    +0.086 A 
ATOM     13  N   UNL     1       3.540   2.542   1.533  0.00  0.00    -0.345 N 
BRANCH  13  14
ATOM     14  C   UNL     1       4.034   1.831   2.715  0.00  0.00    +0.157 C 
BRANCH  14  15
ATOM     15  C   UNL     1       5.449   2.260   3.005  0.00  0.00    -0.025 A 
ATOM     16  C   UNL     1       6.509   1.500   2.548  0.00  0.00    +0.005 A 
ATOM     17  C   UNL     1       7.807   1.893   2.813  0.00  0.00    +0.000 A 
ATOM     18  C   UNL     1       8.045   3.048   3.535  0.00  0.00    +0.000 A 
ATOM     19  C   UNL     1       6.985   3.809   3.991  0.00  0.00    +0.004 A 
ATOM     20  C   UNL     1       5.687   3.417   3.722  0.00  0.00    -0.046 A 
ATOM     21  C   UNL     1       4.532   4.250   4.215  0.00  0.00    +0.044 C 
ENDBRANCH  14  15
ENDBRANCH  13  14
ENDBRANCH   8   9
ENDBRANCH   1   8
BRANCH   2  22
ATOM     22  C   UNL     1      -0.277   1.638   4.460  0.00  0.00    +0.204 C 
BRANCH  22  23
ATOM     23  N   UNL     1       0.286   1.464   5.802  0.00  0.00    -0.286 N 
ATOM     24  C   UNL     1       0.299   0.244   6.374  0.00  0.00    +0.254 C 
ATOM     25  O   UNL     1       0.659   0.118   7.530  0.00  0.00    -0.269 OA
BRANCH  24  26
ATOM     26  C   UNL     1      -0.121  -0.931   5.605  0.00  0.00    +0.074 A 
ATOM     27  C   UNL     1      -0.164  -2.260   5.995  0.00  0.00    +0.021 A 
ATOM     28  C   UNL     1      -0.606  -3.170   5.066  0.00  0.00    +0.008 A 
ATOM     29  C   UNL     1      -0.964  -2.735   3.830  0.00  0.00    +0.046 A 
ATOM     30  S   UNL     1      -0.701  -1.024   3.921  0.00  0.00    -0.092 S 
ENDBRANCH  24  26
BRANCH  23  31
ATOM     31  C   UNL     1       0.834   2.617   6.521  0.00  0.00    +0.071 C 
ATOM     32  C   UNL     1       2.032   3.176   5.751  0.00  0.00    +0.028 C 
ATOM     33  C   UNL     1      -0.241   3.698   6.647  0.00  0.00    +0.028 C 
ENDBRANCH  23  31
ENDBRANCH  22  23
ENDBRANCH   2  22
TORSDOF 10
