REMARK  Name = ZINC40732473
REMARK  4 active torsions:
REMARK  status: ('A' for Active; 'I' for Inactive)
REMARK    1  A    between atoms: C_1  and  C_2
REMARK    2  A    between atoms: C_10  and  N_28
REMARK    3  A    between atoms: C_11  and  N_15
REMARK    4  A    between atoms: N_18  and  C_21
REMARK                            x       y       z     vdW  Elec       q    Type
REMARK                         _______ _______ _______ _____ _____    ______ ____
ROOT
ATOM      1  C   UNL     1      -1.374  -0.607   2.610  0.00  0.00    +0.028 C 
ATOM      2  C   UNL     1      -0.643  -1.183   1.395  0.00  0.00    +0.072 C 
ATOM      3  C   UNL     1      -1.533  -1.057   0.154  0.00  0.00    +0.022 C 
ATOM      4  C   UNL     1      -0.746  -1.505  -1.080  0.00  0.00    +0.003 C 
ATOM      5  C   UNL     1       0.474  -0.600  -1.266  0.00  0.00    +0.019 C 
ATOM      6  C   UNL     1       1.386  -0.721  -0.041  0.00  0.00    +0.107 C 
ATOM      7  N   UNL     1       0.600  -0.434   1.167  0.00  0.00    -0.311 N 
ATOM      8  C   UNL     1       1.023   0.529   2.075  0.00  0.00    +0.147 A 
ATOM      9  C   UNL     1       1.868   0.186   3.131  0.00  0.00    +0.106 A 
ATOM     10  C   UNL     1       2.263   1.192   4.014  0.00  0.00    +0.147 A 
ATOM     11  N   UNL     1       1.821   2.432   3.817  0.00  0.00    -0.219 NA
ATOM     12  C   UNL     1       1.024   2.715   2.807  0.00  0.00    +0.225 A 
ATOM     13  N   UNL     1       0.632   1.795   1.948  0.00  0.00    -0.219 NA
ENDROOT
BRANCH  10  14
ATOM     14  N   UNL     1       3.104   0.904   5.082  0.00  0.00    -0.311 N 
ATOM     15  C   UNL     1       4.563   0.926   4.913  0.00  0.00    +0.125 C 
ATOM     16  C   UNL     1       5.163   1.882   5.951  0.00  0.00    +0.124 C 
ATOM     17  N   UNL     1       4.608   1.551   7.271  0.00  0.00    -0.325 N 
ATOM     18  C   UNL     1       3.149   1.529   7.440  0.00  0.00    +0.124 C 
ATOM     19  C   UNL     1       2.549   0.578   6.404  0.00  0.00    +0.125 C 
BRANCH  17  20
ATOM     20  C   UNL     1       5.454   1.261   8.346  0.00  0.00    +0.065 A 
ATOM     21  C   UNL     1       5.888   2.279   9.184  0.00  0.00    +0.026 A 
ATOM     22  C   UNL     1       6.724   1.989  10.246  0.00  0.00    +0.002 A 
ATOM     23  C   UNL     1       7.128   0.687  10.475  0.00  0.00    +0.003 A 
ATOM     24  C   UNL     1       6.699  -0.331   9.643  0.00  0.00    +0.040 A 
ATOM     25  C   UNL     1       5.858  -0.049   8.582  0.00  0.00    +0.144 A 
ATOM     26  F   UNL     1       5.434  -1.044   7.772  0.00  0.00    -0.204 F 
ENDBRANCH  17  20
ENDBRANCH  10  14
BRANCH   9  27
ATOM     27  N   UNL     1       2.310  -1.137   3.301  0.00  0.00    -0.353 N 
ATOM     28  H   UNL     1       2.094  -1.809   2.636  0.00  0.00    +0.143 HD
ATOM     29  H   UNL     1       2.830  -1.378   4.083  0.00  0.00    +0.143 HD
ENDBRANCH   9  27
TORSDOF 3
