REMARK  Name = ZINC39531029
REMARK  8 active torsions:
REMARK  status: ('A' for Active; 'I' for Inactive)
REMARK    1  A    between atoms: C_4  and  C_7
REMARK    2  A    between atoms: C_7  and  C_8
REMARK    3  A    between atoms: C_11  and  C_14
REMARK    4  A    between atoms: C_14  and  C_16
REMARK    5  A    between atoms: C_14  and  N_19
REMARK    6  A    between atoms: C_16  and  N_17
REMARK    7  A    between atoms: C_23  and  C_26
REMARK    8  A    between atoms: C_31  and  O_32
REMARK                            x       y       z     vdW  Elec       q    Type
REMARK                         _______ _______ _______ _____ _____    ______ ____
ROOT
ATOM      1  C   UNL     1       5.468  -1.616   5.403  0.00  0.00    +0.103 C 
ENDROOT
BRANCH   1   2
ATOM      2  N   UNL     1       5.795  -3.038   5.574  0.00  0.00    -0.297 NA
ATOM      3  C   UNL     1       4.581  -3.833   5.811  0.00  0.00    +0.066 C 
ATOM      4  C   UNL     1       4.957  -5.312   5.924  0.00  0.00    -0.066 C 
ATOM      5  N   UNL     1       5.906  -5.493   7.030  0.00  0.00    +0.385 N 
ATOM      6  C   UNL     1       7.123  -4.713   6.766  0.00  0.00    -0.023 C 
ATOM      7  C   UNL     1       6.765  -3.229   6.661  0.00  0.00    +0.074 C 
ATOM      8  H   UNL     1       5.484  -5.177   7.891  0.00  0.00    -0.085 HD
ATOM      9  H   UNL     1       6.144  -6.470   7.112  0.00  0.00    -0.085 HD
BRANCH   6  10
ATOM     10  C   UNL     1       8.103  -4.915   7.894  0.00  0.00    -0.019 A 
ATOM     11  C   UNL     1       7.662  -5.379   9.118  0.00  0.00    +0.005 A 
ATOM     12  C   UNL     1       8.561  -5.563  10.153  0.00  0.00    +0.000 A 
ATOM     13  C   UNL     1       9.902  -5.284   9.965  0.00  0.00    +0.004 A 
ATOM     14  C   UNL     1      10.347  -4.820   8.742  0.00  0.00    +0.045 A 
ATOM     15  C   UNL     1       9.448  -4.639   7.701  0.00  0.00    +0.118 A 
BRANCH  15  16
ATOM     16  O   UNL     1       9.885  -4.189   6.495  0.00  0.00    -0.507 OA
ATOM     17  H   UNL     1       9.879  -3.225   6.410  0.00  0.00    +0.292 HD
ENDBRANCH  15  16
ENDBRANCH   6  10
ENDBRANCH   1   2
BRANCH   1  21
ATOM     18  C   UNL     1       4.391  -0.882   1.335  0.00  0.00    -0.043 A 
ATOM     19  C   UNL     1       4.781   0.167   2.147  0.00  0.00    +0.004 A 
ATOM     20  C   UNL     1       5.130  -0.071   3.463  0.00  0.00    +0.005 A 
ATOM     21  C   UNL     1       5.087  -1.357   3.968  0.00  0.00    -0.029 A 
ATOM     22  C   UNL     1       4.696  -2.406   3.156  0.00  0.00    +0.005 A 
ATOM     23  C   UNL     1       4.343  -2.167   1.841  0.00  0.00    +0.004 A 
BRANCH  18  24
ATOM     24  C   UNL     1       4.011  -0.623  -0.100  0.00  0.00    +0.070 C 
BRANCH  24  28
ATOM     25  C   UNL     1      -0.174   0.203  -0.341  0.00  0.00    +0.000 A 
ATOM     26  C   UNL     1       0.725   1.236  -0.149  0.00  0.00    +0.000 A 
ATOM     27  C   UNL     1       2.079   0.969  -0.071  0.00  0.00    +0.004 A 
ATOM     28  C   UNL     1       2.534  -0.332  -0.184  0.00  0.00    -0.043 A 
ATOM     29  C   UNL     1       1.636  -1.365  -0.375  0.00  0.00    +0.004 A 
ATOM     30  C   UNL     1       0.282  -1.097  -0.455  0.00  0.00    +0.000 A 
ENDBRANCH  24  28
ENDBRANCH  18  24
ENDBRANCH   1  21
BRANCH   1  31
ATOM     31  C   UNL     1       4.297  -1.249   6.316  0.00  0.00    +0.140 C 
BRANCH  31  32
ATOM     32  N   UNL     1       4.670  -1.496   7.715  0.00  0.00    -0.157 NA
ATOM     33  F   UNL     1       3.758  -1.049   8.526  0.00  0.00    -0.136 F 
ATOM     34  H   UNL     1       4.846  -2.477   7.874  0.00  0.00    +0.159 HD
ENDBRANCH  31  32
ENDBRANCH   1  31
TORSDOF 8
