REMARK  Name = ZINC43289959
REMARK  8 active torsions:
REMARK  status: ('A' for Active; 'I' for Inactive)
REMARK    1  A    between atoms: C_1  and  C_2
REMARK    2  A    between atoms: C_2  and  C_4
REMARK    3  A    between atoms: C_2  and  N_23
REMARK    4  A    between atoms: C_4  and  C_6
REMARK    5  A    between atoms: C_4  and  O_12
REMARK    6  A    between atoms: O_12  and  C_13
REMARK    7  A    between atoms: C_16  and  S_19
REMARK    8  A    between atoms: S_19  and  C_22
REMARK                            x       y       z     vdW  Elec       q    Type
REMARK                         _______ _______ _______ _____ _____    ______ ____
ROOT
ATOM      1  C   UNL     1       0.749  -0.511   1.252  0.00  0.00    +0.196 C 
ENDROOT
BRANCH   1   2
ATOM      2  C   UNL     1       2.165   0.003   1.299  0.00  0.00    +0.029 A 
ATOM      3  C   UNL     1       2.673   1.040   2.008  0.00  0.00    +0.030 A 
ATOM      4  C   UNL     1       4.020   1.334   1.895  0.00  0.00    +0.025 A 
ATOM      5  C   UNL     1       4.791   0.576   1.078  0.00  0.00    +0.060 A 
ATOM      6  S   UNL     1       3.610  -0.601   0.441  0.00  0.00    -0.097 S 
ATOM      7 BR   UNL     1       4.773   2.772   2.865  0.00  0.00    -0.050 Br
ENDBRANCH   1   2
BRANCH   1   9
ATOM      8  C   UNL     1       0.047   1.539   0.007  0.00  0.00    -0.010 C 
ATOM      9  C   UNL     1       0.060   0.009  -0.012  0.00  0.00    -0.032 C 
BRANCH   9  10
ATOM     10  N   UNL     1      -1.320  -0.492  -0.058  0.00  0.00    +0.382 N 
ATOM     11  H   UNL     1      -1.775  -0.149  -0.891  0.00  0.00    -0.089 HD
ATOM     12  H   UNL     1      -1.312  -1.501  -0.070  0.00  0.00    -0.089 HD
ATOM     13  H   UNL     1      -1.822  -0.170   0.756  0.00  0.00    -0.089 HD
ENDBRANCH   9  10
ENDBRANCH   1   9
BRANCH   1  14
ATOM     14  O   UNL     1       0.761  -1.940   1.234  0.00  0.00    -0.485 OA
BRANCH  14  15
ATOM     15  C   UNL     1      -0.215  -2.574   1.934  0.00  0.00    +0.121 A 
ATOM     16  C   UNL     1      -0.194  -3.955   2.061  0.00  0.00    +0.047 A 
ATOM     17  C   UNL     1      -1.188  -4.598   2.774  0.00  0.00    +0.030 A 
ATOM     18  C   UNL     1      -2.203  -3.865   3.361  0.00  0.00    +0.088 A 
ATOM     19  C   UNL     1      -2.227  -2.488   3.236  0.00  0.00    +0.030 A 
ATOM     20  C   UNL     1      -1.232  -1.841   2.529  0.00  0.00    +0.047 A 
BRANCH  18  21
ATOM     21  S   UNL     1      -3.470  -4.687   4.269  0.00  0.00    -0.006 S 
ATOM     22  O   UNL     1      -4.593  -3.820   4.190  0.00  0.00    -0.170 OA
ATOM     23  O   UNL     1      -3.523  -5.994   3.714  0.00  0.00    -0.170 OA
ATOM     24  C   UNL     1      -2.852  -4.756   5.973  0.00  0.00    +0.200 C 
ENDBRANCH  18  21
ENDBRANCH  14  15
ENDBRANCH   1  14
TORSDOF 6
