REMARK  Name = ZINC08931631
REMARK  14 active torsions:
REMARK  status: ('A' for Active; 'I' for Inactive)
REMARK    1  A    between atoms: C_1  and  C_2
REMARK    2  A    between atoms: C_2  and  N_64
REMARK    3  A    between atoms: C_3  and  C_4
REMARK    4  A    between atoms: C_3  and  N_64
REMARK    5  A    between atoms: C_5  and  C_6
REMARK    6  A    between atoms: C_5  and  N_64
REMARK    7  A    between atoms: C_6  and  N_7
REMARK    8  A    between atoms: C_8  and  C_27
REMARK    9  A    between atoms: C_11  and  C_12
REMARK   10  A    between atoms: C_11  and  O_22
REMARK   11  A    between atoms: C_15  and  O_18
REMARK   12  A    between atoms: O_18  and  C_19
REMARK   13  A    between atoms: C_19  and  C_20
REMARK   14  A    between atoms: C_19  and  C_21
REMARK                            x       y       z     vdW  Elec       q    Type
REMARK                         _______ _______ _______ _____ _____    ______ ____
ROOT
ATOM      1  N   UNL     1      -2.641   2.594  -0.135  0.00  0.00    -0.285 N 
ATOM      2  C   UNL     1      -2.023   1.614  -1.032  0.00  0.00    +0.144 C 
ATOM      3  C   UNL     1      -1.841   0.347  -0.228  0.00  0.00    +0.071 C 
ATOM      4  C   UNL     1      -1.291  -0.842  -0.667  0.00  0.00    +0.133 C 
ATOM      5  C   UNL     1      -2.346   0.621   1.051  0.00  0.00    +0.249 C 
ATOM      6  O   UNL     1      -2.380  -0.158   1.987  0.00  0.00    -0.282 OA
ATOM      7  C   UNL     1      -2.833   2.026   1.067  0.00  0.00    +0.288 C 
ATOM      8  O   UNL     1      -3.331   2.579   2.027  0.00  0.00    -0.266 OA
ENDROOT
BRANCH   2   9
ATOM      9  C   UNL     1      -0.685   2.119  -1.506  0.00  0.00    -0.021 A 
ATOM     10  C   UNL     1       0.152   2.784  -0.629  0.00  0.00    +0.006 A 
ATOM     11  C   UNL     1       1.382   3.243  -1.062  0.00  0.00    +0.002 A 
ATOM     12  C   UNL     1       1.772   3.047  -2.373  0.00  0.00    +0.020 A 
ATOM     13  C   UNL     1       0.932   2.386  -3.252  0.00  0.00    +0.041 A 
ATOM     14  C   UNL     1      -0.297   1.922  -2.817  0.00  0.00    +0.025 A 
ATOM     15 CL   UNL     1       1.420   2.140  -4.900  0.00  0.00    -0.084 Cl
ENDBRANCH   2   9
BRANCH   4  16
ATOM     16  C   UNL     1      -1.054  -1.938   0.285  0.00  0.00    +0.017 A 
ATOM     17  C   UNL     1      -0.354  -1.698   1.473  0.00  0.00    +0.015 A 
ATOM     18  C   UNL     1      -0.141  -2.725   2.364  0.00  0.00    +0.046 A 
ATOM     19  C   UNL     1      -0.608  -4.003   2.079  0.00  0.00    +0.121 A 
ATOM     20  C   UNL     1      -1.299  -4.249   0.897  0.00  0.00    +0.046 A 
ATOM     21  C   UNL     1      -1.523  -3.227   0.003  0.00  0.00    +0.015 A 
BRANCH  19  22
ATOM     22  O   UNL     1      -0.390  -5.015   2.957  0.00  0.00    -0.489 OA
BRANCH  22  23
ATOM     23  C   UNL     1       0.431  -4.724   4.090  0.00  0.00    +0.167 C 
ATOM     24  C   UNL     1      -0.431  -4.125   5.203  0.00  0.00    +0.051 C 
ATOM     25  C   UNL     1       1.086  -6.013   4.590  0.00  0.00    +0.051 C 
ENDBRANCH  22  23
ENDBRANCH  19  22
ENDBRANCH   4  16
BRANCH   4  26
ATOM     26  O   UNL     1      -0.971  -0.998  -1.970  0.00  0.00    -0.506 OA
ATOM     27  H   UNL     1      -0.588  -1.911  -2.112  0.00  0.00    +0.292 HD
ENDBRANCH   4  26
BRANCH   1  28
ATOM     28  C   UNL     1      -2.998   3.970  -0.493  0.00  0.00    +0.090 C 
BRANCH  28  29
ATOM     29  C   UNL     1      -1.816   4.896  -0.199  0.00  0.00    -0.060 C 
BRANCH  29  30
ATOM     30  N   UNL     1      -2.236   6.292  -0.445  0.00  0.00    +0.380 N 
ATOM     31  H   UNL     1      -2.810   6.322  -1.296  0.00  0.00    -0.082 HD
BRANCH  30  33
ATOM     32  C   UNL     1      -3.646   8.139   0.320  0.00  0.00    -0.017 C 
ATOM     33  C   UNL     1      -3.040   6.785   0.694  0.00  0.00    -0.082 C 
ENDBRANCH  30  33
BRANCH  30  34
ATOM     34  C   UNL     1      -1.048   7.151  -0.634  0.00  0.00    -0.082 C 
ATOM     35  C   UNL     1      -0.526   6.955  -2.059  0.00  0.00    -0.017 C 
ENDBRANCH  30  34
ENDBRANCH  29  30
ENDBRANCH  28  29
ENDBRANCH   1  28
TORSDOF 10
