REMARK  Name = ZINC63106921
REMARK  7 active torsions:
REMARK  status: ('A' for Active; 'I' for Inactive)
REMARK    1  A    between atoms: C_7  and  C_10
REMARK    2  A    between atoms: C_10  and  C_11
REMARK    3  A    between atoms: C_11  and  N_12
REMARK    4  A    between atoms: C_13  and  C_15
REMARK    5  A    between atoms: C_15  and  N_16
REMARK    6  A    between atoms: C_19  and  C_22
REMARK    7  A    between atoms: C_19  and  N_25
REMARK                            x       y       z     vdW  Elec       q    Type
REMARK                         _______ _______ _______ _____ _____    ______ ____
ROOT
ATOM      1  N   UNL     1      -0.983  -6.853  -4.444  0.00  0.00    +0.386 N 
ATOM      2  C   UNL     1      -0.062  -7.683  -5.232  0.00  0.00    -0.076 C 
ATOM      3  C   UNL     1      -0.767  -8.171  -6.499  0.00  0.00    +0.013 C 
ATOM      4  C   UNL     1      -1.994  -8.998  -6.108  0.00  0.00    +0.095 C 
ATOM      5  C   UNL     1      -2.912  -8.147  -5.225  0.00  0.00    +0.013 C 
ATOM      6  C   UNL     1      -2.127  -7.660  -4.005  0.00  0.00    -0.076 C 
ATOM      7  H   UNL     1      -1.311  -6.087  -5.012  0.00  0.00    -0.081 HD
ENDROOT
BRANCH   4   8
ATOM      8  N   UNL     1      -2.719  -9.406  -7.319  0.00  0.00    -0.289 NA
ATOM      9  C   UNL     1      -1.853 -10.186  -8.212  0.00  0.00    +0.085 C 
ATOM     10  C   UNL     1      -2.591 -10.469  -9.523  0.00  0.00    +0.015 C 
ATOM     11  C   UNL     1      -3.877 -11.244  -9.221  0.00  0.00    +0.002 C 
ATOM     12  C   UNL     1      -4.739 -10.431  -8.251  0.00  0.00    +0.015 C 
ATOM     13  C   UNL     1      -3.938 -10.150  -6.978  0.00  0.00    +0.085 C 
ENDBRANCH   4   8
BRANCH   4  14
ATOM     14  C   UNL     1      -1.555 -10.222  -5.345  0.00  0.00    +0.231 C 
ATOM     15  O   UNL     1      -0.388 -10.553  -5.350  0.00  0.00    -0.274 OA
ATOM     16  N   UNL     1      -2.459 -10.948  -4.658  0.00  0.00    -0.328 N 
ATOM     17  H   UNL     1      -3.401 -10.726  -4.712  0.00  0.00    +0.145 HD
ATOM     18  H   UNL     1      -2.166 -11.693  -4.110  0.00  0.00    +0.145 HD
ENDBRANCH   4  14
BRANCH   1  19
ATOM     19  C   UNL     1      -0.278  -6.324  -3.269  0.00  0.00    +0.019 C 
BRANCH  19  21
ATOM     20  N   UNL     1       1.606  -4.790  -2.805  0.00  0.00    -0.317 N 
ATOM     21  C   UNL     1       0.822  -5.397  -3.718  0.00  0.00    +0.196 C 
ATOM     22  O   UNL     1       1.002  -5.197  -4.901  0.00  0.00    -0.278 OA
ATOM     23  H   UNL     1       1.462  -4.950  -1.859  0.00  0.00    +0.149 HD
BRANCH  20  24
ATOM     24  C   UNL     1       2.676  -3.889  -3.242  0.00  0.00    +0.108 C 
BRANCH  24  25
ATOM     25  C   UNL     1       3.409  -3.338  -2.017  0.00  0.00    +0.052 C 
BRANCH  25  32
ATOM     26  C   UNL     1       3.604   1.216  -2.549  0.00  0.00    +0.001 A 
ATOM     27  C   UNL     1       4.849   1.677  -2.998  0.00  0.00    +0.002 A 
ATOM     28  C   UNL     1       5.887   0.850  -3.246  0.00  0.00    +0.026 A 
ATOM     29  C   UNL     1       5.748  -0.553  -3.056  0.00  0.00    +0.043 A 
ATOM     30  N   UNL     1       6.590  -1.544  -3.226  0.00  0.00    -0.380 N 
ATOM     31  C   UNL     1       5.913  -2.798  -2.878  0.00  0.00    +0.144 C 
ATOM     32  C   UNL     1       4.510  -2.411  -2.466  0.00  0.00    -0.040 C 
ATOM     33  C   UNL     1       4.443  -1.065  -2.583  0.00  0.00    -0.001 A 
ATOM     34  C   UNL     1       3.366  -0.098  -2.337  0.00  0.00    +0.010 A 
ATOM     35  H   UNL     1       7.508  -1.462  -3.530  0.00  0.00    +0.160 HD
ENDBRANCH  25  32
ENDBRANCH  24  25
ENDBRANCH  20  24
ENDBRANCH  19  21
ENDBRANCH   1  19
TORSDOF 7
