REMARK  Name = ZINC02255640
REMARK  3 active torsions:
REMARK  status: ('A' for Active; 'I' for Inactive)
REMARK    1  A    between atoms: C_4  and  C_7
REMARK    2  A    between atoms: C_17  and  C_31
REMARK    3  A    between atoms: C_19  and  C_21
REMARK                            x       y       z     vdW  Elec       q    Type
REMARK                         _______ _______ _______ _____ _____    ______ ____
ROOT
ATOM      1  C   UNL     1       2.505  -0.306  -0.028  0.00  0.00    +0.251 C 
ATOM      2  O   UNL     1       3.585  -0.659   0.404  0.00  0.00    -0.270 OA
ATOM      3  N   UNL     1       2.413   0.801  -0.790  0.00  0.00    -0.256 N 
ATOM      4  C   UNL     1       1.262   1.051  -1.552  0.00  0.00    +0.058 A 
ATOM      5  C   UNL     1       0.358   0.032  -1.808  0.00  0.00    +0.025 A 
ATOM      6  C   UNL     1      -0.773   0.287  -2.562  0.00  0.00    +0.002 A 
ATOM      7  C   UNL     1      -1.010   1.558  -3.053  0.00  0.00    +0.002 A 
ATOM      8  C   UNL     1      -0.114   2.580  -2.803  0.00  0.00    +0.025 A 
ATOM      9  C   UNL     1       1.025   2.331  -2.053  0.00  0.00    +0.049 A 
ATOM     10  N   UNL     1       1.941   3.361  -1.797  0.00  0.00    -0.333 N 
ATOM     11  C   UNL     1       2.924   3.182  -0.718  0.00  0.00    +0.128 C 
ATOM     12  C   UNL     1       3.518   1.771  -0.838  0.00  0.00    +0.138 C 
ATOM     13  H   UNL     1       1.927   4.176  -2.322  0.00  0.00    +0.147 HD
ENDROOT
BRANCH  12  14
ATOM     14  C   UNL     1       4.466   1.518   0.305  0.00  0.00    +0.000 A 
ATOM     15  C   UNL     1       5.807   1.548   0.252  0.00  0.00    +0.089 A 
ATOM     16  N   UNL     1       6.329   1.269   1.486  0.00  0.00    -0.360 N 
ATOM     17  H   UNL     1       7.276   1.233   1.696  0.00  0.00    +0.165 HD
ATOM     18  C   UNL     1       5.311   1.047   2.386  0.00  0.00    +0.047 A 
ATOM     19  C   UNL     1       4.099   1.199   1.687  0.00  0.00    +0.005 A 
ATOM     20  C   UNL     1       2.884   1.035   2.355  0.00  0.00    +0.010 A 
ATOM     21  C   UNL     1       2.879   0.731   3.688  0.00  0.00    +0.001 A 
ATOM     22  C   UNL     1       4.071   0.583   4.382  0.00  0.00    +0.002 A 
ATOM     23  C   UNL     1       5.281   0.733   3.741  0.00  0.00    +0.026 A 
ENDBRANCH  12  14
BRANCH  11  24
ATOM     24  C   UNL     1       2.245   3.335   0.619  0.00  0.00    -0.000 A 
ATOM     25  C   UNL     1       0.940   3.159   0.876  0.00  0.00    +0.089 A 
ATOM     26  N   UNL     1       0.691   3.383   2.203  0.00  0.00    -0.360 N 
ATOM     27  H   UNL     1      -0.179   3.315   2.627  0.00  0.00    +0.165 HD
ATOM     28  C   UNL     1       1.859   3.726   2.847  0.00  0.00    +0.047 A 
ATOM     29  C   UNL     1       2.884   3.711   1.883  0.00  0.00    +0.005 A 
ATOM     30  C   UNL     1       4.194   4.022   2.253  0.00  0.00    +0.010 A 
ATOM     31  C   UNL     1       4.474   4.340   3.552  0.00  0.00    +0.001 A 
ATOM     32  C   UNL     1       3.467   4.356   4.507  0.00  0.00    +0.002 A 
ATOM     33  C   UNL     1       2.167   4.053   4.163  0.00  0.00    +0.026 A 
ENDBRANCH  11  24
BRANCH   1  37
ATOM     34  C   UNL     1      -0.981  -2.564   0.864  0.00  0.00    +0.000 A 
ATOM     35  C   UNL     1       0.255  -3.186   0.837  0.00  0.00    +0.001 A 
ATOM     36  C   UNL     1       1.391  -2.459   0.548  0.00  0.00    +0.013 A 
ATOM     37  C   UNL     1       1.292  -1.092   0.282  0.00  0.00    +0.037 A 
ATOM     38  C   UNL     1       0.043  -0.469   0.317  0.00  0.00    +0.013 A 
ATOM     39  C   UNL     1      -1.086  -1.210   0.603  0.00  0.00    +0.001 A 
ENDBRANCH   1  37
TORSDOF 3
