REMARK  Name = ZINC09672051
REMARK  8 active torsions:
REMARK  status: ('A' for Active; 'I' for Inactive)
REMARK    1  A    between atoms: C_6  and  N_7
REMARK    2  A    between atoms: N_7  and  C_8
REMARK    3  A    between atoms: C_8  and  C_9
REMARK    4  A    between atoms: C_9  and  C_10
REMARK    5  A    between atoms: C_12  and  C_14
REMARK    6  A    between atoms: C_14  and  N_50
REMARK    7  A    between atoms: N_17  and  S_20
REMARK    8  A    between atoms: S_20  and  C_23
REMARK                            x       y       z     vdW  Elec       q    Type
REMARK                         _______ _______ _______ _____ _____    ______ ____
ROOT
ATOM      1  C   UNL     1       3.835   0.450  -3.450  0.00  0.00    -0.061 C 
ATOM      2  C   UNL     1       4.327   0.107  -2.040  0.00  0.00    +0.091 C 
ATOM      3  N   UNL     1       3.480  -0.967  -1.498  0.00  0.00    -0.180 NA
ATOM      4  C   UNL     1       3.281  -2.174  -2.313  0.00  0.00    +0.091 C 
ATOM      5  C   UNL     1       2.825  -1.739  -3.715  0.00  0.00    -0.061 C 
ATOM      6  N   UNL     1       3.817  -0.787  -4.260  0.00  0.00    +0.387 N 
ATOM      7  H   UNL     1       4.747  -1.220  -4.227  0.00  0.00    -0.081 HD
ENDROOT
BRANCH   3   8
ATOM      8  S   UNL     1       2.776  -0.823  -0.006  0.00  0.00    +0.067 S 
ATOM      9  O   UNL     1       3.565   0.105   0.728  0.00  0.00    -0.152 OA
ATOM     10  O   UNL     1       2.528  -2.143   0.456  0.00  0.00    -0.152 OA
BRANCH   8  11
ATOM     11  C   UNL     1       1.202  -0.068  -0.243  0.00  0.00    +0.144 A 
ATOM     12  C   UNL     1       0.001  -0.652  -0.473  0.00  0.00    +0.038 A 
ATOM     13  C   UNL     1      -1.115   0.148  -0.631  0.00  0.00    +0.030 A 
ATOM     14  C   UNL     1      -0.975   1.495  -0.551  0.00  0.00    +0.080 A 
ATOM     15  S   UNL     1       0.775   1.666  -0.244  0.00  0.00    -0.057 S 
ATOM     16 CL   UNL     1      -2.183   2.731  -0.713  0.00  0.00    -0.076 Cl
ENDBRANCH   8  11
ENDBRANCH   3   8
BRANCH   6  17
ATOM     17  C   UNL     1       3.488  -0.466  -5.665  0.00  0.00    +0.019 C 
BRANCH  17  19
ATOM     18  N   UNL     1       3.472  -1.654  -7.834  0.00  0.00    -0.272 N 
ATOM     19  C   UNL     1       3.691  -1.700  -6.505  0.00  0.00    +0.203 C 
ATOM     20  O   UNL     1       4.050  -2.735  -5.985  0.00  0.00    -0.277 OA
BRANCH  18  26
ATOM     21  C   UNL     1       5.071  -3.174  -8.816  0.00  0.00    +0.026 A 
ATOM     22  C   UNL     1       5.349  -4.279  -9.597  0.00  0.00    +0.040 A 
ATOM     23  C   UNL     1       4.318  -4.977 -10.203  0.00  0.00    +0.124 A 
ATOM     24  C   UNL     1       3.006  -4.572 -10.023  0.00  0.00    +0.040 A 
ATOM     25  C   UNL     1       2.723  -3.471  -9.238  0.00  0.00    +0.026 A 
ATOM     26  C   UNL     1       3.756  -2.770  -8.630  0.00  0.00    +0.036 A 
ATOM     27  F   UNL     1       4.592  -6.055 -10.970  0.00  0.00    -0.205 F 
ENDBRANCH  18  26
BRANCH  18  28
ATOM     28  C   UNL     1       2.937  -0.435  -8.446  0.00  0.00    +0.128 C 
BRANCH  28  29
ATOM     29  C   UNL     1       4.093   0.476  -8.863  0.00  0.00    +0.138 C 
BRANCH  29  30
ATOM     30  C   UNL     1       3.555   1.701  -9.478  0.00  0.00    +0.064 C 
ATOM     31  N   UNL     1       3.140   2.646  -9.953  0.00  0.00    -0.197 NA
ENDBRANCH  29  30
ENDBRANCH  28  29
ENDBRANCH  18  28
ENDBRANCH  17  19
ENDBRANCH   6  17
TORSDOF 8
