REMARK  Name = ZINC67119185
REMARK  8 active torsions:
REMARK  status: ('A' for Active; 'I' for Inactive)
REMARK    1  A    between atoms: C_1  and  C_2
REMARK    2  A    between atoms: C_2  and  N_3
REMARK    3  A    between atoms: C_4  and  C_9
REMARK    4  A    between atoms: C_9  and  C_10
REMARK    5  A    between atoms: C_10  and  N_11
REMARK    6  A    between atoms: C_12  and  C_14
REMARK    7  A    between atoms: C_16  and  C_22
REMARK    8  A    between atoms: C_19  and  O_20
REMARK                            x       y       z     vdW  Elec       q    Type
REMARK                         _______ _______ _______ _____ _____    ______ ____
ROOT
ATOM      1  N   UNL     1       5.424  -0.748  -0.421  0.00  0.00    -0.311 N 
ATOM      2  C   UNL     1       6.726  -1.024  -0.211  0.00  0.00    +0.248 C 
ATOM      3  O   UNL     1       7.096  -1.423   0.876  0.00  0.00    -0.270 OA
ATOM      4  H   UNL     1       5.130  -0.430  -1.289  0.00  0.00    +0.149 HD
ENDROOT
BRANCH   2   5
ATOM      5  C   UNL     1       7.704  -0.842  -1.301  0.00  0.00    +0.079 A 
ATOM      6  C   UNL     1       7.285  -0.378  -2.551  0.00  0.00    +0.020 A 
ATOM      7  C   UNL     1       8.203  -0.210  -3.564  0.00  0.00    -0.048 A 
ATOM      8  C   UNL     1       9.541  -0.499  -3.351  0.00  0.00    +0.022 A 
ATOM      9  C   UNL     1       9.969  -0.958  -2.121  0.00  0.00    +0.060 A 
ATOM     10  C   UNL     1       9.059  -1.128  -1.087  0.00  0.00    +0.143 A 
ATOM     11 BR   UNL     1      11.798  -1.349  -1.843  0.00  0.00    -0.046 Br
ATOM     12  C   UNL     1       7.749   0.290  -4.912  0.00  0.00    +0.044 C 
BRANCH  10  13
ATOM     13  O   UNL     1       9.479  -1.573   0.124  0.00  0.00    -0.505 OA
ATOM     14  H   UNL     1       9.466  -2.536   0.215  0.00  0.00    +0.292 HD
ENDBRANCH  10  13
ENDBRANCH   2   5
BRANCH   1  15
ATOM     15  C   UNL     1       4.453  -0.929   0.661  0.00  0.00    +0.112 C 
BRANCH  15  16
ATOM     16  C   UNL     1       3.058  -0.548   0.163  0.00  0.00    +0.095 C 
BRANCH  16  18
ATOM     17  N   UNL     1       0.711  -0.489   1.189  0.00  0.00    -0.307 N 
ATOM     18  C   UNL     1       2.059  -0.734   1.276  0.00  0.00    +0.133 A 
ATOM     19  N   UNL     1       2.332  -1.152   2.470  0.00  0.00    -0.159 NA
ATOM     20  N   UNL     1       1.137  -1.188   3.203  0.00  0.00    -0.254 N 
ATOM     21  C   UNL     1       0.151  -0.766   2.384  0.00  0.00    +0.176 A 
ATOM     22  S   UNL     1      -1.506  -0.615   2.787  0.00  0.00    -0.011 S 
ATOM     23  H   UNL     1       1.038  -1.461   4.128  0.00  0.00    +0.191 HD
BRANCH  17  25
ATOM     24  C   UNL     1      -0.019   1.526   0.010  0.00  0.00    +0.027 C 
ATOM     25  C   UNL     1       0.002  -0.004   0.002  0.00  0.00    +0.122 C 
ENDBRANCH  17  25
ENDBRANCH  16  18
ENDBRANCH  15  16
ENDBRANCH   1  15
TORSDOF 6
