REMARK  Name = ZINC51678533
REMARK  8 active torsions:
REMARK  status: ('A' for Active; 'I' for Inactive)
REMARK    1  A    between atoms: C_1  and  C_2
REMARK    2  A    between atoms: C_2  and  O_3
REMARK    3  A    between atoms: O_3  and  C_4
REMARK    4  A    between atoms: C_4  and  C_6
REMARK    5  A    between atoms: N_12  and  C_13
REMARK    6  A    between atoms: C_13  and  C_14
REMARK    7  A    between atoms: N_16  and  C_17
REMARK    8  A    between atoms: C_23  and  C_25
REMARK                            x       y       z     vdW  Elec       q    Type
REMARK                         _______ _______ _______ _____ _____    ______ ____
ROOT
ATOM      1  C   UNL     1       0.108  -5.746  -1.963  0.00  0.00    +0.197 C 
ATOM      2  O   UNL     1       1.216  -6.236  -1.905  0.00  0.00    -0.278 OA
ATOM      3  N   UNL     1      -0.977  -6.504  -1.713  0.00  0.00    -0.314 N 
ATOM      4  H   UNL     1      -1.864  -6.112  -1.760  0.00  0.00    +0.149 HD
ENDROOT
BRANCH   3   5
ATOM      5  C   UNL     1      -0.819  -7.920  -1.372  0.00  0.00    +0.076 C 
ATOM      6  C   UNL     1      -0.717  -8.746  -2.656  0.00  0.00    +0.041 C 
ATOM      7  C   UNL     1      -0.517 -10.221  -2.295  0.00  0.00    +0.110 C 
ATOM      8  N   UNL     1      -1.600 -10.638  -1.394  0.00  0.00    -0.297 N 
ATOM      9  C   UNL     1      -1.844  -9.857  -0.173  0.00  0.00    +0.110 C 
ATOM     10  C   UNL     1      -2.029  -8.386  -0.558  0.00  0.00    +0.041 C 
ATOM     11  C   UNL     1      -2.356 -11.717  -1.681  0.00  0.00    +0.250 C 
ATOM     12  O   UNL     1      -3.320 -11.986  -0.991  0.00  0.00    -0.270 OA
BRANCH  11  13
ATOM     13  C   UNL     1      -2.014 -12.570  -2.833  0.00  0.00    +0.074 A 
ATOM     14  C   UNL     1      -0.683 -12.774  -3.425  0.00  0.00    +0.054 A 
ATOM     15  C   UNL     1      -0.860 -13.628  -4.444  0.00  0.00    +0.195 A 
ATOM     16  O   UNL     1      -2.159 -13.956  -4.524  0.00  0.00    -0.470 OA
ATOM     17  C   UNL     1      -2.865 -13.341  -3.570  0.00  0.00    +0.207 A 
ENDBRANCH  11  13
ENDBRANCH   3   5
BRANCH   1  18
ATOM     18  C   UNL     1      -0.054  -4.289  -2.314  0.00  0.00    +0.020 C 
BRANCH  18  24
ATOM     19  C   UNL     1       1.122  -2.239  -2.709  0.00  0.00    +0.043 C 
ATOM     20  C   UNL     1       2.504  -1.599  -2.861  0.00  0.00    -0.004 C 
ATOM     21  C   UNL     1       3.202  -2.191  -4.088  0.00  0.00    -0.003 C 
ATOM     22  C   UNL     1       3.281  -3.712  -3.934  0.00  0.00    -0.019 C 
ATOM     23  C   UNL     1       1.871  -4.274  -3.742  0.00  0.00    -0.077 C 
ATOM     24  N   UNL     1       1.268  -3.689  -2.538  0.00  0.00    +0.394 N 
ATOM     25  H   UNL     1       1.859  -3.876  -1.742  0.00  0.00    -0.080 HD
BRANCH  19  26
ATOM     26  C   UNL     1       0.431  -1.658  -1.502  0.00  0.00    +0.293 C 
ATOM     27  O   UNL     1       0.558  -2.185  -0.422  0.00  0.00    -0.253 OA
BRANCH  26  28
ATOM     28  O   UNL     1      -0.326  -0.557  -1.627  0.00  0.00    -0.466 OA
BRANCH  28  30
ATOM     29  C   UNL     1      -1.766   1.189  -0.779  0.00  0.00    +0.048 C 
ATOM     30  C   UNL     1      -0.952  -0.062  -0.441  0.00  0.00    +0.228 C 
ENDBRANCH  28  30
ENDBRANCH  26  28
ENDBRANCH  19  26
ENDBRANCH  18  24
ENDBRANCH   1  18
TORSDOF 7
