REMARK  Name = ZINC03297746
REMARK  8 active torsions:
REMARK  status: ('A' for Active; 'I' for Inactive)
REMARK    1  A    between atoms: C_7  and  C_30
REMARK    2  A    between atoms: C_8  and  C_10
REMARK    3  A    between atoms: C_10  and  O_12
REMARK    4  A    between atoms: O_12  and  C_13
REMARK    5  A    between atoms: C_13  and  C_14
REMARK    6  A    between atoms: C_17  and  C_19
REMARK    7  A    between atoms: C_30  and  S_31
REMARK    8  A    between atoms: S_31  and  C_32
REMARK                            x       y       z     vdW  Elec       q    Type
REMARK                         _______ _______ _______ _____ _____    ______ ____
ROOT
ATOM      1  C   UNL     1      -0.164   1.192   2.389  0.00  0.00    +0.376 C 
ATOM      2  O   UNL     1       0.838   0.504   2.424  0.00  0.00    -0.241 OA
ENDROOT
BRANCH   1  10
ATOM      3  C   UNL     1      -2.408   2.738   7.780  0.00  0.00    +0.001 A 
ATOM      4  C   UNL     1      -3.349   3.384   6.989  0.00  0.00    +0.004 A 
ATOM      5  C   UNL     1      -3.270   3.329   5.614  0.00  0.00    +0.047 A 
ATOM      6  C   UNL     1      -2.239   2.620   5.007  0.00  0.00    +0.136 A 
ATOM      7  C   UNL     1      -1.288   1.968   5.814  0.00  0.00    +0.025 A 
ATOM      8  C   UNL     1      -1.386   2.035   7.206  0.00  0.00    +0.012 A 
ATOM      9  C   UNL     1      -0.358   1.323   4.888  0.00  0.00    +0.022 A 
ATOM     10  C   UNL     1      -0.798   1.629   3.639  0.00  0.00    +0.217 A 
ATOM     11  O   UNL     1      -1.908   2.392   3.722  0.00  0.00    -0.448 OA
BRANCH   9  12
ATOM     12  C   UNL     1       0.844   0.488   5.246  0.00  0.00    +0.109 C 
BRANCH  12  13
ATOM     13  S   UNL     1       2.301   1.559   5.393  0.00  0.00    -0.153 S 
BRANCH  13  14
ATOM     14  C   UNL     1       3.644   0.418   5.822  0.00  0.00    +0.047 C 
ATOM     15  C   UNL     1       3.373  -0.195   7.197  0.00  0.00    +0.014 C 
ATOM     16  C   UNL     1       4.505  -1.158   7.559  0.00  0.00    +0.001 C 
ATOM     17  C   UNL     1       5.831  -0.396   7.593  0.00  0.00    +0.000 C 
ATOM     18  C   UNL     1       6.103   0.217   6.217  0.00  0.00    +0.001 C 
ATOM     19  C   UNL     1       4.970   1.180   5.856  0.00  0.00    +0.014 C 
ENDBRANCH  13  14
ENDBRANCH  12  13
ENDBRANCH   9  12
ENDBRANCH   1  10
BRANCH   1  20
ATOM     20  O   UNL     1      -0.692   1.554   1.203  0.00  0.00    -0.450 OA
BRANCH  20  21
ATOM     21  C   UNL     1      -0.013   1.086   0.008  0.00  0.00    +0.328 C 
BRANCH  21  22
ATOM     22  C   UNL     1      -0.742   1.585  -1.213  0.00  0.00    +0.257 C 
ATOM     23  O   UNL     1      -1.736   2.268  -1.089  0.00  0.00    -0.272 OA
ATOM     24  N   UNL     1      -0.288   1.272  -2.443  0.00  0.00    -0.250 N 
ATOM     25  C   UNL     1      -0.940   1.719  -3.535  0.00  0.00    +0.263 C 
ATOM     26  O   UNL     1      -1.934   2.402  -3.411  0.00  0.00    -0.271 OA
ATOM     27  H   UNL     1       0.507   0.726  -2.543  0.00  0.00    +0.158 HD
BRANCH  25  28
ATOM     28  C   UNL     1      -0.434   1.369  -4.910  0.00  0.00    +0.296 C 
ATOM     29  C   UNL     1       0.928   2.038  -5.146  0.00  0.00    +0.283 C 
ATOM     30  O   UNL     1       1.372   1.696  -6.463  0.00  0.00    -0.484 OA
ATOM     31  C   UNL     1       0.459   1.810  -7.466  0.00  0.00    +0.162 A 
ATOM     32  C   UNL     1       0.894   1.848  -8.782  0.00  0.00    +0.049 A 
ATOM     33  C   UNL     1      -0.022   1.960  -9.811  0.00  0.00    +0.004 A 
ATOM     34  C   UNL     1      -1.374   2.033  -9.531  0.00  0.00    +0.004 A 
ATOM     35  C   UNL     1      -1.814   1.996  -8.222  0.00  0.00    +0.049 A 
ATOM     36  C   UNL     1      -0.900   1.885  -7.184  0.00  0.00    +0.163 A 
ATOM     37  O   UNL     1      -1.348   1.854  -5.900  0.00  0.00    -0.473 OA
ENDBRANCH  25  28
ENDBRANCH  21  22
ENDBRANCH  20  21
ENDBRANCH   1  20
TORSDOF 8
