REMARK  Name = ZINC20326475
REMARK  4 active torsions:
REMARK  status: ('A' for Active; 'I' for Inactive)
REMARK    1  A    between atoms: C_4  and  N_7
REMARK    2  A    between atoms: C_11  and  N_12
REMARK    3  A    between atoms: N_12  and  C_13
REMARK    4  A    between atoms: C_19  and  N_21
REMARK                            x       y       z     vdW  Elec       q    Type
REMARK                         _______ _______ _______ _____ _____    ______ ____
ROOT
ATOM      1  N   UNL     1       2.850  -0.420  -2.478  0.00  0.00    -0.246 N 
ATOM      2  C   UNL     1       4.016  -1.087  -2.353  0.00  0.00    +0.259 C 
ATOM      3  O   UNL     1       4.520  -1.265  -1.260  0.00  0.00    -0.269 OA
ATOM      4  C   UNL     1       4.663  -1.593  -3.576  0.00  0.00    +0.113 C 
ATOM      5  C   UNL     1       5.859  -2.285  -3.527  0.00  0.00    +0.086 C 
ATOM      6  C   UNL     1       3.980  -1.330  -4.856  0.00  0.00    +0.256 C 
ATOM      7  O   UNL     1       4.452  -1.717  -5.908  0.00  0.00    -0.270 OA
ATOM      8  N   UNL     1       2.816  -0.648  -4.827  0.00  0.00    -0.263 N 
ATOM      9  C   UNL     1       2.281  -0.221  -3.675  0.00  0.00    +0.146 C 
ATOM     10  S   UNL     1       0.797   0.630  -3.736  0.00  0.00    -0.018 S 
ATOM     11  H   UNL     1       2.353  -0.466  -5.660  0.00  0.00    +0.157 HD
ENDROOT
BRANCH   1  15
ATOM     12  C   UNL     1       2.064   0.398   1.635  0.00  0.00    +0.000 C 
ATOM     13  C   UNL     1       1.114  -0.541   0.889  0.00  0.00    +0.002 C 
ATOM     14  C   UNL     1       1.806  -1.076  -0.365  0.00  0.00    +0.023 C 
ATOM     15  C   UNL     1       2.187   0.093  -1.276  0.00  0.00    +0.084 C 
ATOM     16  C   UNL     1       3.138   1.031  -0.530  0.00  0.00    +0.023 C 
ATOM     17  C   UNL     1       2.445   1.567   0.725  0.00  0.00    +0.002 C 
ENDBRANCH   1  15
BRANCH   5  18
ATOM     18  N   UNL     1       6.498  -2.609  -4.669  0.00  0.00    -0.348 N 
ATOM     19  H   UNL     1       6.162  -2.288  -5.521  0.00  0.00    +0.146 HD
BRANCH  18  20
ATOM     20  C   UNL     1       7.700  -3.446  -4.624  0.00  0.00    +0.055 C 
ATOM     21  C   UNL     1       8.924  -2.566  -4.360  0.00  0.00    +0.020 C 
ATOM     22  C   UNL     1       9.062  -1.535  -5.482  0.00  0.00    +0.002 C 
ATOM     23  C   UNL     1       9.232  -2.257  -6.820  0.00  0.00    -0.001 C 
ATOM     24  C   UNL     1       8.008  -3.137  -7.084  0.00  0.00    -0.014 C 
ATOM     25  C   UNL     1       7.870  -4.168  -5.962  0.00  0.00    -0.055 C 
BRANCH  25  26
ATOM     26  N   UNL     1       6.694  -5.012  -6.215  0.00  0.00    +0.381 N 
ATOM     27  H   UNL     1       5.867  -4.436  -6.246  0.00  0.00    -0.090 HD
ATOM     28  H   UNL     1       6.806  -5.489  -7.097  0.00  0.00    -0.090 HD
ATOM     29  H   UNL     1       6.603  -5.692  -5.475  0.00  0.00    -0.090 HD
ENDBRANCH  25  26
ENDBRANCH  18  20
ENDBRANCH   5  18
TORSDOF 4
