REMARK  Name = ZINC16908043
REMARK  8 active torsions:
REMARK  status: ('A' for Active; 'I' for Inactive)
REMARK    1  A    between atoms: C_3  and  O_22
REMARK    2  A    between atoms: C_6  and  C_7
REMARK    3  A    between atoms: C_12  and  N_14
REMARK    4  A    between atoms: N_14  and  C_15
REMARK    5  A    between atoms: C_18  and  O_21
REMARK    6  A    between atoms: O_22  and  C_23
REMARK    7  A    between atoms: C_23  and  C_24
REMARK    8  A    between atoms: C_24  and  C_25
REMARK                            x       y       z     vdW  Elec       q    Type
REMARK                         _______ _______ _______ _____ _____    ______ ____
ROOT
ATOM      1  C   UNL     1      -1.247  -0.749  -0.100  0.00  0.00    +0.028 C 
ATOM      2  C   UNL     1      -1.232  -2.104  -0.173  0.00  0.00    +0.079 C 
ATOM      3  C   UNL     1      -2.359  -3.064  -0.228  0.00  0.00    +0.276 C 
ATOM      4  O   UNL     1      -3.522  -2.694  -0.211  0.00  0.00    -0.267 OA
ATOM      5  N   UNL     1      -2.038  -4.337  -0.296  0.00  0.00    -0.152 NA
ATOM      6  C   UNL     1      -0.781  -4.753  -0.316  0.00  0.00    +0.175 C 
ATOM      7  S   UNL     1       0.154  -3.233  -0.240  0.00  0.00    -0.050 S 
ENDROOT
BRANCH   1  13
ATOM      8  C   UNL     1       1.183  -0.707   0.424  0.00  0.00    +0.011 A 
ATOM      9  C   UNL     1       2.350  -0.011   0.642  0.00  0.00    +0.046 A 
ATOM     10  C   UNL     1       2.358   1.378   0.576  0.00  0.00    +0.121 A 
ATOM     11  C   UNL     1       1.188   2.072   0.289  0.00  0.00    +0.046 A 
ATOM     12  C   UNL     1       0.015   1.386   0.069  0.00  0.00    +0.011 A 
ATOM     13  C   UNL     1       0.001  -0.013   0.134  0.00  0.00    -0.024 A 
BRANCH  10  14
ATOM     14  O   UNL     1       3.512   2.059   0.793  0.00  0.00    -0.491 OA
BRANCH  14  15
ATOM     15  C   UNL     1       3.450   3.484   0.710  0.00  0.00    +0.240 C 
BRANCH  15  16
ATOM     16  C   UNL     1       4.836   4.072   0.982  0.00  0.00    +0.166 C 
BRANCH  16  17
ATOM     17  C   UNL     1       4.770   5.575   0.895  0.00  0.00    +0.359 C 
ATOM     18  O   UNL     1       3.713   6.125   0.639  0.00  0.00    -0.246 OA
ATOM     19  O   UNL     1       5.774   6.241   1.080  0.00  0.00    -0.246 OA
ENDBRANCH  16  17
ENDBRANCH  15  16
ENDBRANCH  14  15
ENDBRANCH  10  14
ENDBRANCH   1  13
BRANCH   6  20
ATOM     20  N   UNL     1      -0.311  -6.038  -0.384  0.00  0.00    -0.192 NA
BRANCH  20  21
ATOM     21  C   UNL     1      -1.198  -7.097  -0.610  0.00  0.00    +0.056 A 
ATOM     22  C   UNL     1      -2.408  -6.865  -1.252  0.00  0.00    +0.029 A 
ATOM     23  C   UNL     1      -3.283  -7.910  -1.474  0.00  0.00    +0.047 A 
ATOM     24  C   UNL     1      -2.953  -9.191  -1.058  0.00  0.00    +0.117 A 
ATOM     25  C   UNL     1      -1.745  -9.424  -0.417  0.00  0.00    +0.047 A 
ATOM     26  C   UNL     1      -0.867  -8.381  -0.199  0.00  0.00    +0.029 A 
BRANCH  24  27
ATOM     27  O   UNL     1      -3.815 -10.220  -1.277  0.00  0.00    -0.507 OA
ATOM     28  H   UNL     1      -3.681 -10.672  -2.121  0.00  0.00    +0.292 HD
ENDBRANCH  24  27
ENDBRANCH  20  21
ENDBRANCH   6  20
TORSDOF 8
