REMARK  Name = ZINC36027293
REMARK  8 active torsions:
REMARK  status: ('A' for Active; 'I' for Inactive)
REMARK    1  A    between atoms: C_1  and  C_2
REMARK    2  A    between atoms: C_2  and  C_3
REMARK    3  A    between atoms: C_3  and  C_5
REMARK    4  A    between atoms: C_3  and  N_6
REMARK    5  A    between atoms: C_9  and  C_28
REMARK    6  A    between atoms: N_15  and  S_18
REMARK    7  A    between atoms: S_18  and  C_21
REMARK    8  A    between atoms: C_28  and  C_29
REMARK                            x       y       z     vdW  Elec       q    Type
REMARK                         _______ _______ _______ _____ _____    ______ ____
ROOT
ATOM      1  N   UNL     1       0.147  -0.243   2.432  0.00  0.00    -0.311 N 
ATOM      2  C   UNL     1      -1.022  -0.803   2.806  0.00  0.00    +0.201 C 
ATOM      3  O   UNL     1      -1.664  -1.603   2.158  0.00  0.00    -0.277 OA
ATOM      4  C   UNL     1      -1.396  -0.267   4.171  0.00  0.00    +0.023 C 
ATOM      5  N   UNL     1      -0.143   0.322   4.702  0.00  0.00    +0.401 N 
ATOM      6  C   UNL     1       0.611   0.668   3.481  0.00  0.00    +0.006 C 
ATOM      7  C   UNL     1       0.316   2.116   3.092  0.00  0.00    +0.023 C 
ATOM      8  C   UNL     1       1.071   2.460   1.804  0.00  0.00    +0.109 C 
ATOM      9  N   UNL     1       2.496   2.155   1.996  0.00  0.00    -0.177 NA
ATOM     10  C   UNL     1       2.877   0.808   2.442  0.00  0.00    +0.109 C 
ATOM     11  C   UNL     1       2.107   0.477   3.725  0.00  0.00    +0.023 C 
ATOM     12  H   UNL     1      -0.341   1.147   5.249  0.00  0.00    -0.082 HD
ATOM     13  H   UNL     1       0.365  -0.357   5.250  0.00  0.00    -0.082 HD
ENDROOT
BRANCH   9  14
ATOM     14  S   UNL     1       3.651   3.308   1.714  0.00  0.00    +0.061 S 
ATOM     15  O   UNL     1       4.858   2.613   1.434  0.00  0.00    -0.153 OA
ATOM     16  O   UNL     1       3.080   4.240   0.806  0.00  0.00    -0.153 OA
BRANCH  14  17
ATOM     17  C   UNL     1       3.906   4.171   3.228  0.00  0.00    +0.106 A 
ATOM     18  C   UNL     1       3.147   5.289   3.522  0.00  0.00    +0.031 A 
ATOM     19  C   UNL     1       3.345   5.967   4.710  0.00  0.00    +0.040 A 
ATOM     20  C   UNL     1       4.305   5.526   5.606  0.00  0.00    +0.124 A 
ATOM     21  C   UNL     1       5.064   4.407   5.310  0.00  0.00    +0.040 A 
ATOM     22  C   UNL     1       4.860   3.728   4.124  0.00  0.00    +0.031 A 
ATOM     23  F   UNL     1       4.500   6.188   6.767  0.00  0.00    -0.205 F 
ENDBRANCH  14  17
ENDBRANCH   9  14
BRANCH   1  24
ATOM     24  C   UNL     1       0.848  -0.509   1.173  0.00  0.00    +0.071 C 
ATOM     25  C   UNL     1       1.737  -1.743   1.335  0.00  0.00    +0.028 C 
BRANCH  24  27
ATOM     26  C   UNL     1      -1.006   0.505  -0.160  0.00  0.00    +0.005 C 
ATOM     27  C   UNL     1      -0.175  -0.760   0.063  0.00  0.00    +0.019 C 
ENDBRANCH  24  27
ENDBRANCH   1  24
BRANCH   4  28
ATOM     28  C   UNL     1      -1.880  -1.403   5.075  0.00  0.00    +0.028 C 
BRANCH  28  29
ATOM     29  C   UNL     1      -2.328  -0.836   6.397  0.00  0.00    -0.048 A 
ATOM     30  C   UNL     1      -1.424  -0.699   7.433  0.00  0.00    +0.003 A 
ATOM     31  C   UNL     1      -1.835  -0.178   8.646  0.00  0.00    +0.000 A 
ATOM     32  C   UNL     1      -3.151   0.205   8.823  0.00  0.00    +0.000 A 
ATOM     33  C   UNL     1      -4.056   0.069   7.786  0.00  0.00    +0.000 A 
ATOM     34  C   UNL     1      -3.643  -0.447   6.572  0.00  0.00    +0.003 A 
ENDBRANCH  28  29
ENDBRANCH   4  28
TORSDOF 6
