REMARK  Name = ZINC20421317
REMARK  7 active torsions:
REMARK  status: ('A' for Active; 'I' for Inactive)
REMARK    1  A    between atoms: C_4  and  C_7
REMARK    2  A    between atoms: C_7  and  N_8
REMARK    3  A    between atoms: C_12  and  C_16
REMARK    4  A    between atoms: C_16  and  C_17
REMARK    5  A    between atoms: N_19  and  N_20
REMARK    6  A    between atoms: C_21  and  C_22
REMARK    7  A    between atoms: C_27  and  O_28
REMARK                            x       y       z     vdW  Elec       q    Type
REMARK                         _______ _______ _______ _____ _____    ______ ____
ROOT
ATOM      1  C   UNL     1       3.007  -3.027   4.092  0.00  0.00    +0.125 C 
ENDROOT
BRANCH   1   6
ATOM      2  N   UNL     1       4.152  -0.952   1.338  0.00  0.00    -0.295 N 
ATOM      3  C   UNL     1       4.983   0.053   1.994  0.00  0.00    +0.123 C 
ATOM      4  C   UNL     1       5.694  -0.561   3.201  0.00  0.00    +0.100 C 
ATOM      5  N   UNL     1       4.699  -1.260   4.031  0.00  0.00    -0.304 NA
ATOM      6  C   UNL     1       4.202  -2.452   3.330  0.00  0.00    +0.149 C 
ATOM      7  C   UNL     1       3.771  -2.085   1.938  0.00  0.00    +0.233 C 
ATOM      8  O   UNL     1       3.050  -2.849   1.333  0.00  0.00    -0.274 OA
ATOM      9  H   UNL     1       5.086  -1.504   4.930  0.00  0.00    +0.123 HD
BRANCH   2  10
ATOM     10  C   UNL     1       3.711  -0.707  -0.038  0.00  0.00    +0.143 C 
BRANCH  10  14
ATOM     11  C   UNL     1      -0.017   1.378   0.010  0.00  0.00    +0.000 A 
ATOM     12  C   UNL     1       1.171   2.086   0.002  0.00  0.00    +0.000 A 
ATOM     13  C   UNL     1       2.377   1.411  -0.013  0.00  0.00    +0.005 A 
ATOM     14  C   UNL     1       2.396   0.029  -0.020  0.00  0.00    -0.030 A 
ATOM     15  C   UNL     1       1.208  -0.679  -0.012  0.00  0.00    +0.005 A 
ATOM     16  C   UNL     1       0.002  -0.004   0.002  0.00  0.00    +0.000 A 
ENDBRANCH  10  14
ENDBRANCH   2  10
ENDBRANCH   1   6
BRANCH   1  17
ATOM     17  C   UNL     1       3.460  -3.517   5.443  0.00  0.00    +0.234 C 
ATOM     18  O   UNL     1       4.626  -3.417   5.765  0.00  0.00    -0.274 OA
ATOM     19  N   UNL     1       2.571  -4.068   6.293  0.00  0.00    -0.207 N 
ATOM     20  H   UNL     1       1.640  -4.148   6.036  0.00  0.00    +0.177 HD
BRANCH  19  21
ATOM     21  N   UNL     1       2.993  -4.524   7.549  0.00  0.00    -0.188 NA
ATOM     22  C   UNL     1       2.137  -5.054   8.368  0.00  0.00    +0.142 C 
BRANCH  22  23
ATOM     23  C   UNL     1       2.580  -5.533   9.689  0.00  0.00    +0.039 A 
ATOM     24  C   UNL     1       1.663  -6.110  10.571  0.00  0.00    +0.033 A 
ATOM     25  C   UNL     1       2.085  -6.557  11.807  0.00  0.00    +0.043 A 
ATOM     26  C   UNL     1       3.414  -6.436  12.177  0.00  0.00    +0.043 A 
ATOM     27  C   UNL     1       4.332  -5.867  11.312  0.00  0.00    +0.084 A 
ATOM     28  C   UNL     1       3.925  -5.419  10.065  0.00  0.00    +0.144 A 
ATOM     29 CL   UNL     1       5.995  -5.721  11.787  0.00  0.00    -0.080 Cl
ATOM     30 CL   UNL     1       0.944  -7.273  12.902  0.00  0.00    -0.083 Cl
BRANCH  28  31
ATOM     31  O   UNL     1       4.827  -4.866   9.212  0.00  0.00    -0.505 OA
ATOM     32  H   UNL     1       4.924  -3.908   9.309  0.00  0.00    +0.292 HD
ENDBRANCH  28  31
ENDBRANCH  22  23
ENDBRANCH  19  21
ENDBRANCH   1  17
TORSDOF 7
