REMARK  Name = ZINC39519590
REMARK  9 active torsions:
REMARK  status: ('A' for Active; 'I' for Inactive)
REMARK    1  A    between atoms: C_1  and  C_2
REMARK    2  A    between atoms: C_2  and  C_4
REMARK    3  A    between atoms: C_2  and  N_13
REMARK    4  A    between atoms: N_13  and  C_14
REMARK    5  A    between atoms: N_13  and  C_15
REMARK    6  A    between atoms: C_15  and  C_16
REMARK    7  A    between atoms: N_18  and  C_19
REMARK    8  A    between atoms: C_19  and  C_21
REMARK    9  A    between atoms: C_19  and  C_28
REMARK                            x       y       z     vdW  Elec       q    Type
REMARK                         _______ _______ _______ _____ _____    ______ ____
ROOT
ATOM      1  C   UNL     1       1.352  -2.461   2.463  0.00  0.00    +0.197 C 
ATOM      2  O   UNL     1       1.739  -1.672   3.299  0.00  0.00    -0.278 OA
ATOM      3  N   UNL     1       1.476  -3.785   2.678  0.00  0.00    -0.306 N 
ATOM      4  H   UNL     1       1.167  -4.416   2.010  0.00  0.00    +0.150 HD
ENDROOT
BRANCH   1   5
ATOM      5  C   UNL     1       0.733  -1.960   1.184  0.00  0.00    +0.019 C 
BRANCH   5   6
ATOM      6  N   UNL     1       0.713  -0.491   1.192  0.00  0.00    +0.389 N 
ATOM      7  C   UNL     1       2.091   0.018   1.182  0.00  0.00    -0.095 C 
ATOM      8  H   UNL     1       0.240  -0.165   2.022  0.00  0.00    -0.081 HD
BRANCH   6  10
ATOM      9  C   UNL     1      -0.019   1.526   0.010  0.00  0.00    -0.006 C 
ATOM     10  C   UNL     1       0.002  -0.004   0.002  0.00  0.00    -0.014 C 
BRANCH  10  11
ATOM     11  C   UNL     1      -1.412  -0.526   0.013  0.00  0.00    +0.066 A 
ATOM     12  N   UNL     1      -2.244  -0.552   1.012  0.00  0.00    -0.246 NA
ATOM     13  C   UNL     1      -3.493  -1.048   0.894  0.00  0.00    +0.078 A 
ATOM     14  C   UNL     1      -4.519  -1.157   1.856  0.00  0.00    +0.029 A 
ATOM     15  C   UNL     1      -5.724  -1.698   1.526  0.00  0.00    +0.002 A 
ATOM     16  C   UNL     1      -5.987  -2.158   0.243  0.00  0.00    +0.001 A 
ATOM     17  C   UNL     1      -5.007  -2.068  -0.727  0.00  0.00    +0.017 A 
ATOM     18  C   UNL     1      -3.788  -1.524  -0.404  0.00  0.00    +0.039 A 
ATOM     19  S   UNL     1      -2.273  -1.199  -1.267  0.00  0.00    -0.074 S 
ENDBRANCH  10  11
ENDBRANCH   6  10
ENDBRANCH   5   6
ENDBRANCH   1   5
BRANCH   3  20
ATOM     20  C   UNL     1       2.078  -4.272   3.922  0.00  0.00    +0.140 C 
BRANCH  20  21
ATOM     21  C   UNL     1       1.575  -5.662   4.213  0.00  0.00    -0.022 A 
ATOM     22  C   UNL     1       1.427  -6.574   3.184  0.00  0.00    +0.008 A 
ATOM     23  C   UNL     1       0.966  -7.849   3.450  0.00  0.00    +0.038 A 
ATOM     24  C   UNL     1       0.651  -8.214   4.748  0.00  0.00    +0.123 A 
ATOM     25  C   UNL     1       0.798  -7.300   5.778  0.00  0.00    +0.038 A 
ATOM     26  C   UNL     1       1.265  -6.027   5.510  0.00  0.00    +0.008 A 
ATOM     27  F   UNL     1       0.199  -9.460   5.009  0.00  0.00    -0.205 F 
ENDBRANCH  20  21
BRANCH  20  28
ATOM     28  C   UNL     1       3.578  -4.302   3.776  0.00  0.00    +0.014 A 
ATOM     29  C   UNL     1       4.530  -3.968   4.680  0.00  0.00    +0.013 A 
ATOM     30  C   UNL     1       5.861  -4.075   4.323  0.00  0.00    +0.008 A 
ATOM     31  C   UNL     1       6.175  -4.512   3.079  0.00  0.00    +0.045 A 
ATOM     32  S   UNL     1       4.561  -4.793   2.369  0.00  0.00    -0.099 S 
ENDBRANCH  20  28
ENDBRANCH   3  20
TORSDOF 7
