REMARK  Name = ZINC44452661
REMARK  6 active torsions:
REMARK  status: ('A' for Active; 'I' for Inactive)
REMARK    1  A    between atoms: C_1  and  N_2
REMARK    2  A    between atoms: N_2  and  C_3
REMARK    3  A    between atoms: N_2  and  C_4
REMARK    4  A    between atoms: C_7  and  C_10
REMARK    5  A    between atoms: N_12  and  C_13
REMARK    6  A    between atoms: C_14  and  C_21
REMARK                            x       y       z     vdW  Elec       q    Type
REMARK                         _______ _______ _______ _____ _____    ______ ____
ROOT
ATOM      1  C   UNL     1      -0.022  -2.802  -7.261  0.00  0.00    +0.085 A 
ATOM      2  C   UNL     1      -0.031  -2.275  -8.541  0.00  0.00    +0.069 A 
ATOM      3  C   UNL     1      -0.030  -3.223  -9.654  0.00  0.00    -0.023 A 
ATOM      4  C   UNL     1      -0.023  -4.514  -9.276  0.00  0.00    -0.004 A 
ATOM      5  S   UNL     1      -0.007  -4.461  -7.502  0.00  0.00    -0.077 S 
ATOM      6  C   UNL     1      -0.028  -5.445 -10.459  0.00  0.00    +0.043 C 
ATOM      7  C   UNL     1      -0.472  -4.564 -11.647  0.00  0.00    +0.010 C 
ATOM      8  C   UNL     1      -0.034  -3.161 -11.180  0.00  0.00    +0.037 C 
ENDROOT
BRANCH   2   9
ATOM      9  C   UNL     1      -0.040  -0.829  -8.771  0.00  0.00    +0.254 C 
ATOM     10  O   UNL     1       1.010  -0.222  -8.871  0.00  0.00    -0.270 OA
ATOM     11  N   UNL     1      -1.211  -0.170  -8.871  0.00  0.00    -0.236 N 
ATOM     12  C   UNL     1      -1.219   1.161  -9.082  0.00  0.00    +0.304 C 
ATOM     13  O   UNL     1      -0.171   1.768  -9.182  0.00  0.00    -0.253 OA
ATOM     14  N   UNL     1      -2.391   1.821  -9.182  0.00  0.00    -0.313 N 
ATOM     15  H   UNL     1      -2.048  -0.653  -8.791  0.00  0.00    +0.159 HD
ATOM     16  H   UNL     1      -3.228   1.337  -9.102  0.00  0.00    +0.146 HD
ATOM     17  H   UNL     1      -2.397   2.779  -9.335  0.00  0.00    +0.146 HD
ENDBRANCH   2   9
BRANCH   1  20
ATOM     18  C   UNL     1      -0.006  -2.796  -4.894  0.00  0.00    +0.249 C 
ATOM     19  O   UNL     1       0.006  -4.012  -4.901  0.00  0.00    -0.270 OA
ATOM     20  N   UNL     1      -0.021  -2.116  -6.058  0.00  0.00    -0.275 N 
ATOM     21  H   UNL     1      -0.030  -1.146  -6.053  0.00  0.00    +0.156 HD
BRANCH  18  25
ATOM     22  C   UNL     1       0.000  -0.693  -1.206  0.00  0.00    +0.029 A 
ATOM     23  C   UNL     1       0.013  -2.085  -1.212  0.00  0.00    +0.024 A 
ATOM     24  C   UNL     1       0.011  -2.769  -2.405  0.00  0.00    +0.015 A 
ATOM     25  C   UNL     1      -0.004  -2.065  -3.613  0.00  0.00    +0.037 A 
ATOM     26  C   UNL     1      -0.017  -0.667  -3.604  0.00  0.00    +0.015 A 
ATOM     27  C   UNL     1      -0.021   0.011  -2.407  0.00  0.00    +0.024 A 
BRANCH  22  29
ATOM     28  C   UNL     1      -0.018   1.461   0.010  0.00  0.00    +0.129 C 
ATOM     29  N   UNL     1       0.002  -0.004   0.002  0.00  0.00    -0.336 N 
ATOM     30  C   UNL     1       0.024  -0.743   1.267  0.00  0.00    +0.129 C 
ENDBRANCH  22  29
ENDBRANCH  18  25
ENDBRANCH   1  20
TORSDOF 4
