REMARK  Name = ZINC17085959
REMARK  9 active torsions:
REMARK  status: ('A' for Active; 'I' for Inactive)
REMARK    1  A    between atoms: C_1  and  C_2
REMARK    2  A    between atoms: C_2  and  O_3
REMARK    3  A    between atoms: O_3  and  C_4
REMARK    4  A    between atoms: C_8  and  C_11
REMARK    5  A    between atoms: C_9  and  O_10
REMARK    6  A    between atoms: C_20  and  C_24
REMARK    7  A    between atoms: C_24  and  C_25
REMARK    8  A    between atoms: C_24  and  C_26
REMARK    9  A    between atoms: C_24  and  C_27
REMARK                            x       y       z     vdW  Elec       q    Type
REMARK                         _______ _______ _______ _____ _____    ______ ____
ROOT
ATOM      1  C   UNL     1       3.547  -1.449  -7.638  0.00  0.00    +0.194 C 
ATOM      2  N   UNL     1       2.341  -0.635  -7.405  0.00  0.00    -0.316 N 
ATOM      3  C   UNL     1       1.923  -0.513  -6.105  0.00  0.00    +0.080 A 
ATOM      4  C   UNL     1       2.782  -0.682  -5.008  0.00  0.00    +0.068 A 
ATOM      5  C   UNL     1       2.177  -0.507  -3.697  0.00  0.00    -0.023 A 
ATOM      6  C   UNL     1       0.859  -0.210  -3.696  0.00  0.00    -0.004 A 
ATOM      7  S   UNL     1       0.401  -0.152  -5.409  0.00  0.00    -0.078 S 
ATOM      8  C   UNL     1      -0.018   0.016  -2.503  0.00  0.00    +0.046 C 
ATOM      9  C   UNL     1       0.718  -0.497  -1.257  0.00  0.00    -0.000 C 
ATOM     10  C   UNL     1       2.153   0.037  -1.274  0.00  0.00    +0.009 C 
ATOM     11  C   UNL     1       2.948  -0.644  -2.389  0.00  0.00    +0.037 C 
ATOM     12  C   UNL     1       4.198  -1.008  -5.292  0.00  0.00    +0.248 C 
ATOM     13  O   UNL     1       5.029  -1.049  -4.403  0.00  0.00    -0.270 OA
ATOM     14  N   UNL     1       4.529  -1.257  -6.576  0.00  0.00    -0.289 N 
ATOM     15  H   UNL     1       1.824  -0.161  -8.253  0.00  0.00    +0.149 HD
ATOM     16  H   UNL     1       5.604  -1.312  -6.804  0.00  0.00    +0.151 HD
ENDROOT
BRANCH   1  21
ATOM     17  C   UNL     1       3.737  -5.226  -7.474  0.00  0.00    +0.162 A 
ATOM     18  C   UNL     1       2.435  -5.577  -7.796  0.00  0.00    +0.049 A 
ATOM     19  C   UNL     1       1.501  -4.595  -8.065  0.00  0.00    +0.004 A 
ATOM     20  C   UNL     1       1.862  -3.261  -8.014  0.00  0.00    +0.011 A 
ATOM     21  C   UNL     1       3.158  -2.904  -7.693  0.00  0.00    +0.036 A 
ATOM     22  C   UNL     1       4.101  -3.884  -7.427  0.00  0.00    +0.165 A 
BRANCH  22  23
ATOM     23  O   UNL     1       5.378  -3.535  -7.117  0.00  0.00    -0.503 OA
ATOM     24  H   UNL     1       5.665  -2.473  -7.081  0.00  0.00    +0.292 HD
ENDBRANCH  22  23
BRANCH  17  25
ATOM     25  O   UNL     1       4.657  -6.192  -7.209  0.00  0.00    -0.489 OA
BRANCH  25  27
ATOM     26  C   UNL     1       5.379  -8.484  -6.955  0.00  0.00    +0.048 C 
ATOM     27  C   UNL     1       4.214  -7.548  -7.282  0.00  0.00    +0.226 C 
ENDBRANCH  25  27
ENDBRANCH  17  25
ENDBRANCH   1  21
BRANCH   9  28
ATOM     28  C   UNL     1       0.002  -0.004   0.002  0.00  0.00    -0.035 C 
ATOM     29  C   UNL     1      -0.019   1.526   0.010  0.00  0.00    +0.011 C 
ATOM     30  C   UNL     1       0.742  -0.511   1.242  0.00  0.00    +0.011 C 
ATOM     31  C   UNL     1      -1.433  -0.534   0.013  0.00  0.00    +0.011 C 
ENDBRANCH   9  28
TORSDOF 5
