REMARK  Name = ZINC36307687
REMARK  16 active torsions:
REMARK  status: ('A' for Active; 'I' for Inactive)
REMARK    1  A    between atoms: C_1  and  C_2
REMARK    2  A    between atoms: C_2  and  C_3
REMARK    3  A    between atoms: C_3  and  N_4
REMARK    4  A    between atoms: N_4  and  C_5
REMARK    5  A    between atoms: N_4  and  C_26
REMARK    6  A    between atoms: C_5  and  C_6
REMARK    7  A    between atoms: C_7  and  C_20
REMARK    8  A    between atoms: N_9  and  C_19
REMARK    9  A    between atoms: C_10  and  O_11
REMARK   10  A    between atoms: O_11  and  C_12
REMARK   11  A    between atoms: C_26  and  C_27
REMARK   12  A    between atoms: C_27  and  C_29
REMARK   13  A    between atoms: C_27  and  O_38
REMARK   14  A    between atoms: C_29  and  O_30
REMARK   15  A    between atoms: O_30  and  C_31
REMARK   16  A    between atoms: C_36  and  C_37
REMARK                            x       y       z     vdW  Elec       q    Type
REMARK                         _______ _______ _______ _____ _____    ______ ____
ROOT
ATOM      1  C   UNL     1      -2.332  -2.038  -2.273  0.00  0.00    +0.025 A 
ATOM      2  C   UNL     1      -2.940  -0.814  -2.609  0.00  0.00    +0.098 A 
ATOM      3  N   UNL     1      -3.014  -0.740  -3.920  0.00  0.00    -0.168 NA
ATOM      4  N   UNL     1      -2.458  -1.907  -4.459  0.00  0.00    -0.235 N 
ATOM      5  C   UNL     1      -2.041  -2.688  -3.429  0.00  0.00    +0.221 A 
ATOM      6  C   UNL     1      -2.342  -2.227  -5.884  0.00  0.00    +0.176 C 
ENDROOT
BRANCH   2   7
ATOM      7  C   UNL     1      -3.416   0.214  -1.650  0.00  0.00    +0.002 A 
ATOM      8  C   UNL     1      -3.164   1.563  -1.889  0.00  0.00    +0.010 A 
ATOM      9  C   UNL     1      -3.609   2.515  -0.994  0.00  0.00    +0.001 A 
ATOM     10  C   UNL     1      -4.303   2.132   0.139  0.00  0.00    +0.000 A 
ATOM     11  C   UNL     1      -4.556   0.793   0.382  0.00  0.00    +0.001 A 
ATOM     12  C   UNL     1      -4.121  -0.166  -0.509  0.00  0.00    +0.010 A 
ENDBRANCH   2   7
BRANCH   1  13
ATOM     13  C   UNL     1      -2.049  -2.537  -0.879  0.00  0.00    -0.035 C 
BRANCH  13  14
ATOM     14  N   UNL     1      -0.655  -2.234  -0.525  0.00  0.00    +0.384 N 
ATOM     15  H   UNL     1      -0.037  -2.656  -1.201  0.00  0.00    -0.081 HD
BRANCH  14  16
ATOM     16  C   UNL     1      -0.457  -0.778  -0.521  0.00  0.00    -0.079 C 
BRANCH  16  18
ATOM     17  C   UNL     1       1.253   1.041  -0.424  0.00  0.00    +0.002 C 
ATOM     18  C   UNL     1       1.025  -0.467  -0.297  0.00  0.00    -0.022 C 
ENDBRANCH  16  18
ENDBRANCH  14  16
BRANCH  14  19
ATOM     19  C   UNL     1      -0.362  -2.772   0.810  0.00  0.00    -0.043 C 
BRANCH  19  20
ATOM     20  C   UNL     1      -0.399  -4.301   0.763  0.00  0.00    +0.135 C 
BRANCH  20  21
ATOM     21  O   UNL     1      -1.741  -4.738   0.543  0.00  0.00    -0.390 OA
ATOM     22  H   UNL     1      -2.363  -4.459   1.229  0.00  0.00    +0.210 HD
ENDBRANCH  20  21
BRANCH  20  23
ATOM     23  C   UNL     1       0.110  -4.864   2.091  0.00  0.00    +0.258 C 
BRANCH  23  24
ATOM     24  O   UNL     1       0.186  -6.288   2.007  0.00  0.00    -0.489 OA
BRANCH  24  25
ATOM     25  C   UNL     1       0.624  -6.950   3.111  0.00  0.00    +0.124 A 
ATOM     26  C   UNL     1       0.967  -6.242   4.254  0.00  0.00    +0.046 A 
ATOM     27  C   UNL     1       1.411  -6.917   5.375  0.00  0.00    +0.004 A 
ATOM     28  C   UNL     1       1.513  -8.296   5.358  0.00  0.00    +0.000 A 
ATOM     29  C   UNL     1       1.172  -9.003   4.220  0.00  0.00    +0.007 A 
ATOM     30  C   UNL     1       0.722  -8.333   3.098  0.00  0.00    -0.009 A 
ATOM     31  C   UNL     1       0.344  -9.105   1.860  0.00  0.00    +0.047 C 
ENDBRANCH  24  25
ENDBRANCH  23  24
ENDBRANCH  20  23
ENDBRANCH  19  20
ENDBRANCH  14  19
ENDBRANCH  13  14
ENDBRANCH   1  13
BRANCH   5  32
ATOM     32  O   UNL     1      -1.442  -3.901  -3.537  0.00  0.00    -0.438 OA
BRANCH  32  33
ATOM     33  C   UNL     1      -2.237  -4.998  -3.638  0.00  0.00    +0.131 A 
ATOM     34  C   UNL     1      -3.613  -4.851  -3.742  0.00  0.00    +0.049 A 
ATOM     35  C   UNL     1      -4.420  -5.968  -3.845  0.00  0.00    +0.042 A 
ATOM     36  C   UNL     1      -3.857  -7.233  -3.844  0.00  0.00    +0.124 A 
ATOM     37  C   UNL     1      -2.485  -7.381  -3.741  0.00  0.00    +0.042 A 
ATOM     38  C   UNL     1      -1.674  -6.266  -3.644  0.00  0.00    +0.049 A 
ATOM     39  F   UNL     1      -4.648  -8.323  -3.944  0.00  0.00    -0.205 F 
ENDBRANCH  32  33
ENDBRANCH   5  32
TORSDOF 13
