REMARK  Name = ZINC04047854
REMARK  7 active torsions:
REMARK  status: ('A' for Active; 'I' for Inactive)
REMARK    1  A    between atoms: C_1  and  C_2
REMARK    2  A    between atoms: C_2  and  N_3
REMARK    3  A    between atoms: N_3  and  C_4
REMARK    4  A    between atoms: N_3  and  C_6
REMARK    5  A    between atoms: C_4  and  C_5
REMARK    6  A    between atoms: C_9  and  C_12
REMARK    7  A    between atoms: C_19  and  C_31
REMARK                            x       y       z     vdW  Elec       q    Type
REMARK                         _______ _______ _______ _____ _____    ______ ____
ROOT
ATOM      1  C   UNL     1       1.194  -6.134   0.931  0.00  0.00    +0.136 C 
ATOM      2  C   UNL     1       1.331  -6.537  -0.518  0.00  0.00    +0.036 C 
ATOM      3  H   UNL     1       4.072  -8.074  -0.624  0.00  0.00    +0.152 HD
ATOM      4  C   UNL     1       0.144  -6.375  -1.271  0.00  0.00    +0.163 C 
ATOM      5  O   UNL     1      -0.843  -5.926  -0.721  0.00  0.00    -0.292 OA
ATOM      6  C   UNL     1       0.059  -6.738  -2.723  0.00  0.00    +0.088 C 
ATOM      7  C   UNL     1       1.068  -7.857  -3.007  0.00  0.00    +0.032 C 
ATOM      8  C   UNL     1       2.448  -7.357  -2.583  0.00  0.00    +0.059 C 
ATOM      9  C   UNL     1       2.442  -7.014  -1.102  0.00  0.00    +0.017 C 
ATOM     10  N   UNL     1       3.623  -7.228  -0.467  0.00  0.00    -0.316 N 
ATOM     11  C   UNL     1       4.236  -6.322   0.391  0.00  0.00    +0.052 A 
ATOM     12  C   UNL     1       5.456  -5.736   0.100  0.00  0.00    +0.025 A 
ATOM     13  C   UNL     1       6.032  -4.877   1.020  0.00  0.00    +0.002 A 
ATOM     14  C   UNL     1       5.397  -4.610   2.219  0.00  0.00    +0.002 A 
ATOM     15  C   UNL     1       4.169  -5.182   2.504  0.00  0.00    +0.025 A 
ATOM     16  C   UNL     1       3.580  -6.026   1.576  0.00  0.00    +0.049 A 
ATOM     17  N   UNL     1       2.302  -6.539   1.770  0.00  0.00    -0.331 N 
ATOM     18  H   UNL     1       2.151  -7.179   2.482  0.00  0.00    +0.147 HD
ENDROOT
BRANCH   1  22
ATOM     19  C   UNL     1       0.831  -1.882   1.123  0.00  0.00    +0.013 A 
ATOM     20  C   UNL     1       2.005  -2.456   0.673  0.00  0.00    +0.022 A 
ATOM     21  C   UNL     1       2.122  -3.832   0.611  0.00  0.00    +0.007 A 
ATOM     22  C   UNL     1       1.066  -4.634   0.999  0.00  0.00    -0.023 A 
ATOM     23  C   UNL     1      -0.108  -4.060   1.450  0.00  0.00    +0.007 A 
ATOM     24  C   UNL     1      -0.224  -2.684   1.517  0.00  0.00    +0.022 A 
BRANCH  19  25
ATOM     25  N   UNL     1       0.712  -0.490   1.186  0.00  0.00    -0.394 NA
ATOM     26  H   UNL     1      -0.202  -0.247   1.538  0.00  0.00    +0.126 HD
BRANCH  25  28
ATOM     27  C   UNL     1       1.535   1.556   2.249  0.00  0.00    +0.022 C 
ATOM     28  C   UNL     1       1.742   0.049   2.083  0.00  0.00    +0.081 C 
ENDBRANCH  25  28
BRANCH  25  29
ATOM     29  C   UNL     1       0.885   0.077  -0.158  0.00  0.00    +0.081 C 
ATOM     30  C   UNL     1      -0.260  -0.387  -1.060  0.00  0.00    +0.022 C 
ENDBRANCH  25  29
ENDBRANCH  19  25
ENDBRANCH   1  22
BRANCH   7  31
ATOM     31  C   UNL     1       1.071  -8.181  -4.479  0.00  0.00    -0.044 A 
ATOM     32  C   UNL     1       1.401  -7.206  -5.401  0.00  0.00    +0.004 A 
ATOM     33  C   UNL     1       1.404  -7.503  -6.751  0.00  0.00    +0.000 A 
ATOM     34  C   UNL     1       1.077  -8.777  -7.178  0.00  0.00    +0.000 A 
ATOM     35  C   UNL     1       0.748  -9.752  -6.256  0.00  0.00    +0.000 A 
ATOM     36  C   UNL     1       0.749  -9.456  -4.906  0.00  0.00    +0.004 A 
ENDBRANCH   7  31
TORSDOF 5
