REMARK  Name = ZINC24271643
REMARK  9 active torsions:
REMARK  status: ('A' for Active; 'I' for Inactive)
REMARK    1  A    between atoms: C_1  and  C_2
REMARK    2  A    between atoms: C_2  and  C_4
REMARK    3  A    between atoms: C_2  and  S_18
REMARK    4  A    between atoms: C_4  and  C_6
REMARK    5  A    between atoms: C_6  and  C_16
REMARK    6  A    between atoms: S_18  and  C_19
REMARK    7  A    between atoms: N_23  and  C_24
REMARK    8  A    between atoms: C_27  and  O_30
REMARK    9  A    between atoms: O_30  and  C_31
REMARK                            x       y       z     vdW  Elec       q    Type
REMARK                         _______ _______ _______ _____ _____    ______ ____
ROOT
ATOM      1  C   UNL     1       5.214  -0.672   7.224  0.00  0.00    +0.028 C 
ATOM      2  C   UNL     1       5.852  -0.763   5.837  0.00  0.00    +0.123 C 
ENDROOT
BRANCH   2   3
ATOM      3  C   UNL     1       6.852   0.352   5.670  0.00  0.00    +0.189 C 
ATOM      4  O   UNL     1       6.521   1.390   5.130  0.00  0.00    -0.290 OA
BRANCH   3   5
ATOM      5  C   UNL     1       8.168   0.191   6.137  0.00  0.00    +0.131 C 
ATOM      6  C   UNL     1       9.101   1.231   5.981  0.00  0.00    +0.114 C 
ATOM      7  N   UNL     1       8.852   2.430   5.393  0.00  0.00    -0.300 N 
ATOM      8  C   UNL     1      10.018   3.186   5.433  0.00  0.00    +0.054 A 
ATOM      9  C   UNL     1      10.336   4.462   4.989  0.00  0.00    +0.025 A 
ATOM     10  C   UNL     1      11.614   4.954   5.169  0.00  0.00    +0.002 A 
ATOM     11  C   UNL     1      12.580   4.180   5.790  0.00  0.00    +0.002 A 
ATOM     12  C   UNL     1      12.274   2.909   6.235  0.00  0.00    +0.025 A 
ATOM     13  C   UNL     1      10.993   2.405   6.060  0.00  0.00    +0.054 A 
ATOM     14  N   UNL     1      10.396   1.194   6.391  0.00  0.00    -0.300 N 
ATOM     15  H   UNL     1       7.853   2.647   4.989  0.00  0.00    +0.153 HD
ATOM     16  H   UNL     1      10.789   0.296   6.890  0.00  0.00    +0.153 HD
BRANCH   5  17
ATOM     17  C   UNL     1       8.557  -1.032   6.772  0.00  0.00    +0.106 C 
ATOM     18  N   UNL     1       8.867  -2.002   7.277  0.00  0.00    -0.191 NA
ENDBRANCH   5  17
ENDBRANCH   3   5
ENDBRANCH   2   3
BRANCH   2  19
ATOM     19  S   UNL     1       4.567  -0.615   4.571  0.00  0.00    -0.073 S 
BRANCH  19  20
ATOM     20  C   UNL     1       3.648  -2.083   4.894  0.00  0.00    +0.215 A 
ATOM     21  N   UNL     1       3.903  -2.977   5.826  0.00  0.00    -0.101 NA
ATOM     22  N   UNL     1       3.041  -3.927   5.786  0.00  0.00    -0.022 NA
ATOM     23  N   UNL     1       2.182  -3.716   4.849  0.00  0.00    -0.038 NA
ATOM     24  N   UNL     1       2.541  -2.504   4.232  0.00  0.00    -0.187 N 
BRANCH  24  25
ATOM     25  C   UNL     1       1.897  -1.870   3.159  0.00  0.00    +0.070 A 
ATOM     26  C   UNL     1       1.315  -2.628   2.152  0.00  0.00    +0.031 A 
ATOM     27  C   UNL     1       0.682  -2.004   1.097  0.00  0.00    +0.048 A 
ATOM     28  C   UNL     1       0.626  -0.619   1.042  0.00  0.00    +0.130 A 
ATOM     29  C   UNL     1       1.212   0.140   2.045  0.00  0.00    +0.048 A 
ATOM     30  C   UNL     1       1.841  -0.484   3.104  0.00  0.00    +0.031 A 
BRANCH  28  31
ATOM     31  O   UNL     1       0.002  -0.004   0.002  0.00  0.00    -0.406 OA
BRANCH  31  32
ATOM     32  C   UNL     1      -0.017   1.425   0.010  0.00  0.00    +0.575 C 
ATOM     33  F   UNL     1       1.295   1.909  -0.000  0.00  0.00    -0.133 F 
ATOM     34  F   UNL     1      -0.694   1.888  -1.123  0.00  0.00    -0.133 F 
ATOM     35  F   UNL     1      -0.672   1.876   1.161  0.00  0.00    -0.133 F 
ENDBRANCH  31  32
ENDBRANCH  28  31
ENDBRANCH  24  25
ENDBRANCH  19  20
ENDBRANCH   2  19
TORSDOF 8
