REMARK  Name = ZINC03655340
REMARK  5 active torsions:
REMARK  status: ('A' for Active; 'I' for Inactive)
REMARK    1  A    between atoms: C_1  and  C_2
REMARK    2  A    between atoms: C_10  and  C_11
REMARK    3  A    between atoms: N_13  and  C_14
REMARK    4  A    between atoms: C_22  and  C_23
REMARK    5  A    between atoms: C_23  and  C_25
REMARK                            x       y       z     vdW  Elec       q    Type
REMARK                         _______ _______ _______ _____ _____    ______ ____
ROOT
ATOM      1  C   UNL     1      -1.176  -2.075   0.062  0.00  0.00    +0.091 A 
ATOM      2  C   UNL     1      -2.308  -2.955  -0.251  0.00  0.00    +0.042 A 
ATOM      3  C   UNL     1      -3.615  -2.735  -0.690  0.00  0.00    +0.013 A 
ATOM      4  C   UNL     1      -4.447  -3.797  -0.902  0.00  0.00    +0.001 A 
ATOM      5  C   UNL     1      -4.000  -5.094  -0.689  0.00  0.00    +0.004 A 
ATOM      6  C   UNL     1      -2.712  -5.332  -0.259  0.00  0.00    +0.047 A 
ATOM      7  C   UNL     1      -1.847  -4.266  -0.037  0.00  0.00    +0.138 A 
ATOM      8  O   UNL     1      -0.565  -4.196   0.373  0.00  0.00    -0.450 OA
ATOM      9  C   UNL     1      -0.144  -2.913   0.440  0.00  0.00    +0.197 A 
ENDROOT
BRANCH   1  12
ATOM     10  C   UNL     1      -1.974  -0.039  -0.847  0.00  0.00    +0.284 C 
ATOM     11  O   UNL     1      -2.694  -0.667  -1.599  0.00  0.00    -0.266 OA
ATOM     12  N   UNL     1      -1.149  -0.690  -0.003  0.00  0.00    -0.275 N 
ATOM     13  H   UNL     1      -0.536  -0.190   0.558  0.00  0.00    +0.155 HD
BRANCH  10  23
ATOM     14  C   UNL     1      -3.780   1.699  -2.688  0.00  0.00    +0.048 C 
ATOM     15  C   UNL     1      -2.792   2.190  -1.661  0.00  0.00    +0.008 A 
ATOM     16  C   UNL     1      -2.488   3.581  -1.328  0.00  0.00    +0.024 A 
ATOM     17  C   UNL     1      -2.950   4.816  -1.788  0.00  0.00    +0.012 A 
ATOM     18  C   UNL     1      -2.449   5.969  -1.254  0.00  0.00    +0.001 A 
ATOM     19  C   UNL     1      -1.484   5.921  -0.258  0.00  0.00    +0.004 A 
ATOM     20  C   UNL     1      -1.014   4.713   0.210  0.00  0.00    +0.047 A 
ATOM     21  C   UNL     1      -1.509   3.526  -0.318  0.00  0.00    +0.136 A 
ATOM     22  O   UNL     1      -1.256   2.227  -0.066  0.00  0.00    -0.450 OA
ATOM     23  C   UNL     1      -2.003   1.430  -0.857  0.00  0.00    +0.194 A 
ENDBRANCH  10  23
ENDBRANCH   1  12
BRANCH   9  24
ATOM     24  C   UNL     1       1.150  -2.494   0.835  0.00  0.00    +0.230 C 
ATOM     25  O   UNL     1       1.397  -1.307   0.950  0.00  0.00    -0.283 OA
BRANCH  24  26
ATOM     26  C   UNL     1       2.201  -3.497   1.108  0.00  0.00    +0.026 A 
ATOM     27  C   UNL     1       1.886  -4.858   1.111  0.00  0.00    +0.014 A 
ATOM     28  C   UNL     1       2.871  -5.790   1.361  0.00  0.00    +0.039 A 
ATOM     29  C   UNL     1       4.170  -5.377   1.619  0.00  0.00    +0.123 A 
ATOM     30  C   UNL     1       4.486  -4.027   1.622  0.00  0.00    +0.039 A 
ATOM     31  C   UNL     1       3.510  -3.088   1.368  0.00  0.00    +0.014 A 
ATOM     32  F   UNL     1       5.130  -6.294   1.867  0.00  0.00    -0.205 F 
ENDBRANCH  24  26
ENDBRANCH   9  24
TORSDOF 4
