REMARK  Name = ZINC15483786
REMARK  13 active torsions:
REMARK  status: ('A' for Active; 'I' for Inactive)
REMARK    1  A    between atoms: C_1  and  C_2
REMARK    2  A    between atoms: C_2  and  C_3
REMARK    3  A    between atoms: C_3  and  C_4
REMARK    4  A    between atoms: C_4  and  N_5
REMARK    5  A    between atoms: C_6  and  N_33
REMARK    6  A    between atoms: C_7  and  N_14
REMARK    7  A    between atoms: N_14  and  C_15
REMARK    8  A    between atoms: C_20  and  C_22
REMARK    9  A    between atoms: C_22  and  S_23
REMARK   10  A    between atoms: S_23  and  C_24
REMARK   11  A    between atoms: C_25  and  C_32
REMARK   12  A    between atoms: C_27  and  C_31
REMARK   13  A    between atoms: C_29  and  C_30
REMARK                            x       y       z     vdW  Elec       q    Type
REMARK                         _______ _______ _______ _____ _____    ______ ____
ROOT
ATOM      1  N   UNL     1      -2.394   1.176  -0.070  0.00  0.00    -0.260 N 
ATOM      2  C   UNL     1      -3.554   1.863  -0.124  0.00  0.00    +0.230 C 
ATOM      3  O   UNL     1      -3.544   3.075  -0.085  0.00  0.00    -0.274 OA
ENDROOT
BRANCH   1   6
ATOM      4  N   UNL     1       0.364   3.317   1.074  0.00  0.00    -0.280 N 
ATOM      5  C   UNL     1      -0.839   2.650   1.063  0.00  0.00    +0.127 A 
ATOM      6  C   UNL     1      -1.165   1.868  -0.026  0.00  0.00    +0.140 A 
ATOM      7  C   UNL     1      -0.250   1.769  -1.091  0.00  0.00    +0.277 A 
ATOM      8  O   UNL     1      -0.511   1.082  -2.063  0.00  0.00    -0.266 OA
ATOM      9  N   UNL     1       0.915   2.444  -1.030  0.00  0.00    -0.273 N 
ATOM     10  H   UNL     1       1.565   2.378  -1.787  0.00  0.00    +0.173 HD
ATOM     11  C   UNL     1       1.214   3.205   0.038  0.00  0.00    +0.331 A 
ATOM     12  O   UNL     1       2.272   3.803   0.067  0.00  0.00    -0.246 OA
BRANCH   5  13
ATOM     13  N   UNL     1      -1.708   2.765   2.121  0.00  0.00    -0.343 N 
ATOM     14  H   UNL     1      -1.446   3.262   2.912  0.00  0.00    +0.144 HD
ATOM     15  H   UNL     1      -2.583   2.350   2.078  0.00  0.00    +0.144 HD
ENDBRANCH   5  13
BRANCH   4  16
ATOM     16  C   UNL     1       0.721   4.156   2.221  0.00  0.00    +0.128 C 
BRANCH  16  17
ATOM     17  C   UNL     1       0.221   5.582   1.986  0.00  0.00    +0.021 C 
BRANCH  17  19
ATOM     18  C   UNL     1       0.093   7.885   2.948  0.00  0.00    +0.004 C 
ATOM     19  C   UNL     1       0.593   6.458   3.184  0.00  0.00    -0.002 C 
ENDBRANCH  17  19
ENDBRANCH  16  17
ENDBRANCH   4  16
ENDBRANCH   1   6
BRANCH   1  20
ATOM     20  C   UNL     1      -2.410  -0.289  -0.058  0.00  0.00    +0.082 C 
ATOM     21  C   UNL     1      -2.989  -0.823  -1.384  0.00  0.00    +0.023 C 
ATOM     22  C   UNL     1      -3.814  -2.066  -0.965  0.00  0.00    +0.002 C 
ATOM     23  C   UNL     1      -4.445  -1.621   0.379  0.00  0.00    +0.002 C 
ATOM     24  C   UNL     1      -3.335  -0.797   1.063  0.00  0.00    +0.023 C 
ENDBRANCH   1  20
BRANCH   2  25
ATOM     25  C   UNL     1      -4.863   1.123  -0.232  0.00  0.00    +0.170 C 
BRANCH  25  26
ATOM     26  S   UNL     1      -6.212   2.314  -0.466  0.00  0.00    -0.115 S 
BRANCH  26  27
ATOM     27  C   UNL     1      -7.654   1.308  -0.573  0.00  0.00    +0.014 A 
ATOM     28  C   UNL     1      -8.087   0.839  -1.808  0.00  0.00    -0.037 A 
ATOM     29  C   UNL     1      -9.215   0.046  -1.887  0.00  0.00    +0.007 A 
ATOM     30  C   UNL     1      -9.920  -0.272  -0.741  0.00  0.00    -0.050 A 
ATOM     31  C   UNL     1      -9.495   0.196   0.489  0.00  0.00    +0.007 A 
ATOM     32  C   UNL     1      -8.366   0.985   0.577  0.00  0.00    -0.037 A 
ATOM     33  C   UNL     1      -7.904   1.496   1.917  0.00  0.00    +0.045 C 
ATOM     34  C   UNL     1     -11.154  -1.133  -0.833  0.00  0.00    +0.044 C 
ATOM     35  C   UNL     1      -7.323   1.191  -3.058  0.00  0.00    +0.045 C 
ENDBRANCH  26  27
ENDBRANCH  25  26
ENDBRANCH   2  25
TORSDOF 9
