REMARK  Name = ZINC50830181
REMARK  7 active torsions:
REMARK  status: ('A' for Active; 'I' for Inactive)
REMARK    1  A    between atoms: C_1  and  C_2
REMARK    2  A    between atoms: C_3  and  C_10
REMARK    3  A    between atoms: C_4  and  N_8
REMARK    4  A    between atoms: N_5  and  C_7
REMARK    5  A    between atoms: N_8  and  C_9
REMARK    6  A    between atoms: C_10  and  O_11
REMARK    7  A    between atoms: O_11  and  C_12
REMARK                            x       y       z     vdW  Elec       q    Type
REMARK                         _______ _______ _______ _____ _____    ______ ____
ROOT
ATOM      1  C   UNL     1      -0.497   1.573   0.276  0.00  0.00    +0.065 C 
ATOM      2  C   UNL     1      -0.201   0.097   0.220  0.00  0.00    +0.039 A 
ATOM      3  C   UNL     1       0.011  -0.652  -0.942  0.00  0.00    +0.049 A 
ATOM      4  C   UNL     1       0.247  -1.940  -0.570  0.00  0.00    +0.121 A 
ATOM      5  N   UNL     1       0.184  -1.993   0.780  0.00  0.00    -0.276 N 
ATOM      6  N   UNL     1      -0.092  -0.703   1.250  0.00  0.00    -0.300 N 
ATOM      7  C   UNL     1       0.376  -3.188   1.605  0.00  0.00    +0.172 C 
ATOM      8  H   UNL     1      -0.189  -0.446   2.180  0.00  0.00    +0.187 HD
ENDROOT
BRANCH   4   9
ATOM      9  N   UNL     1       0.506  -3.009  -1.424  0.00  0.00    -0.332 N 
ATOM     10  C   UNL     1       0.682  -4.356  -0.878  0.00  0.00    +0.127 C 
ATOM     11  H   UNL     1       0.569  -2.861  -2.381  0.00  0.00    +0.147 HD
ENDBRANCH   4   9
BRANCH   3  12
ATOM     12  C   UNL     1      -0.016  -0.126  -2.354  0.00  0.00    +0.269 C 
BRANCH  12  13
ATOM     13  O   UNL     1       1.295   0.302  -2.728  0.00  0.00    -0.485 OA
BRANCH  13  14
ATOM     14  C   UNL     1       1.445   0.807  -3.982  0.00  0.00    +0.149 A 
ATOM     15  C   UNL     1       1.757  -0.037  -5.038  0.00  0.00    +0.062 A 
ATOM     16  C   UNL     1       1.909   0.479  -6.311  0.00  0.00    +0.034 A 
ATOM     17  C   UNL     1       1.751   1.835  -6.533  0.00  0.00    +0.020 A 
ATOM     18  C   UNL     1       1.439   2.678  -5.482  0.00  0.00    +0.034 A 
ATOM     19  C   UNL     1       1.281   2.166  -4.207  0.00  0.00    +0.062 A 
ATOM     20 BR   UNL     1       0.848   3.319  -2.772  0.00  0.00    -0.046 Br
ATOM     21 BR   UNL     1       1.960   2.537  -8.277  0.00  0.00    -0.050 Br
ATOM     22 BR   UNL     1       1.975  -1.891  -4.735  0.00  0.00    -0.046 Br
ENDBRANCH  13  14
ENDBRANCH  12  13
ENDBRANCH   3  12
TORSDOF 4
