REMARK  Name = ZINC08861804
REMARK  7 active torsions:
REMARK  status: ('A' for Active; 'I' for Inactive)
REMARK    1  A    between atoms: C_1  and  C_2
REMARK    2  A    between atoms: C_5  and  C_9
REMARK    3  A    between atoms: C_7  and  C_8
REMARK    4  A    between atoms: C_9  and  C_28
REMARK    5  A    between atoms: N_12  and  C_16
REMARK    6  A    between atoms: C_16  and  C_17
REMARK    7  A    between atoms: C_19  and  C_22
REMARK                            x       y       z     vdW  Elec       q    Type
REMARK                         _______ _______ _______ _____ _____    ______ ____
ROOT
ATOM      1  C   UNL     1      -1.366   2.788   3.019  0.00  0.00    +0.164 C 
ATOM      2  C   UNL     1       0.064   2.706   2.521  0.00  0.00    +0.256 C 
ATOM      3  O   UNL     1       1.009   3.364   2.897  0.00  0.00    -0.272 OA
ATOM      4  N   UNL     1       0.064   1.750   1.571  0.00  0.00    -0.215 N 
ATOM      5  C   UNL     1      -1.153   1.217   1.407  0.00  0.00    +0.310 C 
ATOM      6  O   UNL     1      -1.401   0.334   0.610  0.00  0.00    -0.252 OA
ATOM      7  N   UNL     1      -2.070   1.768   2.222  0.00  0.00    -0.278 N 
ATOM      8  H   UNL     1      -3.010   1.539   2.276  0.00  0.00    +0.152 HD
ENDROOT
BRANCH   1  13
ATOM      9  C   UNL     1      -3.592   8.029   2.034  0.00  0.00    +0.044 C 
ATOM     10  C   UNL     1      -3.011   6.662   2.291  0.00  0.00    -0.048 A 
ATOM     11  C   UNL     1      -1.788   6.539   2.923  0.00  0.00    +0.004 A 
ATOM     12  C   UNL     1      -1.255   5.285   3.158  0.00  0.00    +0.007 A 
ATOM     13  C   UNL     1      -1.946   4.155   2.762  0.00  0.00    -0.010 A 
ATOM     14  C   UNL     1      -3.167   4.279   2.127  0.00  0.00    +0.010 A 
ATOM     15  C   UNL     1      -3.702   5.533   1.895  0.00  0.00    -0.047 A 
ATOM     16  C   UNL     1      -5.035   5.668   1.206  0.00  0.00    +0.044 C 
ENDBRANCH   1  13
BRANCH   1  17
ATOM     17  C   UNL     1      -1.432   2.453   4.487  0.00  0.00    -0.011 A 
ATOM     18  C   UNL     1      -2.375   1.554   4.949  0.00  0.00    +0.006 A 
ATOM     19  C   UNL     1      -2.432   1.243   6.295  0.00  0.00    +0.000 A 
ATOM     20  C   UNL     1      -1.553   1.838   7.179  0.00  0.00    +0.000 A 
ATOM     21  C   UNL     1      -0.613   2.741   6.718  0.00  0.00    +0.000 A 
ATOM     22  C   UNL     1      -0.552   3.048   5.372  0.00  0.00    +0.006 A 
ENDBRANCH   1  17
BRANCH   4  23
ATOM     23  C   UNL     1       1.250   1.340   0.816  0.00  0.00    +0.216 C 
BRANCH  23  24
ATOM     24  C   UNL     1       1.364   2.175  -0.433  0.00  0.00    +0.246 A 
ATOM     25  N   UNL     1       2.002   3.313  -0.552  0.00  0.00    -0.190 NA
ATOM     26  C   UNL     1       1.833   3.690  -1.840  0.00  0.00    +0.202 A 
ATOM     27  N   UNL     1       1.111   2.768  -2.421  0.00  0.00    -0.056 NA
ATOM     28  O   UNL     1       0.839   1.891  -1.629  0.00  0.00    -0.336 OA
BRANCH  26  29
ATOM     29  C   UNL     1       2.369   4.920  -2.475  0.00  0.00    +0.022 A 
ATOM     30  C   UNL     1       3.122   5.822  -1.727  0.00  0.00    +0.012 A 
ATOM     31  C   UNL     1       3.622   6.962  -2.324  0.00  0.00    +0.001 A 
ATOM     32  C   UNL     1       3.366   7.215  -3.659  0.00  0.00    +0.000 A 
ATOM     33  C   UNL     1       2.614   6.326  -4.405  0.00  0.00    +0.001 A 
ATOM     34  C   UNL     1       2.114   5.180  -3.820  0.00  0.00    +0.012 A 
ENDBRANCH  26  29
ENDBRANCH  23  24
ENDBRANCH   4  23
TORSDOF 5
