REMARK  Name = ZINC16909980
REMARK  5 active torsions:
REMARK  status: ('A' for Active; 'I' for Inactive)
REMARK    1  A    between atoms: C_4  and  O_22
REMARK    2  A    between atoms: C_5  and  C_7
REMARK    3  A    between atoms: N_11  and  C_15
REMARK    4  A    between atoms: O_22  and  C_23
REMARK    5  A    between atoms: C_23  and  C_24
REMARK                            x       y       z     vdW  Elec       q    Type
REMARK                         _______ _______ _______ _____ _____    ______ ____
ROOT
ATOM      1  C   UNL     1      -0.056   5.318   0.030  0.00  0.00    +0.032 C 
ATOM      2  C   UNL     1       1.109   6.008   0.126  0.00  0.00    +0.080 C 
ATOM      3  C   UNL     1       2.499   5.511   0.132  0.00  0.00    +0.265 C 
ATOM      4  O   UNL     1       2.754   4.324   0.044  0.00  0.00    -0.269 OA
ATOM      5  N   UNL     1       3.453   6.420   0.238  0.00  0.00    -0.196 N 
ATOM      6  C   UNL     1       3.166   7.735   0.335  0.00  0.00    +0.290 C 
ATOM      7  O   UNL     1       3.936   8.671   0.436  0.00  0.00    -0.262 OA
ATOM      8  S   UNL     1       1.382   7.769   0.271  0.00  0.00    -0.025 S 
ENDROOT
BRANCH   5   9
ATOM      9  C   UNL     1       4.793   6.009   0.250  0.00  0.00    +0.059 A 
ATOM     10  C   UNL     1       5.497   5.896  -0.942  0.00  0.00    +0.025 A 
ATOM     11  C   UNL     1       6.819   5.496  -0.926  0.00  0.00    +0.002 A 
ATOM     12  C   UNL     1       7.438   5.197   0.273  0.00  0.00    +0.001 A 
ATOM     13  C   UNL     1       6.739   5.303   1.461  0.00  0.00    +0.017 A 
ATOM     14  C   UNL     1       5.418   5.708   1.453  0.00  0.00    +0.040 A 
ATOM     15 BR   UNL     1       4.462   5.852   3.078  0.00  0.00    -0.048 Br
ENDBRANCH   5   9
BRANCH   1  20
ATOM     16  C   UNL     1       0.781   1.805   1.033  0.00  0.00    +0.001 A 
ATOM     17  C   UNL     1      -0.029   1.078   0.175  0.00  0.00    +0.004 A 
ATOM     18  C   UNL     1      -0.844   1.724  -0.734  0.00  0.00    +0.046 A 
ATOM     19  C   UNL     1      -0.866   3.109  -0.787  0.00  0.00    +0.128 A 
ATOM     20  C   UNL     1      -0.047   3.851   0.080  0.00  0.00    +0.018 A 
ATOM     21  C   UNL     1       0.778   3.182   0.992  0.00  0.00    +0.011 A 
BRANCH  19  22
ATOM     22  O   UNL     1      -1.670   3.745  -1.677  0.00  0.00    -0.480 OA
BRANCH  22  23
ATOM     23  C   UNL     1      -2.474   2.924  -2.526  0.00  0.00    +0.353 C 
BRANCH  23  24
ATOM     24  C   UNL     1      -3.294   3.798  -3.439  0.00  0.00    +0.393 C 
ATOM     25  O   UNL     1      -3.199   5.001  -3.370  0.00  0.00    -0.243 OA
ATOM     26  O   UNL     1      -4.130   3.241  -4.330  0.00  0.00    -0.243 OA
ENDBRANCH  23  24
ENDBRANCH  22  23
ENDBRANCH  19  22
ENDBRANCH   1  20
TORSDOF 5
