REMARK  Name = ZINC48865783
REMARK  5 active torsions:
REMARK  status: ('A' for Active; 'I' for Inactive)
REMARK    1  A    between atoms: C_1  and  C_2
REMARK    2  A    between atoms: C_7  and  C_9
REMARK    3  A    between atoms: C_7  and  N_12
REMARK    4  A    between atoms: C_19  and  C_21
REMARK    5  A    between atoms: C_21  and  O_22
REMARK                            x       y       z     vdW  Elec       q    Type
REMARK                         _______ _______ _______ _____ _____    ______ ____
ROOT
ATOM      1  N   UNL     1       0.224   1.450   2.497  0.00  0.00    -0.283 N 
ATOM      2  C   UNL     1       1.362   2.141   2.287  0.00  0.00    +0.303 C 
ATOM      3  O   UNL     1       2.405   1.548   2.091  0.00  0.00    -0.253 OA
ATOM      4  N   UNL     1       1.344   3.489   2.294  0.00  0.00    -0.280 N 
ATOM      5  C   UNL     1       0.156   4.330   2.525  0.00  0.00    +0.110 C 
ATOM      6  C   UNL     1       0.718   5.677   3.045  0.00  0.00    +0.021 C 
ATOM      7  C   UNL     1       2.013   5.819   2.202  0.00  0.00    +0.026 C 
ATOM      8  C   UNL     1       2.506   4.362   2.080  0.00  0.00    +0.103 C 
ATOM      9  H   UNL     1      -0.609   1.923   2.653  0.00  0.00    +0.151 HD
ENDROOT
BRANCH   1  15
ATOM     10  C   UNL     1      -0.277   1.522   0.049  0.00  0.00    +0.007 C 
ATOM     11  C   UNL     1      -0.256  -0.008   0.041  0.00  0.00    -0.012 C 
ATOM     12  C   UNL     1      -1.663  -0.538   0.327  0.00  0.00    +0.003 C 
ATOM     13  C   UNL     1      -2.126  -0.042   1.698  0.00  0.00    +0.003 C 
ATOM     14  C   UNL     1      -1.163  -0.545   2.774  0.00  0.00    +0.037 C 
ATOM     15  C   UNL     1       0.244  -0.015   2.489  0.00  0.00    +0.137 C 
ATOM     16  C   UNL     1       0.707  -0.511   1.118  0.00  0.00    +0.040 C 
BRANCH  15  17
ATOM     17  C   UNL     1       1.192  -0.510   3.550  0.00  0.00    +0.379 C 
ATOM     18  O   UNL     1       1.357  -1.707   3.710  0.00  0.00    -0.244 OA
ATOM     19  O   UNL     1       1.796   0.287   4.248  0.00  0.00    -0.244 OA
ENDBRANCH  15  17
ENDBRANCH   1  15
BRANCH   8  20
ATOM     20  C   UNL     1       3.085   4.127   0.684  0.00  0.00    +0.178 C 
BRANCH  20  21
ATOM     21  O   UNL     1       2.130   4.527  -0.301  0.00  0.00    -0.393 OA
ATOM     22  H   UNL     1       2.430   4.406  -1.212  0.00  0.00    +0.209 HD
ENDBRANCH  20  21
ENDBRANCH   8  20
TORSDOF 4
