REMARK  Name = ZINC03116925
REMARK  11 active torsions:
REMARK  status: ('A' for Active; 'I' for Inactive)
REMARK    1  A    between atoms: C_1  and  N_2
REMARK    2  A    between atoms: C_5  and  C_23
REMARK    3  A    between atoms: N_7  and  C_10
REMARK    4  A    between atoms: C_10  and  C_11
REMARK    5  A    between atoms: C_11  and  N_12
REMARK    6  A    between atoms: N_12  and  C_13
REMARK    7  A    between atoms: C_16  and  C_18
REMARK    8  A    between atoms: C_23  and  C_25
REMARK    9  A    between atoms: C_26  and  N_27
REMARK   10  A    between atoms: N_27  and  C_28
REMARK   11  A    between atoms: C_31  and  C_34
REMARK                            x       y       z     vdW  Elec       q    Type
REMARK                         _______ _______ _______ _____ _____    ______ ____
ROOT
ATOM      1  C   UNL     1      -3.529  -6.271   2.544  0.00  0.00    +0.157 C 
ATOM      2  N   UNL     1      -2.954  -5.953   1.234  0.00  0.00    -0.263 N 
ATOM      3  C   UNL     1      -3.612  -6.307   0.110  0.00  0.00    +0.267 A 
ATOM      4  O   UNL     1      -4.679  -6.888   0.171  0.00  0.00    -0.267 OA
ATOM      5  C   UNL     1      -3.010  -5.974  -1.191  0.00  0.00    +0.102 A 
ATOM      6  C   UNL     1      -1.798  -5.313  -1.197  0.00  0.00    +0.107 A 
ATOM      7  N   UNL     1      -1.207  -4.996  -0.014  0.00  0.00    -0.298 N 
ATOM      8  C   UNL     1      -1.773  -5.316   1.160  0.00  0.00    +0.332 A 
ATOM      9  O   UNL     1      -1.202  -5.014   2.190  0.00  0.00    -0.246 OA
ENDROOT
BRANCH   5  10
ATOM     10  C   UNL     1      -3.682  -6.335  -2.452  0.00  0.00    +0.194 C 
ATOM     11  O   UNL     1      -4.700  -7.005  -2.429  0.00  0.00    -0.287 OA
BRANCH  10  12
ATOM     12  C   UNL     1      -3.146  -5.905  -3.688  0.00  0.00    +0.067 C 
ATOM     13  C   UNL     1      -3.816  -6.146  -4.835  0.00  0.00    +0.076 C 
BRANCH  13  14
ATOM     14  N   UNL     1      -3.297  -5.729  -6.030  0.00  0.00    -0.320 N 
ATOM     15  H   UNL     1      -2.448  -5.261  -6.054  0.00  0.00    +0.152 HD
BRANCH  14  16
ATOM     16  C   UNL     1      -3.990  -5.979  -7.218  0.00  0.00    +0.031 A 
ATOM     17  C   UNL     1      -5.204  -6.654  -7.186  0.00  0.00    +0.024 A 
ATOM     18  C   UNL     1      -5.889  -6.894  -8.361  0.00  0.00    +0.014 A 
ATOM     19  C   UNL     1      -5.363  -6.473  -9.569  0.00  0.00    +0.055 A 
ATOM     20  C   UNL     1      -4.153  -5.805  -9.604  0.00  0.00    +0.014 A 
ATOM     21  C   UNL     1      -3.465  -5.557  -8.433  0.00  0.00    +0.024 A 
BRANCH  19  22
ATOM     22  C   UNL     1      -6.111  -6.742 -10.849  0.00  0.00    +0.417 C 
ATOM     23  F   UNL     1      -5.711  -7.977 -11.372  0.00  0.00    -0.166 F 
ATOM     24  F   UNL     1      -7.486  -6.769 -10.590  0.00  0.00    -0.166 F 
ATOM     25  F   UNL     1      -5.830  -5.731 -11.775  0.00  0.00    -0.166 F 
ENDBRANCH  19  22
ENDBRANCH  14  16
ENDBRANCH  13  14
ENDBRANCH  10  12
ENDBRANCH   5  10
BRANCH   7  26
ATOM     26  C   UNL     1       0.079  -4.295  -0.022  0.00  0.00    +0.145 C 
BRANCH  26  27
ATOM     27  C   UNL     1      -0.163  -2.784  -0.020  0.00  0.00    +0.124 C 
BRANCH  27  28
ATOM     28  N   UNL     1       1.123  -2.083  -0.027  0.00  0.00    -0.328 N 
ATOM     29  H   UNL     1       1.951  -2.589  -0.033  0.00  0.00    +0.148 HD
BRANCH  28  30
ATOM     30  C   UNL     1       1.157  -0.693  -0.027  0.00  0.00    +0.115 A 
ATOM     31  C   UNL     1       2.383  -0.033  -0.034  0.00  0.00    +0.079 A 
ATOM     32  C   UNL     1       2.402   1.351  -0.034  0.00  0.00    +0.037 A 
ATOM     33  C   UNL     1       1.190   2.030  -0.026  0.00  0.00    +0.072 A 
ATOM     34  C   UNL     1       0.012   1.311  -0.018  0.00  0.00    +0.096 A 
ATOM     35 CL   UNL     1       3.868  -0.933  -0.044  0.00  0.00    -0.080 Cl
ATOM     36  N   UNL     1      -0.045  -0.048  -0.019  0.00  0.00    -0.348 N 
ATOM     37  H   UNL     1      -0.937  -0.556  -0.013  0.00  0.00    +0.167 HD
BRANCH  33  38
ATOM     38  C   UNL     1       1.163   3.537  -0.026  0.00  0.00    +0.419 C 
ATOM     39  F   UNL     1      -0.165   3.978  -0.017  0.00  0.00    -0.166 F 
ATOM     40  F   UNL     1       1.821   4.015   1.113  0.00  0.00    -0.166 F 
ATOM     41  F   UNL     1       1.806   4.015  -1.172  0.00  0.00    -0.166 F 
ENDBRANCH  33  38
ENDBRANCH  28  30
ENDBRANCH  27  28
ENDBRANCH  26  27
ENDBRANCH   7  26
TORSDOF 10
