REMARK  Name = ZINC39692024
REMARK  9 active torsions:
REMARK  status: ('A' for Active; 'I' for Inactive)
REMARK    1  A    between atoms: C_1  and  C_2
REMARK    2  A    between atoms: C_3  and  C_7
REMARK    3  A    between atoms: C_10  and  S_19
REMARK    4  A    between atoms: N_11  and  C_12
REMARK    5  A    between atoms: C_12  and  C_13
REMARK    6  A    between atoms: S_19  and  C_20
REMARK    7  A    between atoms: C_20  and  C_21
REMARK    8  A    between atoms: C_28  and  C_35
REMARK    9  A    between atoms: C_29  and  C_32
REMARK                            x       y       z     vdW  Elec       q    Type
REMARK                         _______ _______ _______ _____ _____    ______ ____
ROOT
ATOM      1  C   UNL     1      -2.455  -0.985  -0.226  0.00  0.00    +0.168 A 
ATOM      2  N   UNL     1      -2.867   0.234   0.029  0.00  0.00    -0.128 NA
ATOM      3  N   UNL     1      -4.151   0.273   0.028  0.00  0.00    -0.122 NA
ATOM      4  C   UNL     1      -4.638  -0.919  -0.228  0.00  0.00    +0.192 A 
ATOM      5  N   UNL     1      -3.576  -1.761  -0.404  0.00  0.00    -0.298 N 
ENDROOT
BRANCH   1   8
ATOM      6  C   UNL     1      -0.164  -0.329   1.812  0.00  0.00    +0.087 C 
ATOM      7  C   UNL     1      -0.043  -1.165   0.563  0.00  0.00    +0.112 A 
ATOM      8  C   UNL     1      -1.049  -1.439  -0.311  0.00  0.00    +0.060 A 
ATOM      9  C   UNL     1      -0.450  -2.279  -1.356  0.00  0.00    +0.053 A 
ATOM     10  C   UNL     1       0.841  -2.428  -1.017  0.00  0.00    +0.196 A 
ATOM     11  O   UNL     1       1.075  -1.759   0.122  0.00  0.00    -0.467 OA
ENDBRANCH   1   8
BRANCH   5  12
ATOM     12  C   UNL     1      -3.622  -3.192  -0.715  0.00  0.00    +0.161 C 
BRANCH  12  13
ATOM     13  C   UNL     1      -3.762  -3.979   0.562  0.00  0.00    -0.028 A 
ATOM     14  C   UNL     1      -2.639  -4.300   1.302  0.00  0.00    +0.005 A 
ATOM     15  C   UNL     1      -2.767  -5.023   2.474  0.00  0.00    +0.000 A 
ATOM     16  C   UNL     1      -4.018  -5.424   2.905  0.00  0.00    +0.000 A 
ATOM     17  C   UNL     1      -5.140  -5.102   2.166  0.00  0.00    +0.000 A 
ATOM     18  C   UNL     1      -5.013  -4.376   0.996  0.00  0.00    +0.005 A 
ENDBRANCH  12  13
ENDBRANCH   5  12
BRANCH   4  19
ATOM     19  S   UNL     1      -6.343  -1.351  -0.332  0.00  0.00    -0.081 S 
BRANCH  19  20
ATOM     20  C   UNL     1      -7.212   0.208  -0.009  0.00  0.00    +0.113 C 
BRANCH  20  21
ATOM     21  C   UNL     1      -8.700  -0.024  -0.068  0.00  0.00    -0.023 C 
ATOM     22  C   UNL     1      -9.409  -0.223   1.059  0.00  0.00    +0.074 C 
ATOM     23  C   UNL     1     -10.850  -0.447   1.000  0.00  0.00    +0.261 C 
ATOM     24  O   UNL     1     -11.476  -0.626   2.033  0.00  0.00    -0.269 OA
ATOM     25  N   UNL     1     -11.495  -0.458  -0.172  0.00  0.00    -0.170 NA
ATOM     26  C   UNL     1     -10.870  -0.272  -1.305  0.00  0.00    +0.098 C 
ATOM     27  C   UNL     1      -9.414  -0.030  -1.374  0.00  0.00    +0.009 C 
ATOM     28  C   UNL     1      -8.871   0.156  -2.593  0.00  0.00    -0.039 C 
ATOM     29  C   UNL     1      -9.791   0.108  -3.789  0.00  0.00    +0.192 C 
ATOM     30  S   UNL     1     -11.416  -0.227  -2.998  0.00  0.00    -0.088 S 
ATOM     31  C   UNL     1      -7.394   0.405  -2.757  0.00  0.00    +0.041 C 
BRANCH  29  32
ATOM     32  C   UNL     1      -9.411  -1.016  -4.718  0.00  0.00    +0.373 C 
ATOM     33  O   UNL     1      -9.969  -2.096  -4.629  0.00  0.00    -0.245 OA
ATOM     34  O   UNL     1      -8.544  -0.845  -5.559  0.00  0.00    -0.245 OA
ENDBRANCH  29  32
ENDBRANCH  20  21
ENDBRANCH  19  20
ENDBRANCH   4  19
TORSDOF 7
