REMARK  Name = ZINC14903196
REMARK  12 active torsions:
REMARK  status: ('A' for Active; 'I' for Inactive)
REMARK    1  A    between atoms: C_1  and  C_2
REMARK    2  A    between atoms: C_4  and  N_29
REMARK    3  A    between atoms: C_6  and  C_7
REMARK    4  A    between atoms: C_7  and  O_9
REMARK    5  A    between atoms: O_9  and  C_10
REMARK    6  A    between atoms: C_10  and  C_11
REMARK    7  A    between atoms: N_13  and  C_14
REMARK    8  A    between atoms: C_14  and  C_16
REMARK    9  A    between atoms: C_14  and  C_26
REMARK   10  A    between atoms: C_26  and  C_27
REMARK   11  A    between atoms: C_26  and  C_28
REMARK   12  A    between atoms: C_30  and  C_32
REMARK                            x       y       z     vdW  Elec       q    Type
REMARK                         _______ _______ _______ _____ _____    ______ ____
ROOT
ATOM      1  C   UNL     1      -6.653  -0.158  -2.322  0.00  0.00    +0.328 C 
ENDROOT
BRANCH   1   2
ATOM      2  C   UNL     1      -5.660  -0.844  -1.419  0.00  0.00    +0.251 C 
ATOM      3  O   UNL     1      -5.762  -2.031  -1.195  0.00  0.00    -0.272 OA
ATOM      4  N   UNL     1      -4.657  -0.137  -0.860  0.00  0.00    -0.305 N 
ATOM      5  H   UNL     1      -4.575   0.813  -1.039  0.00  0.00    +0.149 HD
BRANCH   4   6
ATOM      6  C   UNL     1      -3.692  -0.803   0.018  0.00  0.00    +0.106 C 
BRANCH   6   7
ATOM      7  C   UNL     1      -2.397  -0.033   0.016  0.00  0.00    -0.023 A 
ATOM      8  C   UNL     1      -2.415   1.349   0.026  0.00  0.00    +0.009 A 
ATOM      9  C   UNL     1      -1.229   2.059   0.019  0.00  0.00    +0.050 A 
ATOM     10  C   UNL     1      -0.017   1.385   0.010  0.00  0.00    +0.162 A 
ATOM     11  C   UNL     1       0.002  -0.004   0.002  0.00  0.00    +0.162 A 
ATOM     12  C   UNL     1      -1.192  -0.710   0.004  0.00  0.00    +0.055 A 
ATOM     13  O   UNL     1       1.181  -0.685  -0.007  0.00  0.00    -0.485 OA
ATOM     14  C   UNL     1       2.347   0.053  -0.387  0.00  0.00    +0.270 C 
ATOM     15  C   UNL     1       2.334   1.392   0.364  0.00  0.00    +0.270 C 
ATOM     16  O   UNL     1       1.143   2.098   0.002  0.00  0.00    -0.485 OA
ENDBRANCH   6   7
BRANCH   6  17
ATOM     17  C   UNL     1      -4.250  -0.858   1.441  0.00  0.00    +0.008 C 
ATOM     18  C   UNL     1      -5.566  -1.640   1.443  0.00  0.00    +0.009 C 
ATOM     19  C   UNL     1      -3.242  -1.554   2.358  0.00  0.00    +0.009 C 
ENDBRANCH   6  17
ENDBRANCH   4   6
ENDBRANCH   1   2
BRANCH   1  20
ATOM     20  O   UNL     1      -7.611  -1.111  -2.786  0.00  0.00    -0.451 OA
BRANCH  20  21
ATOM     21  C   UNL     1      -8.577  -0.656  -3.612  0.00  0.00    +0.347 C 
ATOM     22  O   UNL     1      -8.604   0.519  -3.928  0.00  0.00    -0.244 OA
BRANCH  21  28
ATOM     23  C   UNL     1     -10.885   0.107  -5.485  0.00  0.00    +0.045 C 
ATOM     24  C   UNL     1     -10.629  -1.281  -4.956  0.00  0.00    -0.028 A 
ATOM     25  C   UNL     1     -11.437  -2.332  -5.293  0.00  0.00    +0.035 A 
ATOM     26  C   UNL     1     -11.158  -3.578  -4.772  0.00  0.00    +0.073 A 
ATOM     27  S   UNL     1      -9.747  -3.294  -3.806  0.00  0.00    -0.067 S 
ATOM     28  C   UNL     1      -9.560  -1.546  -4.110  0.00  0.00    +0.101 A 
BRANCH  26  29
ATOM     29  N   UNL     1     -11.840  -4.770  -4.973  0.00  0.00    -0.273 N 
ATOM     30  C   UNL     1     -11.414  -5.900  -4.374  0.00  0.00    +0.284 C 
ATOM     31  O   UNL     1     -10.430  -5.875  -3.658  0.00  0.00    -0.266 OA
ATOM     32  H   UNL     1     -12.624  -4.790  -5.544  0.00  0.00    +0.156 HD
BRANCH  30  33
ATOM     33  C   UNL     1     -12.134  -7.158  -4.586  0.00  0.00    +0.189 A 
ATOM     34  C   UNL     1     -11.812  -8.369  -4.043  0.00  0.00    +0.054 A 
ATOM     35  C   UNL     1     -12.764  -9.288  -4.510  0.00  0.00    +0.042 A 
ATOM     36  C   UNL     1     -13.616  -8.607  -5.308  0.00  0.00    +0.196 A 
ATOM     37  O   UNL     1     -13.236  -7.323  -5.347  0.00  0.00    -0.458 OA
ENDBRANCH  30  33
ENDBRANCH  26  29
ENDBRANCH  21  28
ENDBRANCH  20  21
ENDBRANCH   1  20
TORSDOF 9
