REMARK  Name = ZINC39857408
REMARK  6 active torsions:
REMARK  status: ('A' for Active; 'I' for Inactive)
REMARK    1  A    between atoms: C_1  and  C_2
REMARK    2  A    between atoms: C_2  and  C_3
REMARK    3  A    between atoms: C_3  and  C_4
REMARK    4  A    between atoms: C_4  and  C_5
REMARK    5  A    between atoms: C_8  and  N_11
REMARK    6  A    between atoms: C_15  and  C_16
REMARK                            x       y       z     vdW  Elec       q    Type
REMARK                         _______ _______ _______ _____ _____    ______ ____
ROOT
ATOM      1  N   UNL     1      -6.736  -4.029   0.045  0.00  0.00    -0.197 N 
ATOM      2  C   UNL     1      -7.384  -4.162  -1.101  0.00  0.00    +0.265 C 
ATOM      3  O   UNL     1      -6.870  -3.874  -2.164  0.00  0.00    -0.269 OA
ATOM      4  C   UNL     1      -8.773  -4.682  -1.017  0.00  0.00    +0.080 C 
ATOM      5  C   UNL     1      -9.683  -4.925  -2.025  0.00  0.00    +0.026 C 
ATOM      6  S   UNL     1      -8.939  -4.907   0.748  0.00  0.00    -0.025 S 
ATOM      7  C   UNL     1      -7.308  -4.355   1.221  0.00  0.00    +0.290 C 
ATOM      8  O   UNL     1      -6.829  -4.288   2.336  0.00  0.00    -0.262 OA
ENDROOT
BRANCH   5   9
ATOM      9  C   UNL     1     -10.952  -5.422  -1.715  0.00  0.00    -0.018 C 
ATOM     10  C   UNL     1     -11.980  -5.724  -2.606  0.00  0.00    +0.003 A 
ATOM     11  C   UNL     1     -12.081  -5.638  -4.012  0.00  0.00    +0.010 A 
ATOM     12  C   UNL     1     -13.231  -6.010  -4.628  0.00  0.00    +0.001 A 
ATOM     13  C   UNL     1     -14.332  -6.481  -3.905  0.00  0.00    +0.002 A 
ATOM     14  C   UNL     1     -14.308  -6.591  -2.556  0.00  0.00    +0.026 A 
ATOM     15  C   UNL     1     -13.137  -6.221  -1.838  0.00  0.00    +0.043 A 
ATOM     16  N   UNL     1     -12.865  -6.233  -0.553  0.00  0.00    -0.380 N 
ATOM     17  C   UNL     1     -11.496  -5.750  -0.342  0.00  0.00    +0.149 C 
ATOM     18  H   UNL     1     -13.473  -6.519   0.147  0.00  0.00    +0.160 HD
ENDBRANCH   5   9
BRANCH   1  22
ATOM     19  C   UNL     1      -2.827  -2.584   0.014  0.00  0.00    -0.047 A 
ATOM     20  C   UNL     1      -3.061  -3.943  -0.087  0.00  0.00    +0.005 A 
ATOM     21  C   UNL     1      -4.355  -4.425  -0.077  0.00  0.00    +0.024 A 
ATOM     22  C   UNL     1      -5.422  -3.543   0.035  0.00  0.00    +0.045 A 
ATOM     23  C   UNL     1      -5.184  -2.179   0.136  0.00  0.00    +0.024 A 
ATOM     24  C   UNL     1      -3.887  -1.704   0.131  0.00  0.00    +0.005 A 
BRANCH  19  25
ATOM     25  C   UNL     1      -1.413  -2.061   0.002  0.00  0.00    +0.035 C 
BRANCH  25  26
ATOM     26  C   UNL     1      -0.878  -2.007   1.434  0.00  0.00    +0.004 C 
BRANCH  26  28
ATOM     27  C   UNL     1       1.093  -1.422   2.855  0.00  0.00    +0.004 C 
ATOM     28  C   UNL     1       0.557  -1.476   1.422  0.00  0.00    -0.003 C 
ENDBRANCH  26  28
ENDBRANCH  25  26
ENDBRANCH  19  25
ENDBRANCH   1  22
TORSDOF 5
