REMARK  Name = ZINC13036759
REMARK  7 active torsions:
REMARK  status: ('A' for Active; 'I' for Inactive)
REMARK    1  A    between atoms: C_1  and  C_2
REMARK    2  A    between atoms: C_7  and  C_8
REMARK    3  A    between atoms: C_8  and  N_9
REMARK    4  A    between atoms: N_9  and  C_10
REMARK    5  A    between atoms: N_9  and  C_11
REMARK    6  A    between atoms: N_14  and  C_19
REMARK    7  A    between atoms: C_24  and  C_25
REMARK                            x       y       z     vdW  Elec       q    Type
REMARK                         _______ _______ _______ _____ _____    ______ ____
ROOT
ATOM      1  C   UNL     1       4.814   5.198  -0.252  0.00  0.00    +0.074 A 
ATOM      2  C   UNL     1       3.646   5.066   0.529  0.00  0.00    +0.158 A 
ATOM      3  N   UNL     1       2.738   4.186   0.215  0.00  0.00    -0.170 NA
ATOM      4  N   UNL     1       2.900   3.346  -0.892  0.00  0.00    -0.195 N 
ATOM      5  C   UNL     1       4.000   3.437  -1.666  0.00  0.00    +0.292 A 
ATOM      6  O   UNL     1       4.133   2.704  -2.633  0.00  0.00    -0.264 OA
ATOM      7  C   UNL     1       4.990   4.380  -1.353  0.00  0.00    +0.129 A 
ATOM      8 CL   UNL     1       6.415   4.518  -2.335  0.00  0.00    -0.076 Cl
ENDROOT
BRANCH   4   9
ATOM      9  C   UNL     1       1.913   2.410  -1.200  0.00  0.00    +0.083 A 
ATOM     10  C   UNL     1       2.242   1.068  -1.331  0.00  0.00    +0.029 A 
ATOM     11  C   UNL     1       1.263   0.143  -1.636  0.00  0.00    +0.002 A 
ATOM     12  C   UNL     1      -0.050   0.545  -1.819  0.00  0.00    +0.001 A 
ATOM     13  C   UNL     1      -0.395   1.873  -1.688  0.00  0.00    +0.017 A 
ATOM     14  C   UNL     1       0.584   2.821  -1.380  0.00  0.00    +0.089 A 
BRANCH  14  15
ATOM     15  C   UNL     1       0.222   4.244  -1.243  0.00  0.00    +0.389 C 
ATOM     16  O   UNL     1       1.077   5.065  -0.974  0.00  0.00    -0.241 OA
ATOM     17  O   UNL     1      -1.056   4.634  -1.416  0.00  0.00    -0.241 OA
ENDBRANCH  14  15
ENDBRANCH   4   9
BRANCH   1  18
ATOM     18  N   UNL     1       5.776   6.138   0.081  0.00  0.00    -0.326 N 
ATOM     19  C   UNL     1       5.240   7.501  -0.031  0.00  0.00    +0.129 C 
BRANCH  18  20
ATOM     20  C   UNL     1       6.309   5.890   1.427  0.00  0.00    +0.140 C 
BRANCH  20  27
ATOM     21  C   UNL     1       8.761   5.006   0.181  0.00  0.00    +0.044 C 
ATOM     22  C   UNL     1       8.752   6.257   1.021  0.00  0.00    -0.046 A 
ATOM     23  C   UNL     1       9.916   6.982   1.195  0.00  0.00    +0.003 A 
ATOM     24  C   UNL     1       9.907   8.129   1.965  0.00  0.00    +0.000 A 
ATOM     25  C   UNL     1       8.734   8.553   2.561  0.00  0.00    +0.000 A 
ATOM     26  C   UNL     1       7.569   7.831   2.383  0.00  0.00    +0.005 A 
ATOM     27  C   UNL     1       7.579   6.680   1.617  0.00  0.00    -0.027 A 
ENDBRANCH  20  27
ENDBRANCH  18  20
ENDBRANCH   1  18
TORSDOF 5
