REMARK  Name = ZINC40819301
REMARK  8 active torsions:
REMARK  status: ('A' for Active; 'I' for Inactive)
REMARK    1  A    between atoms: C_1  and  C_2
REMARK    2  A    between atoms: C_2  and  C_3
REMARK    3  A    between atoms: C_2  and  C_4
REMARK    4  A    between atoms: C_4  and  C_5
REMARK    5  A    between atoms: C_5  and  C_7
REMARK    6  A    between atoms: C_5  and  N_19
REMARK    7  A    between atoms: C_20  and  C_22
REMARK    8  A    between atoms: C_27  and  N_28
REMARK                            x       y       z     vdW  Elec       q    Type
REMARK                         _______ _______ _______ _____ _____    ______ ____
ROOT
ATOM      1  C   UNL     1      -2.032  -0.026  -1.028  0.00  0.00    +0.140 C 
ENDROOT
BRANCH   1   2
ATOM      2  C   UNL     1      -3.467  -0.481  -0.973  0.00  0.00    +0.131 A 
ATOM      3  N   UNL     1      -3.797  -1.650  -1.582  0.00  0.00    -0.309 N 
ATOM      4  H   UNL     1      -3.112  -2.165  -2.037  0.00  0.00    +0.170 HD
ATOM      5  C   UNL     1      -5.073  -2.102  -1.560  0.00  0.00    +0.259 A 
ATOM      6  O   UNL     1      -5.382  -3.148  -2.102  0.00  0.00    -0.267 OA
ATOM      7  C   UNL     1      -6.070  -1.282  -0.857  0.00  0.00    +0.065 A 
ATOM      8  C   UNL     1      -7.409  -1.658  -0.776  0.00  0.00    +0.015 A 
ATOM      9  C   UNL     1      -8.301  -0.851  -0.105  0.00  0.00    +0.001 A 
ATOM     10  C   UNL     1      -7.876   0.330   0.490  0.00  0.00    +0.002 A 
ATOM     11  C   UNL     1      -6.558   0.720   0.422  0.00  0.00    +0.028 A 
ATOM     12  C   UNL     1      -5.634  -0.082  -0.253  0.00  0.00    +0.078 A 
ATOM     13  N   UNL     1      -4.324   0.261  -0.340  0.00  0.00    -0.232 NA
ENDBRANCH   1   2
BRANCH   1  14
ATOM     14  N   UNL     1      -1.985   1.435  -1.112  0.00  0.00    -0.301 N 
ATOM     15  C   UNL     1      -0.883   2.049  -1.587  0.00  0.00    +0.246 C 
ATOM     16  O   UNL     1       0.036   1.388  -2.030  0.00  0.00    -0.270 OA
ATOM     17  H   UNL     1      -2.748   1.962  -0.826  0.00  0.00    +0.150 HD
BRANCH  15  18
ATOM     18  C   UNL     1      -0.793   3.520  -1.570  0.00  0.00    +0.057 A 
ATOM     19  C   UNL     1      -1.783   4.278  -0.938  0.00  0.00    +0.015 A 
ATOM     20  C   UNL     1      -1.693   5.652  -0.926  0.00  0.00    +0.001 A 
ATOM     21  C   UNL     1      -0.625   6.290  -1.538  0.00  0.00    +0.002 A 
ATOM     22  C   UNL     1       0.360   5.556  -2.166  0.00  0.00    +0.023 A 
ATOM     23  C   UNL     1       0.290   4.168  -2.183  0.00  0.00    +0.037 A 
BRANCH  23  24
ATOM     24  N   UNL     1       1.283   3.427  -2.810  0.00  0.00    -0.357 N 
ATOM     25  H   UNL     1       1.181   2.468  -2.912  0.00  0.00    +0.142 HD
ATOM     26  H   UNL     1       2.079   3.869  -3.146  0.00  0.00    +0.142 HD
ENDBRANCH  23  24
ENDBRANCH  15  18
ENDBRANCH   1  14
BRANCH   1  27
ATOM     27  C   UNL     1      -1.301  -0.488   0.234  0.00  0.00    +0.033 C 
BRANCH  27  29
ATOM     28  C   UNL     1      -0.350  -2.497  -0.907  0.00  0.00    +0.007 C 
ATOM     29  C   UNL     1      -1.227  -2.016   0.251  0.00  0.00    -0.015 C 
ATOM     30  C   UNL     1      -0.623  -2.483   1.577  0.00  0.00    +0.007 C 
ENDBRANCH  27  29
ENDBRANCH   1  27
TORSDOF 6
