REMARK  Name = ZINC04711432
REMARK  8 active torsions:
REMARK  status: ('A' for Active; 'I' for Inactive)
REMARK    1  A    between atoms: C_1  and  C_2
REMARK    2  A    between atoms: C_4  and  C_18
REMARK    3  A    between atoms: C_5  and  C_17
REMARK    4  A    between atoms: N_6  and  C_7
REMARK    5  A    between atoms: C_10  and  S_13
REMARK    6  A    between atoms: S_13  and  N_16
REMARK    7  A    between atoms: C_19  and  C_20
REMARK    8  A    between atoms: C_19  and  C_22
REMARK                            x       y       z     vdW  Elec       q    Type
REMARK                         _______ _______ _______ _____ _____    ______ ____
ROOT
ATOM      1  C   UNL     1      -2.020   1.340   6.451  0.00  0.00    +0.064 C 
ATOM      2  C   UNL     1      -2.975   2.447   6.083  0.00  0.00    +0.022 A 
ATOM      3  C   UNL     1      -3.743   3.131   6.948  0.00  0.00    +0.031 A 
ATOM      4  C   UNL     1      -4.505   4.103   6.154  0.00  0.00    -0.003 A 
ATOM      5  C   UNL     1      -4.112   3.916   4.843  0.00  0.00    +0.028 A 
ATOM      6  N   UNL     1      -3.196   2.914   4.818  0.00  0.00    -0.317 N 
ATOM      7  C   UNL     1      -4.613   4.686   3.649  0.00  0.00    +0.064 C 
ENDROOT
BRANCH   6   8
ATOM      8  C   UNL     1      -2.565   2.433   3.664  0.00  0.00    +0.047 A 
ATOM      9  C   UNL     1      -2.788   1.129   3.241  0.00  0.00    +0.028 A 
ATOM     10  C   UNL     1      -2.164   0.658   2.102  0.00  0.00    +0.030 A 
ATOM     11  C   UNL     1      -1.319   1.483   1.383  0.00  0.00    +0.105 A 
ATOM     12  C   UNL     1      -1.090   2.780   1.805  0.00  0.00    +0.030 A 
ATOM     13  C   UNL     1      -1.715   3.259   2.940  0.00  0.00    +0.028 A 
BRANCH  11  14
ATOM     14  S   UNL     1      -0.524   0.877  -0.069  0.00  0.00    +0.056 S 
ATOM     15  O   UNL     1      -0.471  -0.537   0.057  0.00  0.00    -0.153 OA
ATOM     16  O   UNL     1       0.640   1.670  -0.255  0.00  0.00    -0.153 OA
BRANCH  14  17
ATOM     17  N   UNL     1      -1.527   1.202  -1.346  0.00  0.00    -0.204 NA
ATOM     18  H   UNL     1      -1.868   0.476  -1.891  0.00  0.00    +0.144 HD
ATOM     19  H   UNL     1      -1.773   2.118  -1.549  0.00  0.00    +0.144 HD
ENDBRANCH  14  17
ENDBRANCH  11  14
ENDBRANCH   6   8
BRANCH   4  20
ATOM     20  C   UNL     1      -5.480   5.078   6.651  0.00  0.00    +0.029 C 
ATOM     21  C   UNL     1      -5.517   5.389   7.978  0.00  0.00    +0.060 C 
BRANCH  21  22
ATOM     22  C   UNL     1      -6.594   6.258   8.505  0.00  0.00    -0.008 A 
ATOM     23  C   UNL     1      -6.680   7.590   8.101  0.00  0.00    +0.009 A 
ATOM     24  C   UNL     1      -7.689   8.393   8.592  0.00  0.00    +0.001 A 
ATOM     25  C   UNL     1      -8.608   7.882   9.491  0.00  0.00    +0.000 A 
ATOM     26  C   UNL     1      -8.525   6.563   9.900  0.00  0.00    +0.001 A 
ATOM     27  C   UNL     1      -7.524   5.748   9.412  0.00  0.00    +0.009 A 
ENDBRANCH  21  22
BRANCH  21  28
ATOM     28  C   UNL     1      -4.514   4.875   8.861  0.00  0.00    +0.100 C 
ATOM     29  N   UNL     1      -3.719   4.468   9.563  0.00  0.00    -0.191 NA
ENDBRANCH  21  28
ENDBRANCH   4  20
TORSDOF 6
