REMARK  Name = ZINC40980317
REMARK  9 active torsions:
REMARK  status: ('A' for Active; 'I' for Inactive)
REMARK    1  A    between atoms: C_1  and  C_2
REMARK    2  A    between atoms: C_2  and  O_3
REMARK    3  A    between atoms: O_3  and  C_4
REMARK    4  A    between atoms: C_4  and  C_6
REMARK    5  A    between atoms: C_7  and  C_23
REMARK    6  A    between atoms: C_14  and  C_16
REMARK    7  A    between atoms: C_23  and  S_24
REMARK    8  A    between atoms: S_24  and  C_25
REMARK    9  A    between atoms: C_28  and  C_30
REMARK                            x       y       z     vdW  Elec       q    Type
REMARK                         _______ _______ _______ _____ _____    ______ ____
ROOT
ATOM      1  C   UNL     1       1.340  -2.337  -2.521  0.00  0.00    +0.083 C 
ATOM      2  C   UNL     1       1.597  -3.654  -2.557  0.00  0.00    +0.033 C 
ATOM      3  N   UNL     1       2.295  -4.237  -3.586  0.00  0.00    -0.285 N 
ATOM      4  C   UNL     1       2.510  -3.473  -4.724  0.00  0.00    +0.240 A 
ATOM      5  N   UNL     1       2.936  -3.807  -5.908  0.00  0.00    -0.092 NA
ATOM      6  N   UNL     1       2.982  -2.772  -6.675  0.00  0.00    -0.021 NA
ATOM      7  N   UNL     1       2.594  -1.717  -6.033  0.00  0.00    -0.042 NA
ATOM      8  N   UNL     1       2.277  -2.135  -4.742  0.00  0.00    -0.201 N 
ATOM      9  C   UNL     1       1.792  -1.381  -3.593  0.00  0.00    +0.181 C 
ATOM     10  H   UNL     1       2.624  -5.147  -3.520  0.00  0.00    +0.155 HD
ENDROOT
BRANCH   9  11
ATOM     11  C   UNL     1       2.905  -0.517  -3.059  0.00  0.00    -0.017 A 
ATOM     12  C   UNL     1       4.080  -1.097  -2.618  0.00  0.00    +0.006 A 
ATOM     13  C   UNL     1       5.101  -0.305  -2.128  0.00  0.00    +0.002 A 
ATOM     14  C   UNL     1       4.948   1.068  -2.078  0.00  0.00    +0.020 A 
ATOM     15  C   UNL     1       3.772   1.649  -2.518  0.00  0.00    +0.041 A 
ATOM     16  C   UNL     1       2.753   0.856  -3.014  0.00  0.00    +0.026 A 
ATOM     17 CL   UNL     1       3.579   3.373  -2.455  0.00  0.00    -0.084 Cl
ENDBRANCH   9  11
BRANCH   1  18
ATOM     18  C   UNL     1       0.604  -1.825  -1.429  0.00  0.00    +0.339 C 
ATOM     19  O   UNL     1      -0.584  -1.592  -1.551  0.00  0.00    -0.245 OA
BRANCH  18  20
ATOM     20  O   UNL     1       1.220  -1.595  -0.250  0.00  0.00    -0.462 OA
BRANCH  20  22
ATOM     21  C   UNL     1       1.280  -0.882   2.058  0.00  0.00    +0.048 C 
ATOM     22  C   UNL     1       0.415  -1.077   0.811  0.00  0.00    +0.229 C 
ENDBRANCH  20  22
ENDBRANCH  18  20
ENDBRANCH   1  18
BRANCH   2  23
ATOM     23  C   UNL     1       1.105  -4.523  -1.429  0.00  0.00    +0.127 C 
BRANCH  23  24
ATOM     24  S   UNL     1      -0.327  -5.486  -1.988  0.00  0.00    -0.091 S 
BRANCH  24  25
ATOM     25  C   UNL     1      -0.779  -6.437  -0.575  0.00  0.00    +0.159 A 
ATOM     26  N   UNL     1      -0.239  -6.473   0.638  0.00  0.00    -0.134 NA
ATOM     27  N   UNL     1      -0.693  -7.221   1.546  0.00  0.00    -0.140 NA
ATOM     28  C   UNL     1      -1.736  -8.016   1.345  0.00  0.00    +0.133 A 
ATOM     29  S   UNL     1      -2.103  -7.624  -0.363  0.00  0.00    -0.039 S 
BRANCH  28  30
ATOM     30  C   UNL     1      -2.407  -8.954   2.269  0.00  0.00    +0.009 A 
ATOM     31  C   UNL     1      -3.500  -9.706   1.834  0.00  0.00    +0.010 A 
ATOM     32  C   UNL     1      -4.122 -10.580   2.701  0.00  0.00    +0.001 A 
ATOM     33  C   UNL     1      -3.664 -10.712   4.000  0.00  0.00    +0.000 A 
ATOM     34  C   UNL     1      -2.582  -9.970   4.439  0.00  0.00    +0.001 A 
ATOM     35  C   UNL     1      -1.947  -9.097   3.579  0.00  0.00    +0.010 A 
ENDBRANCH  28  30
ENDBRANCH  24  25
ENDBRANCH  23  24
ENDBRANCH   2  23
TORSDOF 8
