REMARK  Name = ZINC50441396
REMARK  4 active torsions:
REMARK  status: ('A' for Active; 'I' for Inactive)
REMARK    1  A    between atoms: C_4  and  O_10
REMARK    2  A    between atoms: C_6  and  C_7
REMARK    3  A    between atoms: O_10  and  C_11
REMARK    4  A    between atoms: C_14  and  N_18
REMARK                            x       y       z     vdW  Elec       q    Type
REMARK                         _______ _______ _______ _____ _____    ______ ____
ROOT
ATOM      1  C   UNL     1      -0.017   1.395   0.010  0.00  0.00    +0.031 A 
ATOM      2  C   UNL     1       1.179   2.083   0.002  0.00  0.00    +0.115 A 
ATOM      3  N   UNL     1       2.332   1.442  -0.013  0.00  0.00    -0.221 NA
ATOM      4  C   UNL     1       2.397   0.121  -0.021  0.00  0.00    +0.221 A 
ATOM      5  C   UNL     1       1.240  -0.647  -0.013  0.00  0.00    +0.079 A 
ATOM      6  C   UNL     1       0.002  -0.004   0.002  0.00  0.00    +0.019 A 
ENDROOT
BRANCH   6   7
ATOM      7  C   UNL     1      -1.260  -0.782   0.010  0.00  0.00    +0.094 C 
ATOM      8  N   UNL     1      -2.344  -0.285   0.600  0.00  0.00    -0.387 N 
ATOM      9  N   UNL     1      -1.308  -1.978  -0.572  0.00  0.00    -0.345 N 
ATOM     10  H   UNL     1      -2.309   0.586   1.024  0.00  0.00    +0.157 HD
ATOM     11  H   UNL     1      -0.517  -2.340  -1.002  0.00  0.00    +0.144 HD
ATOM     12  H   UNL     1      -2.133  -2.487  -0.566  0.00  0.00    +0.144 HD
ATOM     13  H   UNL     1      -3.169  -0.795   0.605  0.00  0.00    +0.157 HD
ENDBRANCH   6   7
BRANCH   4  14
ATOM     14  O   UNL     1       3.608  -0.490  -0.036  0.00  0.00    -0.436 OA
BRANCH  14  15
ATOM     15  C   UNL     1       4.719   0.294  -0.044  0.00  0.00    +0.158 A 
ATOM     16  C   UNL     1       5.271   0.706  -1.248  0.00  0.00    +0.063 A 
ATOM     17  C   UNL     1       6.400   1.503  -1.253  0.00  0.00    +0.051 A 
ATOM     18  C   UNL     1       6.980   1.889  -0.059  0.00  0.00    +0.129 A 
ATOM     19  C   UNL     1       6.432   1.480   1.143  0.00  0.00    +0.051 A 
ATOM     20  C   UNL     1       5.299   0.688   1.154  0.00  0.00    +0.063 A 
ATOM     21 BR   UNL     1       4.545   0.136   2.798  0.00  0.00    -0.046 Br
ATOM     22 BR   UNL     1       4.480   0.177  -2.882  0.00  0.00    -0.046 Br
BRANCH  18  23
ATOM     23  N   UNL     1       8.189   2.743  -0.066  0.00  0.00    +0.056 N 
ATOM     24  O   UNL     1       8.669   3.101  -1.117  0.00  0.00    -0.126 OA
ATOM     25  O   UNL     1       8.697   3.081   0.977  0.00  0.00    -0.126 OA
ENDBRANCH  18  23
ENDBRANCH  14  15
ENDBRANCH   4  14
TORSDOF 4
