REMARK  Name = ZINC57501423
REMARK  6 active torsions:
REMARK  status: ('A' for Active; 'I' for Inactive)
REMARK    1  A    between atoms: C_1  and  C_2
REMARK    2  A    between atoms: C_8  and  N_10
REMARK    3  A    between atoms: C_14  and  C_16
REMARK    4  A    between atoms: C_16  and  N_17
REMARK    5  A    between atoms: C_20  and  C_24
REMARK    6  A    between atoms: C_20  and  C_25
REMARK                            x       y       z     vdW  Elec       q    Type
REMARK                         _______ _______ _______ _____ _____    ______ ____
ROOT
ATOM      1  N   UNL     1       0.056  -0.038   2.447  0.00  0.00    -0.296 N 
ATOM      2  C   UNL     1       0.738   0.093   3.602  0.00  0.00    +0.306 C 
ATOM      3  O   UNL     1       1.921  -0.180   3.644  0.00  0.00    -0.252 OA
ATOM      4  N   UNL     1       0.107   0.528   4.711  0.00  0.00    -0.239 N 
ATOM      5  C   UNL     1       0.789   0.659   5.866  0.00  0.00    +0.238 C 
ATOM      6  O   UNL     1       1.969   0.387   5.908  0.00  0.00    -0.274 OA
ATOM      7  H   UNL     1      -0.888   0.180   2.413  0.00  0.00    +0.151 HD
ATOM      8  H   UNL     1      -0.838   0.746   4.678  0.00  0.00    +0.159 HD
ENDROOT
BRANCH   1  15
ATOM      9  C   UNL     1      -0.019   1.526   0.010  0.00  0.00    +0.009 C 
ATOM     10  C   UNL     1       0.002  -0.004   0.002  0.00  0.00    +0.006 C 
ATOM     11  C   UNL     1       0.718  -0.497  -1.257  0.00  0.00    +0.005 C 
ATOM     12  C   UNL     1       0.739  -2.027  -1.265  0.00  0.00    +0.000 C 
ATOM     13  C   UNL     1       1.479  -2.534  -0.026  0.00  0.00    +0.002 C 
ATOM     14  C   UNL     1       0.763  -2.041   1.233  0.00  0.00    +0.022 C 
ATOM     15  C   UNL     1       0.742  -0.511   1.242  0.00  0.00    +0.077 C 
ENDBRANCH   1  15
BRANCH   5  16
ATOM     16  C   UNL     1       0.083   1.145   7.106  0.00  0.00    +0.214 C 
BRANCH  16  17
ATOM     17  N   UNL     1       1.035   1.202   8.219  0.00  0.00    -0.215 N 
ATOM     18  C   UNL     1       1.278   0.177   9.059  0.00  0.00    +0.246 C 
ATOM     19  O   UNL     1       0.770  -0.924   9.038  0.00  0.00    -0.273 OA
ATOM     20  C   UNL     1       2.319   0.686  10.036  0.00  0.00    +0.107 C 
ATOM     21  N   UNL     1       2.565   2.068   9.591  0.00  0.00    -0.285 N 
ATOM     22  C   UNL     1       1.774   2.275   8.523  0.00  0.00    +0.310 C 
ATOM     23  O   UNL     1       1.732   3.320   7.904  0.00  0.00    -0.252 OA
ATOM     24  C   UNL     1       3.599  -0.146   9.941  0.00  0.00    +0.041 C 
ATOM     25  C   UNL     1       1.770   0.670  11.464  0.00  0.00    +0.041 C 
ATOM     26  H   UNL     1       3.179   2.705   9.988  0.00  0.00    +0.151 HD
ENDBRANCH  16  17
ENDBRANCH   5  16
TORSDOF 3
