REMARK  Name = ZINC40019652
REMARK  16 active torsions:
REMARK  status: ('A' for Active; 'I' for Inactive)
REMARK    1  A    between atoms: C_1  and  C_2
REMARK    2  A    between atoms: C_2  and  C_3
REMARK    3  A    between atoms: C_3  and  C_4
REMARK    4  A    between atoms: C_4  and  N_5
REMARK    5  A    between atoms: N_5  and  C_6
REMARK    6  A    between atoms: N_5  and  C_10
REMARK    7  A    between atoms: C_6  and  C_7
REMARK    8  A    between atoms: C_7  and  C_8
REMARK    9  A    between atoms: C_8  and  C_9
REMARK   10  A    between atoms: C_10  and  C_11
REMARK   11  A    between atoms: C_11  and  C_12
REMARK   12  A    between atoms: C_12  and  N_13
REMARK   13  A    between atoms: C_14  and  C_33
REMARK   14  A    between atoms: C_16  and  C_21
REMARK   15  A    between atoms: C_21  and  C_23
REMARK   16  A    between atoms: C_36  and  O_39
REMARK                            x       y       z     vdW  Elec       q    Type
REMARK                         _______ _______ _______ _____ _____    ______ ____
ROOT
ATOM      1  N   UNL     1       4.555  -6.367  -0.425  0.00  0.00    -0.284 N 
ATOM      2  C   UNL     1       4.335  -6.634  -1.851  0.00  0.00    +0.145 C 
ATOM      3  C   UNL     1       5.683  -7.008  -2.423  0.00  0.00    +0.076 C 
ATOM      4  C   UNL     1       6.569  -6.953  -1.401  0.00  0.00    +0.249 C 
ATOM      5  C   UNL     1       5.863  -6.550  -0.167  0.00  0.00    +0.288 C 
ATOM      6  O   UNL     1       6.386  -6.406   0.920  0.00  0.00    -0.266 OA
ATOM      7  O   UNL     1       7.892  -7.221  -1.496  0.00  0.00    -0.282 OA
ENDROOT
BRANCH   2   8
ATOM      8  C   UNL     1       3.806  -5.399  -2.534  0.00  0.00    -0.022 A 
ATOM      9  C   UNL     1       4.449  -4.186  -2.361  0.00  0.00    +0.009 A 
ATOM     10  C   UNL     1       3.966  -3.053  -2.985  0.00  0.00    +0.046 A 
ATOM     11  C   UNL     1       2.836  -3.131  -3.786  0.00  0.00    +0.117 A 
ATOM     12  C   UNL     1       2.194  -4.348  -3.959  0.00  0.00    +0.046 A 
ATOM     13  C   UNL     1       2.683  -5.481  -3.337  0.00  0.00    +0.009 A 
BRANCH  11  14
ATOM     14  O   UNL     1       2.359  -2.017  -4.401  0.00  0.00    -0.507 OA
ATOM     15  H   UNL     1       2.730  -1.863  -5.281  0.00  0.00    +0.292 HD
ENDBRANCH  11  14
ENDBRANCH   2   8
BRANCH   3  16
ATOM     16  C   UNL     1       5.974  -7.364  -3.815  0.00  0.00    +0.195 C 
ATOM     17  O   UNL     1       6.675  -6.636  -4.495  0.00  0.00    -0.287 OA
BRANCH  16  18
ATOM     18  C   UNL     1       5.418  -8.602  -4.393  0.00  0.00    +0.026 A 
ATOM     19  C   UNL     1       4.644  -9.459  -3.603  0.00  0.00    +0.015 A 
ATOM     20  C   UNL     1       4.127 -10.614  -4.145  0.00  0.00    +0.050 A 
ATOM     21  C   UNL     1       4.370 -10.934  -5.476  0.00  0.00    +0.162 A 
ATOM     22  C   UNL     1       5.138 -10.084  -6.269  0.00  0.00    +0.163 A 
ATOM     23  C   UNL     1       5.657  -8.921  -5.733  0.00  0.00    +0.061 A 
ATOM     24  O   UNL     1       5.378 -10.379  -7.576  0.00  0.00    -0.485 OA
ATOM     25  C   UNL     1       5.150 -11.733  -7.982  0.00  0.00    +0.270 C 
ATOM     26  C   UNL     1       3.797 -12.183  -7.415  0.00  0.00    +0.270 C 
ATOM     27  O   UNL     1       3.853 -12.082  -5.988  0.00  0.00    -0.485 OA
ENDBRANCH  16  18
ENDBRANCH   3  16
BRANCH   1  28
ATOM     28  C   UNL     1       3.532  -5.968   0.545  0.00  0.00    +0.107 C 
BRANCH  28  29
ATOM     29  C   UNL     1       3.430  -4.441   0.579  0.00  0.00    +0.000 C 
BRANCH  29  30
ATOM     30  C   UNL     1       2.362  -4.024   1.592  0.00  0.00    -0.077 C 
BRANCH  30  31
ATOM     31  N   UNL     1       2.264  -2.559   1.624  0.00  0.00    +0.380 N 
ATOM     32  H   UNL     1       3.174  -2.165   1.812  0.00  0.00    -0.082 HD
BRANCH  31  33
ATOM     33  C   UNL     1       1.779  -2.072   0.325  0.00  0.00    -0.079 C 
BRANCH  33  34
ATOM     34  C   UNL     1       1.811  -0.542   0.310  0.00  0.00    -0.019 C 
BRANCH  34  36
ATOM     35  C   UNL     1       1.463   1.492  -1.099  0.00  0.00    +0.004 C 
ATOM     36  C   UNL     1       1.432  -0.038  -1.084  0.00  0.00    -0.005 C 
ENDBRANCH  34  36
ENDBRANCH  33  34
ENDBRANCH  31  33
BRANCH  31  37
ATOM     37  C   UNL     1       1.327  -2.154   2.680  0.00  0.00    -0.079 C 
BRANCH  37  38
ATOM     38  C   UNL     1       1.901  -2.534   4.045  0.00  0.00    -0.019 C 
BRANCH  38  39
ATOM     39  C   UNL     1       0.989  -1.997   5.150  0.00  0.00    -0.005 C 
ATOM     40  C   UNL     1       1.564  -2.378   6.516  0.00  0.00    +0.004 C 
ENDBRANCH  38  39
ENDBRANCH  37  38
ENDBRANCH  31  37
ENDBRANCH  30  31
ENDBRANCH  29  30
ENDBRANCH  28  29
ENDBRANCH   1  28
TORSDOF 14
