REMARK  Name = ZINC63229085
REMARK  12 active torsions:
REMARK  status: ('A' for Active; 'I' for Inactive)
REMARK    1  A    between atoms: C_1  and  C_2
REMARK    2  A    between atoms: C_2  and  C_3
REMARK    3  A    between atoms: C_3  and  O_4
REMARK    4  A    between atoms: O_4  and  C_5
REMARK    5  A    between atoms: C_8  and  C_13
REMARK    6  A    between atoms: C_10  and  O_11
REMARK    7  A    between atoms: O_11  and  C_12
REMARK    8  A    between atoms: C_25  and  C_29
REMARK    9  A    between atoms: C_33  and  O_37
REMARK   10  A    between atoms: C_34  and  O_35
REMARK   11  A    between atoms: O_35  and  C_36
REMARK   12  A    between atoms: O_37  and  C_38
REMARK                            x       y       z     vdW  Elec       q    Type
REMARK                         _______ _______ _______ _____ _____    ______ ____
ROOT
ATOM      1  C   UNL     1       3.349  -4.483   5.547  0.00  0.00    +0.111 C 
ATOM      2  C   UNL     1       4.852  -4.564   5.271  0.00  0.00    +0.128 C 
ATOM      3  C   UNL     1       5.363  -3.128   5.269  0.00  0.00    -0.028 C 
ATOM      4  C   UNL     1       5.998  -2.957   4.118  0.00  0.00    -0.000 A 
ATOM      5  C   UNL     1       6.767  -1.823   3.580  0.00  0.00    +0.010 A 
ATOM      6  C   UNL     1       7.282  -1.985   2.333  0.00  0.00    +0.001 A 
ATOM      7  C   UNL     1       7.110  -3.148   1.575  0.00  0.00    +0.002 A 
ATOM      8  C   UNL     1       6.423  -4.241   1.993  0.00  0.00    +0.026 A 
ATOM      9  C   UNL     1       5.840  -4.193   3.292  0.00  0.00    +0.043 A 
ATOM     10  N   UNL     1       5.153  -5.109   3.948  0.00  0.00    -0.376 N 
ATOM     11  C   UNL     1       5.039  -2.171   6.391  0.00  0.00    +0.065 C 
ATOM     12  C   UNL     1       3.523  -2.291   6.634  0.00  0.00    +0.094 C 
ATOM     13  N   UNL     1       3.145  -3.701   6.777  0.00  0.00    -0.307 NA
ATOM     14  H   UNL     1       2.196  -3.790   7.108  0.00  0.00    +0.123 HD
ATOM     15  H   UNL     1       4.888  -5.982   3.620  0.00  0.00    +0.160 HD
ENDROOT
BRANCH   1  19
ATOM     16  C   UNL     1       1.388  -2.555   2.272  0.00  0.00    +0.162 A 
ATOM     17  C   UNL     1       2.456  -1.939   2.904  0.00  0.00    +0.050 A 
ATOM     18  C   UNL     1       3.087  -2.564   3.963  0.00  0.00    +0.009 A 
ATOM     19  C   UNL     1       2.656  -3.805   4.393  0.00  0.00    -0.024 A 
ATOM     20  C   UNL     1       1.592  -4.427   3.766  0.00  0.00    +0.054 A 
ATOM     21  C   UNL     1       0.951  -3.802   2.708  0.00  0.00    +0.162 A 
BRANCH  21  22
ATOM     22  O   UNL     1      -0.100  -4.409   2.095  0.00  0.00    -0.491 OA
ATOM     23  C   UNL     1      -0.494  -5.688   2.596  0.00  0.00    +0.277 C 
ENDBRANCH  21  22
BRANCH  16  24
ATOM     24  O   UNL     1       0.765  -1.941   1.231  0.00  0.00    -0.488 OA
BRANCH  24  25
ATOM     25  C   UNL     1       1.268  -0.663   0.837  0.00  0.00    +0.229 C 
BRANCH  25  27
ATOM     26  C   UNL     1       0.986   1.236  -0.762  0.00  0.00    +0.007 C 
ATOM     27  C   UNL     1       0.448  -0.133  -0.341  0.00  0.00    +0.038 C 
ENDBRANCH  25  27
ENDBRANCH  24  25
ENDBRANCH  16  24
ENDBRANCH   1  19
BRANCH  11  28
ATOM     28  C   UNL     1       5.798  -2.555   7.635  0.00  0.00    +0.006 A 
ATOM     29  C   UNL     1       5.610  -3.802   8.202  0.00  0.00    +0.008 A 
ATOM     30  C   UNL     1       6.304  -4.158   9.343  0.00  0.00    +0.004 A 
ATOM     31  C   UNL     1       7.189  -3.268   9.923  0.00  0.00    +0.049 A 
ATOM     32  C   UNL     1       7.382  -2.016   9.360  0.00  0.00    +0.162 A 
ATOM     33  C   UNL     1       6.687  -1.661   8.208  0.00  0.00    +0.165 A 
BRANCH  33  34
ATOM     34  O   UNL     1       6.877  -0.436   7.648  0.00  0.00    -0.491 OA
ATOM     35  C   UNL     1       6.029   0.622   8.100  0.00  0.00    +0.277 C 
ENDBRANCH  33  34
BRANCH  32  36
ATOM     36  O   UNL     1       8.252  -1.140   9.930  0.00  0.00    -0.491 OA
ATOM     37  C   UNL     1       8.934  -1.575  11.107  0.00  0.00    +0.277 C 
ENDBRANCH  32  36
ENDBRANCH  11  28
TORSDOF 8
