REMARK  Name = ZINC01674728
REMARK  3 active torsions:
REMARK  status: ('A' for Active; 'I' for Inactive)
REMARK    1  A    between atoms: N_18  and  N_19
REMARK    2  A    between atoms: N_19  and  C_20
REMARK    3  A    between atoms: C_20  and  N_22
REMARK                            x       y       z     vdW  Elec       q    Type
REMARK                         _______ _______ _______ _____ _____    ______ ____
ROOT
ATOM      1  C   UNL     1      -0.116   1.035   0.489  0.00  0.00    +0.001 A 
ATOM      2  C   UNL     1       1.024   1.707   0.900  0.00  0.00    +0.001 A 
ATOM      3  C   UNL     1       2.272   1.154   0.697  0.00  0.00    +0.011 A 
ATOM      4  C   UNL     1       2.388  -0.087   0.077  0.00  0.00    +0.010 A 
ATOM      5  C   UNL     1       1.233  -0.772  -0.340  0.00  0.00    -0.005 A 
ATOM      6  C   UNL     1      -0.019  -0.196  -0.127  0.00  0.00    +0.009 A 
ATOM      7  C   UNL     1       1.639  -2.050  -0.962  0.00  0.00    +0.033 A 
ATOM      8  C   UNL     1       3.041  -2.144  -0.923  0.00  0.00    +0.051 A 
ATOM      9  C   UNL     1       3.677  -3.267  -1.450  0.00  0.00    +0.171 A 
ATOM     10  C   UNL     1       2.926  -4.287  -2.011  0.00  0.00    +0.197 A 
ATOM     11  C   UNL     1       1.542  -4.195  -2.051  0.00  0.00    +0.197 A 
ATOM     12  C   UNL     1       0.897  -3.086  -1.531  0.00  0.00    +0.170 A 
ATOM     13  F   UNL     1      -0.451  -3.007  -1.574  0.00  0.00    -0.202 F 
ATOM     14  F   UNL     1       0.819  -5.196  -2.601  0.00  0.00    -0.199 F 
ATOM     15  F   UNL     1       3.543  -5.374  -2.522  0.00  0.00    -0.199 F 
ATOM     16  F   UNL     1       5.025  -3.361  -1.415  0.00  0.00    -0.202 F 
ATOM     17  C   UNL     1       3.559  -0.921  -0.273  0.00  0.00    +0.100 C 
ATOM     18  N   UNL     1       4.815  -0.631  -0.049  0.00  0.00    -0.180 NA
ENDROOT
BRANCH  18  19
ATOM     19  N   UNL     1       5.765  -1.656   0.042  0.00  0.00    -0.218 N 
ATOM     20  H   UNL     1       5.480  -2.584   0.040  0.00  0.00    +0.176 HD
BRANCH  19  21
ATOM     21  C   UNL     1       7.075  -1.355   0.132  0.00  0.00    +0.147 C 
ATOM     22  S   UNL     1       8.237  -2.608   0.243  0.00  0.00    -0.017 S 
BRANCH  21  23
ATOM     23  N   UNL     1       7.472  -0.067   0.135  0.00  0.00    -0.339 N 
ATOM     24  H   UNL     1       6.814   0.643   0.072  0.00  0.00    +0.144 HD
ATOM     25  H   UNL     1       8.415   0.151   0.200  0.00  0.00    +0.144 HD
ENDBRANCH  21  23
ENDBRANCH  19  21
ENDBRANCH  18  19
TORSDOF 3
