REMARK  Name = ZINC00673604
REMARK  13 active torsions:
REMARK  status: ('A' for Active; 'I' for Inactive)
REMARK    1  A    between atoms: C_1  and  C_2
REMARK    2  A    between atoms: C_2  and  O_3
REMARK    3  A    between atoms: O_3  and  C_4
REMARK    4  A    between atoms: C_4  and  C_6
REMARK    5  A    between atoms: C_7  and  C_33
REMARK    6  A    between atoms: C_9  and  N_32
REMARK    7  A    between atoms: C_10  and  C_30
REMARK    8  A    between atoms: C_11  and  C_13
REMARK    9  A    between atoms: C_16  and  O_21
REMARK   10  A    between atoms: C_17  and  O_19
REMARK   11  A    between atoms: O_19  and  C_20
REMARK   12  A    between atoms: O_21  and  C_22
REMARK   13  A    between atoms: C_22  and  C_23
REMARK                            x       y       z     vdW  Elec       q    Type
REMARK                         _______ _______ _______ _____ _____    ______ ____
ROOT
ATOM      1  C   UNL     1       2.532  -8.814  -1.510  0.00  0.00    +0.087 C 
ATOM      2  C   UNL     1       2.486  -9.462  -0.341  0.00  0.00    +0.115 C 
ATOM      3  O   UNL     1       1.342  -9.634   0.337  0.00  0.00    -0.445 OA
ATOM      4  C   UNL     1       0.168  -9.501  -0.305  0.00  0.00    +0.198 C 
ATOM      5  C   UNL     1       0.071  -8.846  -1.488  0.00  0.00    +0.098 C 
ATOM      6  C   UNL     1       1.288  -8.240  -2.133  0.00  0.00    +0.105 C 
ATOM      7  C   UNL     1       3.763 -10.018   0.234  0.00  0.00    +0.087 C 
ENDROOT
BRANCH   6   8
ATOM      8  C   UNL     1       1.270  -6.746  -1.931  0.00  0.00    -0.031 A 
ATOM      9  C   UNL     1       1.276  -6.223  -0.652  0.00  0.00    +0.008 A 
ATOM     10  C   UNL     1       1.265  -4.854  -0.462  0.00  0.00    +0.050 A 
ATOM     11  C   UNL     1       1.238  -4.003  -1.555  0.00  0.00    +0.162 A 
ATOM     12  C   UNL     1       1.233  -4.530  -2.843  0.00  0.00    +0.162 A 
ATOM     13  C   UNL     1       1.249  -5.903  -3.026  0.00  0.00    +0.054 A 
BRANCH  12  14
ATOM     14  O   UNL     1       1.212  -3.699  -3.919  0.00  0.00    -0.491 OA
ATOM     15  C   UNL     1       1.208  -4.310  -5.211  0.00  0.00    +0.277 C 
ENDBRANCH  12  14
BRANCH  11  16
ATOM     16  O   UNL     1       1.222  -2.655  -1.370  0.00  0.00    -0.484 OA
BRANCH  16  17
ATOM     17  C   UNL     1       1.228  -2.186  -0.020  0.00  0.00    +0.264 C 
BRANCH  17  18
ATOM     18  C   UNL     1       1.208  -0.679  -0.013  0.00  0.00    -0.010 A 
ATOM     19  C   UNL     1       0.002  -0.004   0.002  0.00  0.00    +0.008 A 
ATOM     20  C   UNL     1      -0.017   1.378   0.010  0.00  0.00    +0.020 A 
ATOM     21  C   UNL     1       1.172   2.086   0.002  0.00  0.00    +0.041 A 
ATOM     22  C   UNL     1       2.379   1.409  -0.013  0.00  0.00    +0.020 A 
ATOM     23  C   UNL     1       2.397   0.027  -0.020  0.00  0.00    +0.008 A 
ATOM     24 CL   UNL     1       1.149   3.821   0.011  0.00  0.00    -0.084 Cl
ENDBRANCH  17  18
ENDBRANCH  16  17
ENDBRANCH  11  16
ENDBRANCH   6   8
BRANCH   4  25
ATOM     25  N   UNL     1      -0.963 -10.044   0.252  0.00  0.00    -0.328 N 
ATOM     26  H   UNL     1      -1.817  -9.955  -0.200  0.00  0.00    +0.145 HD
ATOM     27  H   UNL     1      -0.909 -10.515   1.098  0.00  0.00    +0.145 HD
ENDBRANCH   4  25
BRANCH   1  28
ATOM     28  C   UNL     1       3.774  -8.666  -2.174  0.00  0.00    +0.339 C 
ATOM     29  O   UNL     1       4.786  -9.126  -1.680  0.00  0.00    -0.245 OA
BRANCH  28  30
ATOM     30  O   UNL     1       3.836  -8.015  -3.354  0.00  0.00    -0.462 OA
BRANCH  30  32
ATOM     31  C   UNL     1       4.992  -7.139  -5.287  0.00  0.00    +0.048 C 
ATOM     32  C   UNL     1       5.121  -7.903  -3.967  0.00  0.00    +0.229 C 
ENDBRANCH  30  32
ENDBRANCH  28  30
ENDBRANCH   1  28
BRANCH   5  33
ATOM     33  C   UNL     1      -1.204  -8.729  -2.130  0.00  0.00    +0.101 C 
ATOM     34  N   UNL     1      -2.215  -8.637  -2.639  0.00  0.00    -0.191 NA
ENDBRANCH   5  33
TORSDOF 10
