REMARK  Name = ZINC20528387
REMARK  8 active torsions:
REMARK  status: ('A' for Active; 'I' for Inactive)
REMARK    1  A    between atoms: C_1  and  C_2
REMARK    2  A    between atoms: C_7  and  C_8
REMARK    3  A    between atoms: C_8  and  S_9
REMARK    4  A    between atoms: S_9  and  C_10
REMARK    5  A    between atoms: N_14  and  N_15
REMARK    6  A    between atoms: N_16  and  N_17
REMARK    7  A    between atoms: C_18  and  C_19
REMARK    8  A    between atoms: C_22  and  O_25
REMARK                            x       y       z     vdW  Elec       q    Type
REMARK                         _______ _______ _______ _____ _____    ______ ____
ROOT
ATOM      1  C   UNL     1      -1.514   1.192   4.568  0.00  0.00    +0.210 A 
ATOM      2  N   UNL     1      -0.383   1.538   5.136  0.00  0.00    -0.119 NA
ATOM      3  N   UNL     1      -0.685   2.211   6.327  0.00  0.00    -0.109 NA
ATOM      4  C   UNL     1      -1.990   2.255   6.448  0.00  0.00    +0.254 A 
ATOM      5  N   UNL     1      -2.536   1.631   5.361  0.00  0.00    -0.211 N 
ATOM      6  N   UNL     1      -2.692   2.836   7.493  0.00  0.00    -0.204 N 
ATOM      7  H   UNL     1      -3.792   2.816   7.495  0.00  0.00    +0.177 HD
ENDROOT
BRANCH   5   8
ATOM      8  N   UNL     1      -3.869   1.472   5.113  0.00  0.00    -0.294 N 
ATOM      9  H   UNL     1      -4.612   1.866   5.822  0.00  0.00    +0.163 HD
ATOM     10  H   UNL     1      -4.201   0.948   4.204  0.00  0.00    +0.163 HD
ENDBRANCH   5   8
BRANCH   6  11
ATOM     11  N   UNL     1      -2.002   3.450   8.546  0.00  0.00    -0.188 NA
ATOM     12  C   UNL     1      -2.660   3.994   9.524  0.00  0.00    +0.138 C 
BRANCH  12  13
ATOM     13  C   UNL     1      -1.933   4.640  10.633  0.00  0.00    -0.005 A 
ATOM     14  C   UNL     1      -0.535   4.661  10.636  0.00  0.00    +0.013 A 
ATOM     15  C   UNL     1       0.140   5.270  11.672  0.00  0.00    +0.046 A 
ATOM     16  C   UNL     1      -0.566   5.852  12.717  0.00  0.00    +0.117 A 
ATOM     17  C   UNL     1      -1.955   5.828  12.720  0.00  0.00    +0.046 A 
ATOM     18  C   UNL     1      -2.639   5.226  11.686  0.00  0.00    +0.013 A 
BRANCH  16  19
ATOM     19  O   UNL     1       0.104   6.446  13.738  0.00  0.00    -0.507 OA
ATOM     20  H   UNL     1      -0.454   6.908  14.567  0.00  0.00    +0.292 HD
ENDBRANCH  16  19
ENDBRANCH  12  13
ENDBRANCH   6  11
BRANCH   1  21
ATOM     21  S   UNL     1      -1.684   0.321   3.046  0.00  0.00    -0.080 S 
BRANCH  21  22
ATOM     22  C   UNL     1       0.025   0.045   2.504  0.00  0.00    +0.112 C 
BRANCH  22  29
ATOM     23  C   UNL     1      -0.018   1.503   0.010  0.00  0.00    +0.044 C 
ATOM     24  C   UNL     1       0.002  -0.004   0.002  0.00  0.00    -0.046 A 
ATOM     25  C   UNL     1      -0.006  -0.689  -1.199  0.00  0.00    +0.003 A 
ATOM     26  C   UNL     1       0.018  -2.071  -1.207  0.00  0.00    +0.000 A 
ATOM     27  C   UNL     1       0.039  -2.768  -0.013  0.00  0.00    +0.000 A 
ATOM     28  C   UNL     1       0.041  -2.084   1.188  0.00  0.00    +0.005 A 
ATOM     29  C   UNL     1       0.023  -0.702   1.195  0.00  0.00    -0.034 A 
ENDBRANCH  22  29
ENDBRANCH  21  22
ENDBRANCH   1  21
TORSDOF 7
