REMARK  Name = ZINC38548204
REMARK  5 active torsions:
REMARK  status: ('A' for Active; 'I' for Inactive)
REMARK    1  A    between atoms: C_1  and  C_2
REMARK    2  A    between atoms: C_2  and  C_3
REMARK    3  A    between atoms: C_3  and  C_4
REMARK    4  A    between atoms: C_3  and  N_6
REMARK    5  A    between atoms: C_4  and  C_5
REMARK                            x       y       z     vdW  Elec       q    Type
REMARK                         _______ _______ _______ _____ _____    ______ ____
ROOT
ATOM      1  N   UNL     1       2.148  -0.108   1.172  0.00  0.00    -0.296 N 
ATOM      2  C   UNL     1       2.869   0.026   2.303  0.00  0.00    +0.303 C 
ATOM      3  O   UNL     1       2.329  -0.101   3.385  0.00  0.00    -0.253 OA
ATOM      4  N   UNL     1       4.186   0.302   2.234  0.00  0.00    -0.283 N 
ATOM      5  C   UNL     1       4.826   0.577   0.941  0.00  0.00    +0.128 C 
ATOM      6  C   UNL     1       5.531   1.937   1.022  0.00  0.00    +0.126 C 
ATOM      7  N   UNL     1       6.353   1.969   2.239  0.00  0.00    -0.307 N 
ATOM      8  C   UNL     1       5.712   1.694   3.533  0.00  0.00    +0.126 C 
ATOM      9  C   UNL     1       5.007   0.339   3.453  0.00  0.00    +0.128 C 
ATOM     10  C   UNL     1       7.702   2.251   2.169  0.00  0.00    +0.162 A 
ATOM     11  N   UNL     1       8.432   2.524   1.112  0.00  0.00    -0.225 NA
ATOM     12  C   UNL     1       9.756   2.784   1.193  0.00  0.00    +0.080 A 
ATOM     13  C   UNL     1      10.651   3.088   0.142  0.00  0.00    +0.030 A 
ATOM     14  C   UNL     1      11.976   3.327   0.397  0.00  0.00    +0.017 A 
ATOM     15  C   UNL     1      12.486   3.280   1.687  0.00  0.00    +0.019 A 
ATOM     16  C   UNL     1      11.638   2.985   2.740  0.00  0.00    +0.032 A 
ATOM     17  C   UNL     1      10.310   2.744   2.493  0.00  0.00    +0.042 A 
ATOM     18  S   UNL     1       8.897   2.347   3.494  0.00  0.00    -0.052 S 
ATOM     19 BR   UNL     1      14.321   3.613   2.002  0.00  0.00    -0.050 Br
ATOM     20  H   UNL     1       2.560   0.069   0.311  0.00  0.00    +0.151 HD
ENDROOT
BRANCH   1  21
ATOM     21  C   UNL     1       0.745  -0.521   1.242  0.00  0.00    +0.074 C 
BRANCH  21  23
ATOM     22  C   UNL     1      -0.024   1.512   0.008  0.00  0.00    +0.006 C 
ATOM     23  C   UNL     1       0.003  -0.018   0.001  0.00  0.00    +0.019 C 
ENDBRANCH  21  23
BRANCH  21  24
ATOM     24  C   UNL     1       0.664  -2.048   1.300  0.00  0.00    +0.019 C 
ATOM     25  C   UNL     1       1.297  -2.542   2.602  0.00  0.00    +0.006 C 
ENDBRANCH  21  24
ENDBRANCH   1  21
TORSDOF 3
