REMARK  Name = ZINC27346280
REMARK  11 active torsions:
REMARK  status: ('A' for Active; 'I' for Inactive)
REMARK    1  A    between atoms: C_1  and  C_2
REMARK    2  A    between atoms: C_5  and  C_8
REMARK    3  A    between atoms: C_8  and  C_32
REMARK    4  A    between atoms: N_11  and  C_15
REMARK    5  A    between atoms: C_15  and  C_16
REMARK    6  A    between atoms: N_18  and  C_19
REMARK    7  A    between atoms: C_19  and  C_20
REMARK    8  A    between atoms: C_20  and  C_22
REMARK    9  A    between atoms: C_20  and  N_29
REMARK   10  A    between atoms: N_29  and  C_30
REMARK   11  A    between atoms: N_29  and  C_31
REMARK                            x       y       z     vdW  Elec       q    Type
REMARK                         _______ _______ _______ _____ _____    ______ ____
ROOT
ATOM      1  C   UNL     1      -1.426  -6.956  -1.914  0.00  0.00    +0.213 C 
ENDROOT
BRANCH   1   5
ATOM      2  C   UNL     1       1.824  -5.841  -0.502  0.00  0.00    +0.135 C 
ATOM      3  C   UNL     1       0.924  -6.181  -1.674  0.00  0.00    +0.251 C 
ATOM      4  O   UNL     1       1.207  -6.134  -2.852  0.00  0.00    -0.272 OA
ATOM      5  N   UNL     1      -0.256  -6.544  -1.134  0.00  0.00    -0.215 N 
ATOM      6  C   UNL     1      -0.227  -6.482   0.202  0.00  0.00    +0.310 C 
ATOM      7  O   UNL     1      -1.173  -6.763   0.912  0.00  0.00    -0.252 OA
ATOM      8  N   UNL     1       0.966  -6.074   0.672  0.00  0.00    -0.281 N 
ATOM      9  C   UNL     1       3.043  -6.764  -0.474  0.00  0.00    +0.047 C 
ATOM     10  H   UNL     1       1.361  -5.905   1.685  0.00  0.00    +0.152 HD
BRANCH   2  15
ATOM     11  C   UNL     1       3.473  -0.308  -0.745  0.00  0.00    +0.044 C 
ATOM     12  C   UNL     1       3.043  -1.751  -0.682  0.00  0.00    -0.050 A 
ATOM     13  C   UNL     1       2.774  -2.443  -1.847  0.00  0.00    +0.004 A 
ATOM     14  C   UNL     1       2.385  -3.768  -1.790  0.00  0.00    +0.006 A 
ATOM     15  C   UNL     1       2.254  -4.398  -0.566  0.00  0.00    -0.015 A 
ATOM     16  C   UNL     1       2.518  -3.704   0.600  0.00  0.00    +0.006 A 
ATOM     17  C   UNL     1       2.913  -2.380   0.542  0.00  0.00    +0.004 A 
ENDBRANCH   2  15
ENDBRANCH   1   5
BRANCH   1  18
ATOM     18  C   UNL     1      -1.386  -8.447  -2.129  0.00  0.00    +0.231 C 
ATOM     19  O   UNL     1      -0.471  -9.102  -1.675  0.00  0.00    -0.274 OA
ATOM     20  N   UNL     1      -2.368  -9.054  -2.825  0.00  0.00    -0.315 N 
ATOM     21  H   UNL     1      -3.198  -8.461  -3.236  0.00  0.00    +0.149 HD
BRANCH  20  22
ATOM     22  C   UNL     1      -2.330 -10.504  -3.034  0.00  0.00    +0.093 C 
BRANCH  22  23
ATOM     23  C   UNL     1      -3.601 -10.947  -3.761  0.00  0.00    -0.020 C 
BRANCH  23  24
ATOM     24  C   UNL     1      -3.609 -10.373  -5.154  0.00  0.00    -0.041 A 
ATOM     25  C   UNL     1      -4.273  -9.188  -5.410  0.00  0.00    +0.003 A 
ATOM     26  C   UNL     1      -4.281  -8.662  -6.688  0.00  0.00    +0.000 A 
ATOM     27  C   UNL     1      -3.624  -9.319  -7.711  0.00  0.00    +0.001 A 
ATOM     28  C   UNL     1      -2.960 -10.504  -7.457  0.00  0.00    +0.020 A 
ATOM     29  C   UNL     1      -2.947 -11.029  -6.177  0.00  0.00    +0.043 A 
ATOM     30 CL   UNL     1      -2.107 -12.514  -5.855  0.00  0.00    -0.083 Cl
ENDBRANCH  23  24
BRANCH  23  31
ATOM     31  N   UNL     1      -4.779 -10.467  -3.026  0.00  0.00    +0.382 N 
ATOM     32  C   UNL     1      -6.016 -11.011  -3.602  0.00  0.00    -0.096 C 
ATOM     33  C   UNL     1      -4.676 -10.791  -1.597  0.00  0.00    -0.096 C 
ATOM     34  H   UNL     1      -4.814  -9.372  -3.123  0.00  0.00    -0.082 HD
ENDBRANCH  23  31
ENDBRANCH  22  23
ENDBRANCH  20  22
ENDBRANCH   1  18
TORSDOF 7
