REMARK  Name = ZINC63349936
REMARK  5 active torsions:
REMARK  status: ('A' for Active; 'I' for Inactive)
REMARK    1  A    between atoms: C_1  and  O_2
REMARK    2  A    between atoms: O_2  and  C_3
REMARK    3  A    between atoms: C_6  and  C_21
REMARK    4  A    between atoms: C_8  and  C_9
REMARK    5  A    between atoms: C_9  and  N_10
REMARK                            x       y       z     vdW  Elec       q    Type
REMARK                         _______ _______ _______ _____ _____    ______ ____
ROOT
ATOM      1  C   UNL     1       0.626  -0.618   1.042  0.00  0.00    +0.125 A 
ATOM      2  C   UNL     1       1.202   0.139   2.051  0.00  0.00    +0.046 A 
ATOM      3  C   UNL     1       1.835  -0.488   3.107  0.00  0.00    +0.009 A 
ATOM      4  C   UNL     1       1.895  -1.869   3.158  0.00  0.00    -0.028 A 
ATOM      5  C   UNL     1       1.321  -2.625   2.153  0.00  0.00    +0.014 A 
ATOM      6  C   UNL     1       0.682  -2.003   1.097  0.00  0.00    +0.012 A 
ENDROOT
BRANCH   4   7
ATOM      7  C   UNL     1       2.586  -2.550   4.311  0.00  0.00    +0.111 C 
ATOM      8  C   UNL     1       1.657  -2.574   5.527  0.00  0.00    +0.128 C 
ATOM      9  C   UNL     1       2.486  -3.118   6.685  0.00  0.00    -0.035 C 
ATOM     10  C   UNL     1       1.809  -4.144   7.182  0.00  0.00    -0.001 A 
ATOM     11  C   UNL     1       2.052  -5.009   8.348  0.00  0.00    +0.010 A 
ATOM     12  C   UNL     1       1.141  -5.995   8.563  0.00  0.00    +0.001 A 
ATOM     13  C   UNL     1       0.027  -6.205   7.745  0.00  0.00    +0.002 A 
ATOM     14  C   UNL     1      -0.278  -5.455   6.656  0.00  0.00    +0.026 A 
ATOM     15  C   UNL     1       0.603  -4.383   6.331  0.00  0.00    +0.043 A 
ATOM     16  N   UNL     1       0.533  -3.493   5.359  0.00  0.00    -0.376 N 
ATOM     17  C   UNL     1       3.848  -2.557   7.017  0.00  0.00    +0.048 C 
ATOM     18  C   UNL     1       4.617  -2.479   5.685  0.00  0.00    +0.086 C 
ATOM     19  N   UNL     1       3.802  -1.804   4.671  0.00  0.00    -0.307 NA
ATOM     20  H   UNL     1       4.350  -1.589   3.851  0.00  0.00    +0.123 HD
ATOM     21  H   UNL     1      -0.134  -3.452   4.656  0.00  0.00    +0.160 HD
ENDBRANCH   4   7
BRANCH   1  23
ATOM     22  C   UNL     1      -0.017   1.425   0.010  0.00  0.00    +0.277 C 
ATOM     23  O   UNL     1       0.002  -0.004   0.002  0.00  0.00    -0.495 OA
ENDBRANCH   1  23
BRANCH   6  24
ATOM     24  C   UNL     1       0.052  -2.828   0.005  0.00  0.00    +0.155 C 
BRANCH  24  25
ATOM     25  N   UNL     1      -1.404  -2.816   0.163  0.00  0.00    -0.230 N 
ATOM     26  C   UNL     1      -2.099  -3.707   0.893  0.00  0.00    +0.254 C 
ATOM     27  O   UNL     1      -1.625  -4.635   1.518  0.00  0.00    -0.270 OA
ATOM     28  C   UNL     1      -3.535  -3.367   0.810  0.00  0.00    +0.049 A 
ATOM     29  C   UNL     1      -4.691  -3.914   1.343  0.00  0.00    +0.014 A 
ATOM     30  C   UNL     1      -5.919  -3.335   1.060  0.00  0.00    +0.001 A 
ATOM     31  C   UNL     1      -5.996  -2.217   0.251  0.00  0.00    +0.001 A 
ATOM     32  C   UNL     1      -4.848  -1.659  -0.288  0.00  0.00    +0.014 A 
ATOM     33  C   UNL     1      -3.614  -2.227  -0.015  0.00  0.00    +0.049 A 
ATOM     34  C   UNL     1      -2.223  -1.909  -0.401  0.00  0.00    +0.254 C 
ATOM     35  O   UNL     1      -1.877  -0.985  -1.109  0.00  0.00    -0.270 OA
ENDBRANCH  24  25
ENDBRANCH   6  24
TORSDOF 4
