REMARK  Name = ZINC38649990
REMARK  9 active torsions:
REMARK  status: ('A' for Active; 'I' for Inactive)
REMARK    1  A    between atoms: C_1  and  O_2
REMARK    2  A    between atoms: O_2  and  C_3
REMARK    3  A    between atoms: C_8  and  C_9
REMARK    4  A    between atoms: C_14  and  O_23
REMARK    5  A    between atoms: C_18  and  N_22
REMARK    6  A    between atoms: C_19  and  C_20
REMARK    7  A    between atoms: O_23  and  C_24
REMARK    8  A    between atoms: C_24  and  C_26
REMARK    9  A    between atoms: C_27  and  C_28
REMARK                            x       y       z     vdW  Elec       q    Type
REMARK                         _______ _______ _______ _____ _____    ______ ____
ROOT
ATOM      1  C   UNL     1       0.061  -2.788   0.014  0.00  0.00    +0.101 C 
ATOM      2  C   UNL     1       0.106  -3.666   1.236  0.00  0.00    +0.008 A 
ATOM      3  C   UNL     1       0.521  -3.133   2.443  0.00  0.00    +0.012 A 
ATOM      4  C   UNL     1       0.569  -3.923   3.574  0.00  0.00    +0.047 A 
ATOM      5  C   UNL     1       0.198  -5.259   3.502  0.00  0.00    +0.135 A 
ATOM      6  C   UNL     1      -0.219  -5.796   2.296  0.00  0.00    +0.093 A 
ATOM      7  C   UNL     1      -0.266  -5.000   1.159  0.00  0.00    +0.138 A 
ATOM      8  O   UNL     1      -0.676  -5.540  -0.015  0.00  0.00    -0.441 OA
ATOM      9  C   UNL     1      -0.371  -4.934  -1.174  0.00  0.00    +0.199 C 
ATOM     10  C   UNL     1      -0.015  -3.632  -1.227  0.00  0.00    +0.098 C 
ENDROOT
BRANCH   1  16
ATOM     11  C   UNL     1      -0.996  -0.515   0.096  0.00  0.00    +0.124 A 
ATOM     12  C   UNL     1      -2.114   0.305   0.156  0.00  0.00    +0.046 A 
ATOM     13  C   UNL     1      -3.376  -0.253   0.211  0.00  0.00    +0.004 A 
ATOM     14  C   UNL     1      -3.527  -1.628   0.206  0.00  0.00    +0.001 A 
ATOM     15  C   UNL     1      -2.415  -2.447   0.146  0.00  0.00    +0.008 A 
ATOM     16  C   UNL     1      -1.150  -1.894   0.085  0.00  0.00    +0.007 A 
BRANCH  11  18
ATOM     17  C   UNL     1       0.330   1.457   0.056  0.00  0.00    +0.277 C 
ATOM     18  O   UNL     1       0.247   0.031   0.042  0.00  0.00    -0.495 OA
ENDBRANCH  11  18
ENDBRANCH   1  16
BRANCH   9  19
ATOM     19  N   UNL     1      -0.424  -5.659  -2.339  0.00  0.00    -0.328 N 
ATOM     20  H   UNL     1      -0.679  -6.595  -2.317  0.00  0.00    +0.145 HD
ATOM     21  H   UNL     1      -0.207  -5.236  -3.184  0.00  0.00    +0.145 HD
ENDBRANCH   9  19
BRANCH  10  22
ATOM     22  C   UNL     1       0.296  -3.045  -2.495  0.00  0.00    +0.101 C 
ATOM     23  N   UNL     1       0.543  -2.579  -3.502  0.00  0.00    -0.191 NA
ENDBRANCH  10  22
BRANCH   5  24
ATOM     24  O   UNL     1       0.245  -6.039   4.615  0.00  0.00    -0.423 OA
BRANCH  24  25
ATOM     25  C   UNL     1      -0.647  -5.796   5.597  0.00  0.00    +0.337 C 
ATOM     26  O   UNL     1      -1.526  -4.972   5.430  0.00  0.00    -0.245 OA
BRANCH  25  27
ATOM     27  C   UNL     1      -0.557  -6.522   6.862  0.00  0.00    +0.092 C 
ATOM     28  C   UNL     1      -1.450  -6.278   7.845  0.00  0.00    +0.016 C 
BRANCH  28  29
ATOM     29  C   UNL     1      -1.359  -7.009   9.118  0.00  0.00    -0.006 A 
ATOM     30  C   UNL     1      -0.345  -7.953   9.316  0.00  0.00    +0.011 A 
ATOM     31  C   UNL     1      -0.267  -8.633  10.512  0.00  0.00    +0.020 A 
ATOM     32  C   UNL     1      -1.188  -8.385  11.518  0.00  0.00    +0.042 A 
ATOM     33  C   UNL     1      -2.194  -7.453  11.330  0.00  0.00    +0.040 A 
ATOM     34  C   UNL     1      -2.283  -6.759  10.140  0.00  0.00    +0.049 A 
ATOM     35 CL   UNL     1      -3.541  -5.585   9.909  0.00  0.00    -0.083 Cl
ATOM     36 CL   UNL     1      -1.079  -9.248  13.020  0.00  0.00    -0.083 Cl
ENDBRANCH  28  29
ENDBRANCH  25  27
ENDBRANCH  24  25
ENDBRANCH   5  24
TORSDOF 8
