REMARK  Name = ZINC00659143
REMARK  15 active torsions:
REMARK  status: ('A' for Active; 'I' for Inactive)
REMARK    1  A    between atoms: C_1  and  C_2
REMARK    2  A    between atoms: C_2  and  C_3
REMARK    3  A    between atoms: C_3  and  C_5
REMARK    4  A    between atoms: C_3  and  O_6
REMARK    5  A    between atoms: O_6  and  C_7
REMARK    6  A    between atoms: C_7  and  C_9
REMARK    7  A    between atoms: C_10  and  C_41
REMARK    8  A    between atoms: C_14  and  C_16
REMARK    9  A    between atoms: C_18  and  O_24
REMARK   10  A    between atoms: C_19  and  O_23
REMARK   11  A    between atoms: O_24  and  C_25
REMARK   12  A    between atoms: C_25  and  C_26
REMARK   13  A    between atoms: C_30  and  C_33
REMARK   14  A    between atoms: C_36  and  O_39
REMARK   15  A    between atoms: O_39  and  C_40
REMARK                            x       y       z     vdW  Elec       q    Type
REMARK                         _______ _______ _______ _____ _____    ______ ____
ROOT
ATOM      1  C   UNL     1      -0.031   0.350  -4.776  0.00  0.00    +0.065 C 
ATOM      2  C   UNL     1       0.680   0.791  -5.828  0.00  0.00    +0.016 C 
ATOM      3  N   UNL     1       0.046   1.292  -6.931  0.00  0.00    -0.321 N 
ATOM      4  C   UNL     1      -1.251   1.724  -6.854  0.00  0.00    +0.016 C 
ATOM      5  C   UNL     1      -2.049   1.319  -5.843  0.00  0.00    +0.024 C 
ATOM      6  C   UNL     1      -1.531   0.379  -4.782  0.00  0.00    +0.092 C 
ATOM      7  C   UNL     1      -3.383   1.753  -5.755  0.00  0.00    +0.162 C 
ATOM      8  O   UNL     1      -4.070   1.383  -4.823  0.00  0.00    -0.292 OA
ATOM      9  C   UNL     1      -3.976   2.668  -6.792  0.00  0.00    +0.088 C 
ATOM     10  C   UNL     1      -3.260   2.438  -8.127  0.00  0.00    +0.032 C 
ATOM     11  C   UNL     1      -1.761   2.663  -7.919  0.00  0.00    +0.059 C 
ATOM     12  C   UNL     1       2.185   0.734  -5.791  0.00  0.00    +0.061 C 
ATOM     13  H   UNL     1       0.520   1.341  -7.776  0.00  0.00    +0.152 HD
ENDROOT
BRANCH   6  14
ATOM     14  C   UNL     1      -2.051  -1.010  -5.050  0.00  0.00    -0.030 A 
ATOM     15  C   UNL     1      -2.864  -1.634  -4.121  0.00  0.00    +0.054 A 
ATOM     16  C   UNL     1      -3.343  -2.911  -4.365  0.00  0.00    +0.163 A 
ATOM     17  C   UNL     1      -3.004  -3.564  -5.547  0.00  0.00    +0.173 A 
ATOM     18  C   UNL     1      -2.189  -2.934  -6.474  0.00  0.00    +0.063 A 
ATOM     19  C   UNL     1      -1.718  -1.656  -6.226  0.00  0.00    +0.023 A 
ATOM     20 BR   UNL     1      -1.726  -3.817  -8.080  0.00  0.00    -0.046 Br
BRANCH  17  21
ATOM     21  O   UNL     1      -3.471  -4.817  -5.790  0.00  0.00    -0.503 OA
ATOM     22  H   UNL     1      -4.319  -4.838  -6.255  0.00  0.00    +0.292 HD
ENDBRANCH  17  21
BRANCH  16  23
ATOM     23  O   UNL     1      -4.142  -3.525  -3.452  0.00  0.00    -0.489 OA
BRANCH  23  24
ATOM     24  C   UNL     1      -4.448  -2.795  -2.263  0.00  0.00    +0.226 C 
ATOM     25  C   UNL     1      -5.351  -3.641  -1.363  0.00  0.00    +0.048 C 
ENDBRANCH  23  24
ENDBRANCH  16  23
ENDBRANCH   6  14
BRANCH  10  26
ATOM     26  C   UNL     1      -3.784   3.406  -9.156  0.00  0.00    -0.043 A 
ATOM     27  C   UNL     1      -3.660   4.767  -8.948  0.00  0.00    +0.007 A 
ATOM     28  C   UNL     1      -4.140   5.657  -9.890  0.00  0.00    +0.046 A 
ATOM     29  C   UNL     1      -4.747   5.184 -11.044  0.00  0.00    +0.120 A 
ATOM     30  C   UNL     1      -4.869   3.817 -11.250  0.00  0.00    +0.046 A 
ATOM     31  C   UNL     1      -4.383   2.931 -10.308  0.00  0.00    +0.007 A 
BRANCH  29  32
ATOM     32  O   UNL     1      -5.220   6.057 -11.972  0.00  0.00    -0.495 OA
ATOM     33  C   UNL     1      -5.832   5.498 -13.136  0.00  0.00    +0.277 C 
ENDBRANCH  29  32
ENDBRANCH  10  26
BRANCH   1  34
ATOM     34  C   UNL     1       0.648  -0.155  -3.643  0.00  0.00    +0.338 C 
ATOM     35  O   UNL     1       0.710   0.508  -2.624  0.00  0.00    -0.245 OA
BRANCH  34  36
ATOM     36  O   UNL     1       1.228  -1.373  -3.691  0.00  0.00    -0.458 OA
BRANCH  36  37
ATOM     37  C   UNL     1       1.897  -1.820  -2.510  0.00  0.00    +0.173 C 
ATOM     38  C   UNL     1       3.361  -1.378  -2.554  0.00  0.00    +0.052 C 
BRANCH  37  40
ATOM     39  C   UNL     1       0.370  -3.783  -2.262  0.00  0.00    +0.007 C 
ATOM     40  C   UNL     1       1.827  -3.346  -2.432  0.00  0.00    +0.041 C 
ENDBRANCH  37  40
ENDBRANCH  36  37
ENDBRANCH  34  36
ENDBRANCH   1  34
TORSDOF 10
