REMARK  Name = ZINC09012089
REMARK  8 active torsions:
REMARK  status: ('A' for Active; 'I' for Inactive)
REMARK    1  A    between atoms: C_1  and  C_2
REMARK    2  A    between atoms: C_7  and  C_8
REMARK    3  A    between atoms: N_24  and  C_27
REMARK    4  A    between atoms: C_28  and  C_34
REMARK    5  A    between atoms: C_29  and  C_33
REMARK    6  A    between atoms: C_30  and  C_32
REMARK    7  A    between atoms: C_34  and  O_36
REMARK    8  A    between atoms: O_36  and  C_37
REMARK                            x       y       z     vdW  Elec       q    Type
REMARK                         _______ _______ _______ _____ _____    ______ ____
ROOT
ATOM      1  C   UNL     1      -2.121   4.328   0.435  0.00  0.00    +0.044 C 
ATOM      2  C   UNL     1      -0.922   3.421   0.339  0.00  0.00    -0.046 A 
ATOM      3  C   UNL     1       0.347   3.965   0.257  0.00  0.00    +0.004 A 
ATOM      4  C   UNL     1       1.448   3.132   0.169  0.00  0.00    +0.005 A 
ATOM      5  C   UNL     1       1.280   1.765   0.164  0.00  0.00    -0.027 A 
ATOM      6  C   UNL     1       0.008   1.207   0.246  0.00  0.00    +0.039 A 
ATOM      7  C   UNL     1      -1.094   2.052   0.340  0.00  0.00    -0.026 A 
ATOM      8  C   UNL     1      -2.481   1.470   0.437  0.00  0.00    +0.046 C 
ATOM      9  N   UNL     1       0.091  -0.187   0.221  0.00  0.00    -0.286 N 
ATOM     10  C   UNL     1       1.363  -0.619   0.124  0.00  0.00    +0.212 C 
ATOM     11  O   UNL     1       1.734  -1.773   0.081  0.00  0.00    -0.277 OA
ATOM     12  C   UNL     1       2.234   0.607   0.082  0.00  0.00    +0.053 C 
ATOM     13  C   UNL     1       3.068   0.657  -1.203  0.00  0.00    +0.089 C 
ATOM     14  C   UNL     1       4.466   0.124  -0.787  0.00  0.00    +0.074 C 
ATOM     15  C   UNL     1       4.340  -0.206   0.712  0.00  0.00    -0.054 C 
ATOM     16  C   UNL     1       3.724   1.986   1.391  0.00  0.00    -0.076 C 
ATOM     17  C   UNL     1       5.248   1.877   1.561  0.00  0.00    -0.020 C 
ATOM     18  C   UNL     1       5.568   0.355   1.461  0.00  0.00    -0.016 C 
ATOM     19  C   UNL     1       4.582  -1.172  -1.586  0.00  0.00    +0.229 C 
ATOM     20  O   UNL     1       5.531  -1.925  -1.562  0.00  0.00    -0.275 OA
ATOM     21  N   UNL     1       3.477  -1.344  -2.321  0.00  0.00    -0.203 N 
ATOM     22  C   UNL     1       2.562  -0.378  -2.182  0.00  0.00    +0.230 C 
ATOM     23  O   UNL     1       1.493  -0.339  -2.753  0.00  0.00    -0.275 OA
ATOM     24  H   UNL     1      -0.679  -0.776   0.268  0.00  0.00    +0.155 HD
ATOM     25  N   UNL     1       3.225   0.612   1.155  0.00  0.00    +0.395 N 
ATOM     26  H   UNL     1       2.817   0.233   2.017  0.00  0.00    -0.079 HD
ENDROOT
BRANCH  21  27
ATOM     27  C   UNL     1       3.295  -2.437  -3.161  0.00  0.00    +0.096 A 
ATOM     28  C   UNL     1       3.630  -2.559  -4.504  0.00  0.00    +0.091 A 
ATOM     29  C   UNL     1       3.328  -3.821  -5.137  0.00  0.00    -0.025 A 
ATOM     30  C   UNL     1       2.741  -4.764  -4.377  0.00  0.00    -0.008 A 
ATOM     31  S   UNL     1       2.589  -3.974  -2.788  0.00  0.00    -0.077 S 
ATOM     32  C   UNL     1       2.316  -6.154  -4.775  0.00  0.00    +0.052 C 
ATOM     33  C   UNL     1       3.651  -4.070  -6.588  0.00  0.00    +0.045 C 
BRANCH  28  34
ATOM     34  C   UNL     1       4.262  -1.462  -5.242  0.00  0.00    +0.342 C 
ATOM     35  O   UNL     1       5.475  -1.372  -5.277  0.00  0.00    -0.245 OA
BRANCH  34  36
ATOM     36  O   UNL     1       3.500  -0.551  -5.880  0.00  0.00    -0.464 OA
ATOM     37  C   UNL     1       4.194   0.508  -6.590  0.00  0.00    +0.280 C 
ENDBRANCH  34  36
ENDBRANCH  28  34
ENDBRANCH  21  27
TORSDOF 3
