REMARK  Name = ZINC20673905
REMARK  1 active torsions:
REMARK  status: ('A' for Active; 'I' for Inactive)
REMARK    1  A    between atoms: C_4  and  C_7
REMARK                            x       y       z     vdW  Elec       q    Type
REMARK                         _______ _______ _______ _____ _____    ______ ____
ROOT
ATOM      1  C   UNL     1      -2.530   1.169   0.038  0.00  0.00    +0.092 C 
ATOM      2  C   UNL     1      -1.228   1.913   0.018  0.00  0.00    +0.069 A 
ATOM      3  C   UNL     1      -0.015   1.217   0.009  0.00  0.00    +0.259 A 
ATOM      4  O   UNL     1       0.002  -0.004   0.002  0.00  0.00    -0.267 OA
ATOM      5  N   UNL     1       1.137   1.920   0.002  0.00  0.00    -0.295 N 
ATOM      6  H   UNL     1       2.103   1.394  -0.011  0.00  0.00    +0.172 HD
ATOM      7  C   UNL     1       1.107   3.281   0.010  0.00  0.00    +0.200 A 
ATOM      8  N   UNL     1      -0.031   3.941   0.022  0.00  0.00    -0.200 NA
ATOM      9  C   UNL     1      -1.204   3.297   0.028  0.00  0.00    +0.136 A 
ATOM     10  N   UNL     1      -2.391   4.002   0.035  0.00  0.00    -0.302 N 
ATOM     11  C   UNL     1      -3.560   3.404  -0.349  0.00  0.00    +0.017 C 
ATOM     12  C   UNL     1      -3.676   2.059  -0.372  0.00  0.00    +0.024 C 
ATOM     13  C   UNL     1      -4.871   1.443  -0.784  0.00  0.00    +0.162 C 
ATOM     14  O   UNL     1      -4.946   0.230  -0.786  0.00  0.00    -0.292 OA
ATOM     15  C   UNL     1      -6.059   2.255  -1.221  0.00  0.00    +0.080 C 
ATOM     16  C   UNL     1      -5.568   3.586  -1.800  0.00  0.00    +0.014 C 
ATOM     17  C   UNL     1      -4.717   4.290  -0.741  0.00  0.00    +0.051 C 
ATOM     18  N   UNL     1       2.286   3.977   0.005  0.00  0.00    -0.301 N 
ATOM     19  C   UNL     1       3.189   3.492   1.057  0.00  0.00    +0.108 C 
ATOM     20  C   UNL     1       4.545   4.190   0.929  0.00  0.00    +0.019 C 
ATOM     21  C   UNL     1       4.349   5.703   1.056  0.00  0.00    +0.003 C 
ATOM     22  C   UNL     1       3.368   6.175  -0.021  0.00  0.00    +0.019 C 
ATOM     23  C   UNL     1       2.046   5.420   0.135  0.00  0.00    +0.108 C 
ATOM     24  H   UNL     1      -2.403   5.055   0.352  0.00  0.00    +0.153 HD
ENDROOT
BRANCH   1  28
ATOM     25  C   UNL     1      -3.249  -0.305   3.983  0.00  0.00    +0.000 A 
ATOM     26  C   UNL     1      -3.112  -1.189   2.929  0.00  0.00    +0.000 A 
ATOM     27  C   UNL     1      -2.879  -0.712   1.653  0.00  0.00    +0.004 A 
ATOM     28  C   UNL     1      -2.784   0.649   1.430  0.00  0.00    -0.035 A 
ATOM     29  C   UNL     1      -2.916   1.533   2.485  0.00  0.00    +0.004 A 
ATOM     30  C   UNL     1      -3.153   1.056   3.760  0.00  0.00    +0.000 A 
ENDBRANCH   1  28
TORSDOF 1
