REMARK  Name = ZINC35853233
REMARK  10 active torsions:
REMARK  status: ('A' for Active; 'I' for Inactive)
REMARK    1  A    between atoms: C_1  and  O_2
REMARK    2  A    between atoms: O_2  and  C_3
REMARK    3  A    between atoms: C_7  and  C_11
REMARK    4  A    between atoms: C_8  and  O_9
REMARK    5  A    between atoms: O_9  and  C_10
REMARK    6  A    between atoms: C_11  and  N_12
REMARK    7  A    between atoms: C_15  and  N_18
REMARK    8  A    between atoms: N_18  and  C_19
REMARK    9  A    between atoms: N_18  and  S_26
REMARK   10  A    between atoms: S_26  and  C_29
REMARK                            x       y       z     vdW  Elec       q    Type
REMARK                         _______ _______ _______ _____ _____    ______ ____
ROOT
ATOM      1  N   UNL     1      -2.977  -3.611   2.261  0.00  0.00    +0.383 N 
ATOM      2  C   UNL     1      -3.904  -3.627   3.399  0.00  0.00    -0.077 C 
ATOM      3  C   UNL     1      -3.287  -4.420   4.553  0.00  0.00    +0.006 C 
ATOM      4  C   UNL     1      -3.018  -5.856   4.092  0.00  0.00    +0.095 C 
ATOM      5  C   UNL     1      -2.110  -5.824   2.859  0.00  0.00    +0.006 C 
ATOM      6  C   UNL     1      -2.771  -4.978   1.768  0.00  0.00    -0.077 C 
ATOM      7  H   UNL     1      -2.093  -3.224   2.555  0.00  0.00    -0.081 HD
ENDROOT
BRANCH   1   8
ATOM      8  C   UNL     1      -3.539  -2.784   1.185  0.00  0.00    -0.039 C 
BRANCH   8  13
ATOM      9  C   UNL     1      -2.536   0.739   2.139  0.00  0.00    +0.162 A 
ATOM     10  C   UNL     1      -3.762   1.286   2.482  0.00  0.00    +0.049 A 
ATOM     11  C   UNL     1      -4.908   0.518   2.405  0.00  0.00    +0.004 A 
ATOM     12  C   UNL     1      -4.835  -0.797   1.985  0.00  0.00    +0.005 A 
ATOM     13  C   UNL     1      -3.615  -1.350   1.641  0.00  0.00    -0.019 A 
ATOM     14  C   UNL     1      -2.463  -0.583   1.711  0.00  0.00    +0.163 A 
BRANCH   9  16
ATOM     15  C   UNL     1      -1.558   2.843   2.662  0.00  0.00    +0.277 C 
ATOM     16  O   UNL     1      -1.408   1.494   2.215  0.00  0.00    -0.491 OA
ENDBRANCH   9  16
BRANCH  14  17
ATOM     17  O   UNL     1      -1.263  -1.123   1.368  0.00  0.00    -0.491 OA
ATOM     18  C   UNL     1      -0.813  -0.905   0.030  0.00  0.00    +0.277 C 
ENDBRANCH  14  17
ENDBRANCH   8  13
ENDBRANCH   1   8
BRANCH   4  19
ATOM     19  N   UNL     1      -2.358  -6.600   5.168  0.00  0.00    -0.200 N 
BRANCH  19  20
ATOM     20  C   UNL     1      -1.129  -6.160   5.671  0.00  0.00    +0.052 A 
ATOM     21  C   UNL     1       0.018  -6.267   4.896  0.00  0.00    +0.027 A 
ATOM     22  C   UNL     1       1.230  -5.831   5.395  0.00  0.00    +0.040 A 
ATOM     23  C   UNL     1       1.302  -5.287   6.666  0.00  0.00    +0.124 A 
ATOM     24  C   UNL     1       0.159  -5.179   7.440  0.00  0.00    +0.040 A 
ATOM     25  C   UNL     1      -1.056  -5.609   6.944  0.00  0.00    +0.027 A 
ATOM     26  F   UNL     1       2.488  -4.862   7.152  0.00  0.00    -0.205 F 
ENDBRANCH  19  20
BRANCH  19  27
ATOM     27  S   UNL     1      -3.066  -7.962   5.787  0.00  0.00    +0.075 S 
ATOM     28  O   UNL     1      -2.632  -8.068   7.136  0.00  0.00    -0.150 OA
ATOM     29  O   UNL     1      -4.440  -7.903   5.432  0.00  0.00    -0.150 OA
BRANCH  27  30
ATOM     30  C   UNL     1      -2.382  -9.341   4.929  0.00  0.00    +0.109 A 
ATOM     31  C   UNL     1      -2.981  -9.799   3.770  0.00  0.00    +0.031 A 
ATOM     32  C   UNL     1      -2.445 -10.880   3.096  0.00  0.00    +0.040 A 
ATOM     33  C   UNL     1      -1.309 -11.504   3.582  0.00  0.00    +0.124 A 
ATOM     34  C   UNL     1      -0.711 -11.045   4.743  0.00  0.00    +0.040 A 
ATOM     35  C   UNL     1      -1.245  -9.961   5.412  0.00  0.00    +0.031 A 
ATOM     36  F   UNL     1      -0.785 -12.562   2.924  0.00  0.00    -0.205 F 
ENDBRANCH  27  30
ENDBRANCH  19  27
ENDBRANCH   4  19
TORSDOF 8
