REMARK  Name = ZINC16479443
REMARK  9 active torsions:
REMARK  status: ('A' for Active; 'I' for Inactive)
REMARK    1  A    between atoms: C_4  and  C_7
REMARK    2  A    between atoms: C_7  and  N_8
REMARK    3  A    between atoms: N_8  and  C_9
REMARK    4  A    between atoms: N_8  and  S_23
REMARK    5  A    between atoms: C_9  and  C_10
REMARK    6  A    between atoms: N_12  and  N_13
REMARK    7  A    between atoms: C_14  and  C_15
REMARK    8  A    between atoms: C_20  and  O_21
REMARK    9  A    between atoms: S_23  and  C_26
REMARK                            x       y       z     vdW  Elec       q    Type
REMARK                         _______ _______ _______ _____ _____    ______ ____
ROOT
ATOM      1  N   UNL     1       4.805   8.312  -0.001  0.00  0.00    -0.163 NA
ENDROOT
BRANCH   1   2
ATOM      2  S   UNL     1       5.554   8.704   1.423  0.00  0.00    +0.062 S 
ATOM      3  O   UNL     1       6.577   9.637   1.100  0.00  0.00    -0.153 OA
ATOM      4  O   UNL     1       4.524   8.997   2.357  0.00  0.00    -0.153 OA
BRANCH   2   5
ATOM      5  C   UNL     1       6.363   7.251   2.005  0.00  0.00    +0.106 A 
ATOM      6  C   UNL     1       5.696   6.376   2.841  0.00  0.00    +0.028 A 
ATOM      7  C   UNL     1       6.329   5.234   3.293  0.00  0.00    +0.002 A 
ATOM      8  C   UNL     1       7.633   4.971   2.917  0.00  0.00    +0.000 A 
ATOM      9  C   UNL     1       8.302   5.849   2.085  0.00  0.00    +0.002 A 
ATOM     10  C   UNL     1       7.667   6.989   1.629  0.00  0.00    +0.028 A 
ENDBRANCH   2   5
ENDBRANCH   1   2
BRANCH   1  11
ATOM     11  C   UNL     1       5.519   8.464  -1.270  0.00  0.00    +0.145 C 
BRANCH  11  15
ATOM     12  C   UNL     1       4.565  12.253  -2.996  0.00  0.00    +0.000 A 
ATOM     13  C   UNL     1       5.643  12.136  -2.138  0.00  0.00    +0.000 A 
ATOM     14  C   UNL     1       5.951  10.910  -1.579  0.00  0.00    +0.005 A 
ATOM     15  C   UNL     1       5.183   9.801  -1.879  0.00  0.00    -0.032 A 
ATOM     16  C   UNL     1       4.109   9.917  -2.741  0.00  0.00    +0.005 A 
ATOM     17  C   UNL     1       3.796  11.144  -3.295  0.00  0.00    +0.000 A 
ENDBRANCH  11  15
ENDBRANCH   1  11
BRANCH   1  18
ATOM     18  C   UNL     1       3.428   7.812   0.010  0.00  0.00    +0.207 C 
BRANCH  18  19
ATOM     19  C   UNL     1       3.441   6.305   0.002  0.00  0.00    +0.248 C 
ATOM     20  O   UNL     1       4.496   5.707  -0.011  0.00  0.00    -0.273 OA
ATOM     21  N   UNL     1       2.279   5.621   0.009  0.00  0.00    -0.206 N 
ATOM     22  H   UNL     1       1.435   6.099   0.020  0.00  0.00    +0.177 HD
BRANCH  21  23
ATOM     23  N   UNL     1       2.291   4.220   0.002  0.00  0.00    -0.188 NA
ATOM     24  C   UNL     1       1.172   3.562   0.009  0.00  0.00    +0.142 C 
BRANCH  24  25
ATOM     25  C   UNL     1       1.185   2.088   0.002  0.00  0.00    +0.037 A 
ATOM     26  C   UNL     1      -0.017   1.376   0.010  0.00  0.00    +0.028 A 
ATOM     27  C   UNL     1       0.002  -0.004   0.002  0.00  0.00    +0.019 A 
ATOM     28  C   UNL     1       1.208  -0.686  -0.013  0.00  0.00    +0.019 A 
ATOM     29  C   UNL     1       2.403   0.008  -0.020  0.00  0.00    +0.047 A 
ATOM     30  C   UNL     1       2.402   1.394  -0.013  0.00  0.00    +0.126 A 
ATOM     31 BR   UNL     1      -1.625  -0.968   0.012  0.00  0.00    -0.050 Br
BRANCH  30  32
ATOM     32  O   UNL     1       3.576   2.076  -0.021  0.00  0.00    -0.506 OA
ATOM     33  H   UNL     1       3.908   2.278  -0.906  0.00  0.00    +0.292 HD
ENDBRANCH  30  32
ENDBRANCH  24  25
ENDBRANCH  21  23
ENDBRANCH  18  19
ENDBRANCH   1  18
TORSDOF 9
