REMARK  Name = ZINC27695581
REMARK  8 active torsions:
REMARK  status: ('A' for Active; 'I' for Inactive)
REMARK    1  A    between atoms: C_4  and  C_7
REMARK    2  A    between atoms: C_7  and  C_8
REMARK    3  A    between atoms: C_7  and  C_14
REMARK    4  A    between atoms: N_22  and  C_23
REMARK    5  A    between atoms: C_23  and  C_24
REMARK    6  A    between atoms: C_24  and  C_26
REMARK    7  A    between atoms: C_24  and  O_28
REMARK    8  A    between atoms: C_26  and  O_27
REMARK                            x       y       z     vdW  Elec       q    Type
REMARK                         _______ _______ _______ _____ _____    ______ ____
ROOT
ATOM      1  C   UNL     1      -3.336   1.496  -1.133  0.00  0.00    +0.123 A 
ATOM      2  N   UNL     1      -3.707   2.734  -1.288  0.00  0.00    -0.231 NA
ATOM      3  C   UNL     1      -4.433   2.853  -2.429  0.00  0.00    +0.089 A 
ATOM      4  C   UNL     1      -5.062   3.927  -3.064  0.00  0.00    +0.030 A 
ATOM      5  C   UNL     1      -5.736   3.727  -4.235  0.00  0.00    +0.002 A 
ATOM      6  C   UNL     1      -5.804   2.463  -4.805  0.00  0.00    +0.002 A 
ATOM      7  C   UNL     1      -5.192   1.388  -4.197  0.00  0.00    +0.028 A 
ATOM      8  C   UNL     1      -4.502   1.573  -3.006  0.00  0.00    +0.069 A 
ATOM      9  N   UNL     1      -3.794   0.738  -2.166  0.00  0.00    -0.324 N 
ENDROOT
BRANCH   1  10
ATOM     10  C   UNL     1      -2.514   0.980   0.019  0.00  0.00    +0.115 C 
BRANCH  10  14
ATOM     11  C   UNL     1       1.251   2.997   0.106  0.00  0.00    +0.000 A 
ATOM     12  C   UNL     1       0.076   3.726   0.077  0.00  0.00    +0.000 A 
ATOM     13  C   UNL     1      -1.142   3.073   0.045  0.00  0.00    +0.004 A 
ATOM     14  C   UNL     1      -1.186   1.691   0.048  0.00  0.00    -0.033 A 
ATOM     15  C   UNL     1      -0.011   0.962   0.072  0.00  0.00    +0.004 A 
ATOM     16  C   UNL     1       1.207   1.615   0.103  0.00  0.00    +0.000 A 
ENDBRANCH  10  14
BRANCH  10  17
ATOM     17  C   UNL     1      -3.246   1.231   1.312  0.00  0.00    -0.033 A 
ATOM     18  C   UNL     1      -3.709   2.500   1.609  0.00  0.00    +0.004 A 
ATOM     19  C   UNL     1      -4.385   2.730   2.792  0.00  0.00    +0.000 A 
ATOM     20  C   UNL     1      -4.590   1.694   3.684  0.00  0.00    +0.000 A 
ATOM     21  C   UNL     1      -4.123   0.426   3.389  0.00  0.00    +0.000 A 
ATOM     22  C   UNL     1      -3.451   0.195   2.204  0.00  0.00    +0.004 A 
ENDBRANCH  10  17
ENDBRANCH   1  10
BRANCH   9  23
ATOM     23  C   UNL     1      -3.578  -0.699  -2.350  0.00  0.00    +0.157 C 
BRANCH  23  24
ATOM     24  C   UNL     1      -4.711  -1.476  -1.676  0.00  0.00    +0.159 C 
BRANCH  24  25
ATOM     25  O   UNL     1      -4.659  -1.264  -0.263  0.00  0.00    -0.388 OA
ATOM     26  H   UNL     1      -5.400  -1.745   0.392  0.00  0.00    +0.210 HD
ENDBRANCH  24  25
BRANCH  24  27
ATOM     27  C   UNL     1      -4.554  -2.968  -1.973  0.00  0.00    +0.188 C 
BRANCH  27  28
ATOM     28  O   UNL     1      -5.674  -3.680  -1.443  0.00  0.00    -0.392 OA
ATOM     29  H   UNL     1      -5.737  -4.772  -1.560  0.00  0.00    +0.210 HD
ENDBRANCH  27  28
ENDBRANCH  24  27
ENDBRANCH  23  24
ENDBRANCH   9  23
TORSDOF 8
