REMARK  Name = ZINC39015674
REMARK  14 active torsions:
REMARK  status: ('A' for Active; 'I' for Inactive)
REMARK    1  A    between atoms: C_1  and  C_2
REMARK    2  A    between atoms: C_8  and  C_14
REMARK    3  A    between atoms: C_14  and  N_15
REMARK    4  A    between atoms: N_15  and  C_16
REMARK    5  A    between atoms: C_16  and  C_17
REMARK    6  A    between atoms: C_17  and  O_18
REMARK    7  A    between atoms: O_18  and  C_19
REMARK    8  A    between atoms: C_20  and  C_22
REMARK    9  A    between atoms: C_24  and  O_32
REMARK   10  A    between atoms: C_25  and  O_30
REMARK   11  A    between atoms: C_26  and  O_28
REMARK   12  A    between atoms: O_28  and  C_29
REMARK   13  A    between atoms: O_30  and  C_31
REMARK   14  A    between atoms: O_32  and  C_33
REMARK                            x       y       z     vdW  Elec       q    Type
REMARK                         _______ _______ _______ _____ _____    ______ ____
ROOT
ATOM      1  N   UNL     1      -1.541  -2.360   5.779  0.00  0.00    -0.294 N 
ATOM      2  C   UNL     1      -0.743  -2.979   6.671  0.00  0.00    +0.247 C 
ATOM      3  O   UNL     1       0.072  -3.797   6.292  0.00  0.00    -0.270 OA
ENDROOT
BRANCH   2   4
ATOM      4  C   UNL     1      -0.860  -2.665   8.108  0.00  0.00    +0.044 A 
ATOM      5  C   UNL     1      -1.000  -3.696   9.041  0.00  0.00    +0.062 A 
ATOM      6  C   UNL     1      -1.108  -3.398  10.387  0.00  0.00    +0.166 A 
ATOM      7  C   UNL     1      -1.079  -2.073  10.813  0.00  0.00    +0.204 A 
ATOM      8  C   UNL     1      -0.940  -1.044   9.885  0.00  0.00    +0.166 A 
ATOM      9  C   UNL     1      -0.824  -1.336   8.539  0.00  0.00    +0.062 A 
BRANCH   8  10
ATOM     10  O   UNL     1      -0.911   0.249  10.305  0.00  0.00    -0.491 OA
ATOM     11  C   UNL     1      -0.766   1.254   9.299  0.00  0.00    +0.277 C 
ENDBRANCH   8  10
BRANCH   7  12
ATOM     12  O   UNL     1      -1.186  -1.784  12.136  0.00  0.00    -0.488 OA
ATOM     13  C   UNL     1       0.029  -1.712  12.885  0.00  0.00    +0.277 C 
ENDBRANCH   7  12
BRANCH   6  14
ATOM     14  O   UNL     1      -1.245  -4.401  11.295  0.00  0.00    -0.491 OA
ATOM     15  C   UNL     1      -1.268  -5.737  10.788  0.00  0.00    +0.277 C 
ENDBRANCH   6  14
ENDBRANCH   2   4
BRANCH   1  16
ATOM     16  C   UNL     1      -1.428  -2.675   4.353  0.00  0.00    +0.125 C 
BRANCH  16  24
ATOM     17  C   UNL     1      -1.170   2.678   1.361  0.00  0.00    +0.045 C 
ATOM     18  C   UNL     1      -0.907   1.266   0.904  0.00  0.00    -0.029 A 
ATOM     19  C   UNL     1      -0.855   0.987  -0.425  0.00  0.00    +0.005 A 
ATOM     20  C   UNL     1      -0.615  -0.297  -0.914  0.00  0.00    +0.001 A 
ATOM     21  C   UNL     1      -0.419  -1.349  -0.077  0.00  0.00    +0.009 A 
ATOM     22  C   UNL     1      -0.462  -1.118   1.367  0.00  0.00    -0.007 A 
ATOM     23  C   UNL     1      -0.271  -2.143   2.245  0.00  0.00    -0.003 C 
ATOM     24  C   UNL     1      -0.333  -1.812   3.724  0.00  0.00    +0.116 C 
ATOM     25  C   UNL     1      -0.601  -0.373   4.104  0.00  0.00    +0.226 C 
ATOM     26  O   UNL     1      -0.661  -0.052   5.275  0.00  0.00    -0.275 OA
ATOM     27  N   UNL     1      -0.771   0.534   3.157  0.00  0.00    -0.284 N 
ATOM     28  C   UNL     1      -0.712   0.249   1.856  0.00  0.00    +0.043 A 
ATOM     29  H   UNL     1      -0.942   1.452   3.422  0.00  0.00    +0.155 HD
ENDBRANCH  16  24
ENDBRANCH   1  16
BRANCH   1  30
ATOM     30  C   UNL     1      -2.520  -1.370   6.235  0.00  0.00    +0.136 C 
BRANCH  30  31
ATOM     31  C   UNL     1      -3.877  -2.049   6.430  0.00  0.00    +0.178 C 
BRANCH  31  32
ATOM     32  O   UNL     1      -3.785  -3.004   7.488  0.00  0.00    -0.381 OA
ATOM     33  C   UNL     1      -5.005  -3.699   7.753  0.00  0.00    +0.194 C 
ENDBRANCH  31  32
ENDBRANCH  30  31
ENDBRANCH   1  30
TORSDOF 9
