REMARK  Name = ZINC63558023
REMARK  10 active torsions:
REMARK  status: ('A' for Active; 'I' for Inactive)
REMARK    1  A    between atoms: C_1  and  C_2
REMARK    2  A    between atoms: C_2  and  C_3
REMARK    3  A    between atoms: C_3  and  C_4
REMARK    4  A    between atoms: C_3  and  C_5
REMARK    5  A    between atoms: C_3  and  C_6
REMARK    6  A    between atoms: C_10  and  N_13
REMARK    7  A    between atoms: C_14  and  C_16
REMARK    8  A    between atoms: N_21  and  C_23
REMARK    9  A    between atoms: C_23  and  C_24
REMARK   10  A    between atoms: C_24  and  C_25
REMARK                            x       y       z     vdW  Elec       q    Type
REMARK                         _______ _______ _______ _____ _____    ______ ____
ROOT
ATOM      1  C   UNL     1       5.671  -6.070  -0.333  0.00  0.00    +0.101 C 
ATOM      2  C   UNL     1       6.709  -5.057  -0.869  0.00  0.00    +0.110 C 
ATOM      3  C   UNL     1       7.915  -5.906  -1.207  0.00  0.00    +0.216 C 
ATOM      4  O   UNL     1       9.035  -5.479  -1.391  0.00  0.00    -0.276 OA
ATOM      5  N   UNL     1       7.564  -7.202  -1.273  0.00  0.00    -0.300 N 
ATOM      6  C   UNL     1       6.132  -7.382  -1.007  0.00  0.00    +0.121 C 
ENDROOT
BRANCH   1   8
ATOM      7  N   UNL     1       3.720  -4.550  -0.342  0.00  0.00    -0.290 N 
ATOM      8  C   UNL     1       4.278  -5.699  -0.772  0.00  0.00    +0.220 C 
ATOM      9  O   UNL     1       3.660  -6.433  -1.513  0.00  0.00    -0.275 OA
ATOM     10  H   UNL     1       4.214  -3.963   0.251  0.00  0.00    +0.151 HD
BRANCH   7  14
ATOM     11  C   UNL     1       0.739  -2.027  -1.265  0.00  0.00    +0.135 C 
ATOM     12  N   UNL     1       1.506  -2.549  -2.426  0.00  0.00    -0.241 NA
ATOM     13  N   UNL     1       2.359  -3.682  -2.166  0.00  0.00    -0.227 NA
ATOM     14  C   UNL     1       2.366  -4.189  -0.769  0.00  0.00    +0.216 C 
ATOM     15  S   UNL     1       1.755  -2.691   0.128  0.00  0.00    -0.101 S 
ATOM     16  H   UNL     1       2.018  -1.810  -2.884  0.00  0.00    +0.142 HD
ATOM     17  H   UNL     1       3.298  -3.510  -2.493  0.00  0.00    +0.143 HD
BRANCH  11  18
ATOM     18  C   UNL     1       0.718  -0.497  -1.257  0.00  0.00    -0.009 C 
ATOM     19  C   UNL     1      -0.022   0.009  -2.496  0.00  0.00    +0.013 C 
ATOM     20  C   UNL     1       2.154   0.032  -1.268  0.00  0.00    +0.013 C 
BRANCH  18  22
ATOM     21  C   UNL     1      -0.019   1.526   0.010  0.00  0.00    +0.004 C 
ATOM     22  C   UNL     1       0.002  -0.004   0.002  0.00  0.00    +0.005 C 
ENDBRANCH  18  22
ENDBRANCH  11  18
ENDBRANCH   7  14
ENDBRANCH   1   8
BRANCH   5  23
ATOM     23  C   UNL     1       8.493  -8.295  -1.571  0.00  0.00    +0.112 C 
BRANCH  23  24
ATOM     24  C   UNL     1       9.094  -8.823  -0.268  0.00  0.00    +0.052 C 
BRANCH  24  25
ATOM     25  C   UNL     1      10.050  -9.948  -0.574  0.00  0.00    -0.040 C 
ATOM     26  C   UNL     1      11.390  -9.857  -0.728  0.00  0.00    +0.002 A 
ATOM     27  C   UNL     1      12.324  -8.727  -0.658  0.00  0.00    +0.048 A 
ATOM     28  C   UNL     1      13.644  -8.953  -0.862  0.00  0.00    +0.124 A 
ATOM     29  C   UNL     1      14.138 -10.237  -1.137  0.00  0.00    +0.040 A 
ATOM     30  C   UNL     1      13.341 -11.323  -1.218  0.00  0.00    +0.029 A 
ATOM     31  C   UNL     1      11.938 -11.201  -1.020  0.00  0.00    +0.043 A 
ATOM     32  N   UNL     1      10.973 -12.089  -1.046  0.00  0.00    -0.380 N 
ATOM     33  C   UNL     1       9.704 -11.408  -0.767  0.00  0.00    +0.144 C 
ATOM     34  F   UNL     1      14.506  -7.915  -0.799  0.00  0.00    -0.205 F 
ATOM     35  H   UNL     1      11.081 -13.037  -1.218  0.00  0.00    +0.160 HD
ENDBRANCH  24  25
ENDBRANCH  23  24
ENDBRANCH   5  23
TORSDOF 7
