REMARK  Name = ZINC41584188
REMARK  13 active torsions:
REMARK  status: ('A' for Active; 'I' for Inactive)
REMARK    1  A    between atoms: C_1  and  C_2
REMARK    2  A    between atoms: C_2  and  C_3
REMARK    3  A    between atoms: C_3  and  C_4
REMARK    4  A    between atoms: C_4  and  N_5
REMARK    5  A    between atoms: N_5  and  C_6
REMARK    6  A    between atoms: N_5  and  C_10
REMARK    7  A    between atoms: C_6  and  C_7
REMARK    8  A    between atoms: C_7  and  C_8
REMARK    9  A    between atoms: C_8  and  C_9
REMARK   10  A    between atoms: C_10  and  C_11
REMARK   11  A    between atoms: C_12  and  O_32
REMARK   12  A    between atoms: C_14  and  C_31
REMARK   13  A    between atoms: C_19  and  C_20
REMARK                            x       y       z     vdW  Elec       q    Type
REMARK                         _______ _______ _______ _____ _____    ______ ____
ROOT
ATOM      1  C   UNL     1      -2.007  -4.556   1.979  0.00  0.00    +0.020 A 
ATOM      2  C   UNL     1      -0.683  -4.961   2.045  0.00  0.00    +0.122 A 
ATOM      3  C   UNL     1      -0.111  -5.316   3.263  0.00  0.00    +0.050 A 
ATOM      4  C   UNL     1      -0.853  -5.269   4.410  0.00  0.00    -0.033 A 
ATOM      5  C   UNL     1      -2.186  -4.863   4.359  0.00  0.00    +0.071 A 
ATOM      6  C   UNL     1      -2.773  -4.497   3.136  0.00  0.00    +0.145 A 
ATOM      7  O   UNL     1      -4.059  -4.138   3.338  0.00  0.00    -0.451 OA
ATOM      8  C   UNL     1      -4.408  -4.227   4.644  0.00  0.00    +0.176 C 
ATOM      9  C   UNL     1      -5.625  -3.937   5.170  0.00  0.00    +0.058 C 
ATOM     10  C   UNL     1      -3.233  -4.707   5.385  0.00  0.00    +0.232 C 
ATOM     11  O   UNL     1      -3.140  -4.916   6.582  0.00  0.00    -0.283 OA
ATOM     12  C   UNL     1      -0.231  -5.655   5.727  0.00  0.00    +0.045 C 
ENDROOT
BRANCH   9  13
ATOM     13  C   UNL     1      -5.808  -3.913   6.627  0.00  0.00    -0.018 A 
ATOM     14  C   UNL     1      -4.809  -3.379   7.451  0.00  0.00    +0.012 A 
ATOM     15  C   UNL     1      -4.984  -3.356   8.817  0.00  0.00    +0.050 A 
ATOM     16  C   UNL     1      -6.148  -3.862   9.382  0.00  0.00    +0.166 A 
ATOM     17  C   UNL     1      -7.148  -4.395   8.567  0.00  0.00    +0.167 A 
ATOM     18  C   UNL     1      -6.984  -4.417   7.196  0.00  0.00    +0.057 A 
ATOM     19  O   UNL     1      -8.175  -4.819   9.360  0.00  0.00    -0.453 OA
ATOM     20  C   UNL     1      -7.623  -4.915  10.686  0.00  0.00    +0.466 C 
ATOM     21  O   UNL     1      -6.552  -3.952  10.681  0.00  0.00    -0.453 OA
ENDBRANCH   9  13
BRANCH   2  22
ATOM     22  O   UNL     1       0.061  -5.013   0.911  0.00  0.00    -0.506 OA
ATOM     23  H   UNL     1       0.527  -4.190   0.709  0.00  0.00    +0.292 HD
ENDBRANCH   2  22
BRANCH   1  24
ATOM     24  C   UNL     1      -2.613  -4.175   0.653  0.00  0.00    -0.036 C 
BRANCH  24  25
ATOM     25  N   UNL     1      -2.413  -2.738   0.419  0.00  0.00    +0.383 N 
ATOM     26  H   UNL     1      -2.785  -2.215   1.197  0.00  0.00    -0.081 HD
BRANCH  25  27
ATOM     27  C   UNL     1      -0.977  -2.460   0.284  0.00  0.00    -0.078 C 
BRANCH  27  28
ATOM     28  C   UNL     1      -0.760  -0.952   0.147  0.00  0.00    -0.019 C 
BRANCH  28  30
ATOM     29  C   UNL     1       0.957   0.858   0.006  0.00  0.00    +0.004 C 
ATOM     30  C   UNL     1       0.740  -0.650   0.143  0.00  0.00    -0.005 C 
ENDBRANCH  28  30
ENDBRANCH  27  28
ENDBRANCH  25  27
BRANCH  25  31
ATOM     31  C   UNL     1      -3.106  -2.342  -0.814  0.00  0.00    -0.078 C 
BRANCH  31  32
ATOM     32  C   UNL     1      -4.616  -2.494  -0.621  0.00  0.00    -0.019 C 
BRANCH  32  33
ATOM     33  C   UNL     1      -5.345  -1.956  -1.854  0.00  0.00    -0.005 C 
ATOM     34  C   UNL     1      -6.855  -2.108  -1.661  0.00  0.00    +0.004 C 
ENDBRANCH  32  33
ENDBRANCH  31  32
ENDBRANCH  25  31
ENDBRANCH  24  25
ENDBRANCH   1  24
TORSDOF 10
