REMARK  Name = ZINC39711414
REMARK  11 active torsions:
REMARK  status: ('A' for Active; 'I' for Inactive)
REMARK    1  A    between atoms: C_1  and  C_2
REMARK    2  A    between atoms: C_2  and  O_3
REMARK    3  A    between atoms: O_3  and  C_4
REMARK    4  A    between atoms: C_11  and  C_16
REMARK    5  A    between atoms: C_16  and  C_18
REMARK    6  A    between atoms: C_16  and  N_28
REMARK    7  A    between atoms: N_23  and  C_24
REMARK    8  A    between atoms: C_24  and  C_25
REMARK    9  A    between atoms: C_24  and  C_26
REMARK   10  A    between atoms: C_24  and  C_27
REMARK   11  A    between atoms: N_31  and  C_34
REMARK                            x       y       z     vdW  Elec       q    Type
REMARK                         _______ _______ _______ _____ _____    ______ ____
ROOT
ATOM      1  C   UNL     1       3.992  -6.233   3.057  0.00  0.00    +0.115 C 
ENDROOT
BRANCH   1   9
ATOM      2  C   UNL     1      -0.754  -9.525   2.209  0.00  0.00    +0.121 A 
ATOM      3  C   UNL     1      -0.750  -9.956   3.541  0.00  0.00    +0.047 A 
ATOM      4  C   UNL     1       0.020  -9.373   4.496  0.00  0.00    +0.027 A 
ATOM      5  C   UNL     1       0.863  -8.293   4.175  0.00  0.00    +0.041 A 
ATOM      6  N   UNL     1       1.614  -7.731   5.122  0.00  0.00    -0.284 N 
ATOM      7  C   UNL     1       2.426  -6.713   4.891  0.00  0.00    +0.226 C 
ATOM      8  O   UNL     1       3.088  -6.242   5.797  0.00  0.00    -0.275 OA
ATOM      9  C   UNL     1       2.530  -6.138   3.497  0.00  0.00    +0.119 C 
ATOM     10  C   UNL     1       1.678  -6.773   2.416  0.00  0.00    -0.003 C 
ATOM     11  C   UNL     1       0.881  -7.817   2.780  0.00  0.00    -0.004 A 
ATOM     12  C   UNL     1       0.031  -8.491   1.798  0.00  0.00    +0.055 A 
ATOM     13  H   UNL     1       1.562  -8.085   6.024  0.00  0.00    +0.155 HD
BRANCH   2  14
ATOM     14  O   UNL     1      -1.552 -10.156   1.307  0.00  0.00    -0.492 OA
BRANCH  14  16
ATOM     15  C   UNL     1      -3.178 -11.816   0.642  0.00  0.00    +0.048 C 
ATOM     16  C   UNL     1      -2.354 -11.234   1.793  0.00  0.00    +0.225 C 
ENDBRANCH  14  16
ENDBRANCH   2  14
ENDBRANCH   1   9
BRANCH   1  17
ATOM     17  N   UNL     1       4.382  -7.646   2.954  0.00  0.00    -0.299 NA
ATOM     18  C   UNL     1       5.834  -7.780   2.773  0.00  0.00    +0.066 C 
ATOM     19  C   UNL     1       6.205  -9.264   2.730  0.00  0.00    -0.063 C 
ATOM     20  N   UNL     1       5.494  -9.915   1.622  0.00  0.00    +0.383 N 
ATOM     21  C   UNL     1       4.044  -9.794   1.830  0.00  0.00    -0.063 C 
ATOM     22  C   UNL     1       3.656  -8.314   1.865  0.00  0.00    +0.066 C 
ATOM     23  H   UNL     1       5.747  -9.470   0.752  0.00  0.00    -0.081 HD
BRANCH  20  24
ATOM     24  C   UNL     1       5.864 -11.336   1.570  0.00  0.00    -0.068 C 
ATOM     25  C   UNL     1       7.372 -11.462   1.352  0.00  0.00    -0.015 C 
ATOM     26  C   UNL     1       7.758 -12.942   1.298  0.00  0.00    -0.002 C 
ATOM     27  C   UNL     1       7.017 -13.620   0.144  0.00  0.00    -0.000 C 
ATOM     28  C   UNL     1       5.508 -13.494   0.362  0.00  0.00    -0.002 C 
ATOM     29  C   UNL     1       5.123 -12.014   0.416  0.00  0.00    -0.015 C 
ENDBRANCH  20  24
ENDBRANCH   1  17
BRANCH   1  30
ATOM     30  C   UNL     1       4.881  -5.533   4.087  0.00  0.00    +0.236 C 
ATOM     31  N   UNL     1       4.636  -6.077   5.430  0.00  0.00    -0.148 NA
ATOM     32  N   UNL     1       4.224  -5.171   6.158  0.00  0.00    -0.069 NA
ATOM     33  N   UNL     1       4.122  -3.948   5.497  0.00  0.00    -0.179 N 
ATOM     34  N   UNL     1       4.521  -4.103   4.192  0.00  0.00    -0.179 NA
ATOM     35  H   UNL     1       3.818  -3.117   5.896  0.00  0.00    +0.191 HD
BRANCH  34  36
ATOM     36  C   UNL     1       3.433  -3.765   3.264  0.00  0.00    +0.035 C 
ATOM     37  C   UNL     1       2.088  -3.925   3.976  0.00  0.00    +0.029 C 
ATOM     38  C   UNL     1       3.594  -2.317   2.796  0.00  0.00    +0.029 C 
ATOM     39  C   UNL     1       3.485  -4.700   2.055  0.00  0.00    +0.029 C 
ENDBRANCH  34  36
ENDBRANCH   1  30
TORSDOF 7
