REMARK  Name = ZINC11718162
REMARK  7 active torsions:
REMARK  status: ('A' for Active; 'I' for Inactive)
REMARK    1  A    between atoms: C_1  and  C_2
REMARK    2  A    between atoms: C_2  and  C_4
REMARK    3  A    between atoms: C_2  and  N_49
REMARK    4  A    between atoms: N_6  and  C_7
REMARK    5  A    between atoms: C_17  and  N_20
REMARK    6  A    between atoms: N_20  and  S_21
REMARK    7  A    between atoms: S_21  and  C_24
REMARK                            x       y       z     vdW  Elec       q    Type
REMARK                         _______ _______ _______ _____ _____    ______ ____
ROOT
ATOM      1  C   UNL     1      -1.690   6.808   4.431  0.00  0.00    -0.076 C 
ATOM      2  C   UNL     1      -2.706   6.135   3.505  0.00  0.00    +0.002 C 
ATOM      3  C   UNL     1      -1.965   5.247   2.502  0.00  0.00    +0.073 C 
ATOM      4  C   UNL     1      -1.127   4.216   3.264  0.00  0.00    +0.002 C 
ATOM      5  C   UNL     1      -0.158   4.944   4.199  0.00  0.00    -0.076 C 
ATOM      6  N   UNL     1      -0.935   5.763   5.154  0.00  0.00    +0.387 N 
ATOM      7  H   UNL     1      -1.598   5.156   5.650  0.00  0.00    -0.081 HD
ENDROOT
BRANCH   6   9
ATOM      8  C   UNL     1       1.025   7.244   5.432  0.00  0.00    -0.004 C 
ATOM      9  C   UNL     1      -0.026   6.386   6.139  0.00  0.00    +0.016 C 
BRANCH   9  10
ATOM     10  C   UNL     1       0.659   5.299   6.926  0.00  0.00    +0.203 C 
ATOM     11  O   UNL     1       0.429   4.134   6.679  0.00  0.00    -0.277 OA
ATOM     12  N   UNL     1       1.527   5.622   7.906  0.00  0.00    -0.286 N 
ATOM     13  H   UNL     1       1.772   6.549   8.050  0.00  0.00    +0.155 HD
BRANCH  12  14
ATOM     14  C   UNL     1       2.075   4.619   8.714  0.00  0.00    +0.053 A 
ATOM     15  C   UNL     1       1.399   3.418   8.887  0.00  0.00    +0.025 A 
ATOM     16  C   UNL     1       1.942   2.430   9.685  0.00  0.00    +0.003 A 
ATOM     17  C   UNL     1       3.158   2.633  10.310  0.00  0.00    +0.021 A 
ATOM     18  C   UNL     1       3.835   3.828  10.140  0.00  0.00    +0.061 A 
ATOM     19  C   UNL     1       3.299   4.820   9.339  0.00  0.00    +0.080 A 
ATOM     20 CL   UNL     1       4.152   6.316   9.120  0.00  0.00    -0.080 Cl
ATOM     21 CL   UNL     1       5.362   4.079  10.928  0.00  0.00    -0.082 Cl
ENDBRANCH  12  14
ENDBRANCH   9  10
ENDBRANCH   6   9
BRANCH   3  22
ATOM     22  N   UNL     1      -2.935   4.555   1.650  0.00  0.00    -0.187 NA
ATOM     23  H   UNL     1      -3.787   4.271   2.017  0.00  0.00    +0.148 HD
BRANCH  22  24
ATOM     24  S   UNL     1      -2.579   4.260   0.060  0.00  0.00    +0.065 S 
ATOM     25  O   UNL     1      -2.108   5.484  -0.485  0.00  0.00    -0.153 OA
ATOM     26  O   UNL     1      -3.691   3.561  -0.482  0.00  0.00    -0.153 OA
BRANCH  24  27
ATOM     27  C   UNL     1      -1.219   3.140   0.031  0.00  0.00    +0.142 A 
ATOM     28  C   UNL     1      -1.229   1.784   0.011  0.00  0.00    +0.036 A 
ATOM     29  C   UNL     1      -0.025   1.105  -0.006  0.00  0.00    +0.010 A 
ATOM     30  C   UNL     1       1.130   1.815  -0.015  0.00  0.00    +0.047 A 
ATOM     31  S   UNL     1       0.531   3.496   0.010  0.00  0.00    -0.077 S 
ENDBRANCH  24  27
ENDBRANCH  22  24
ENDBRANCH   3  22
TORSDOF 6
