REMARK  Name = ZINC41116765
REMARK  5 active torsions:
REMARK  status: ('A' for Active; 'I' for Inactive)
REMARK    1  A    between atoms: C_3  and  C_9
REMARK    2  A    between atoms: C_4  and  O_8
REMARK    3  A    between atoms: C_5  and  O_7
REMARK    4  A    between atoms: C_9  and  N_10
REMARK    5  A    between atoms: N_10  and  C_11
REMARK                            x       y       z     vdW  Elec       q    Type
REMARK                         _______ _______ _______ _____ _____    ______ ____
ROOT
ATOM      1  C   UNL     1       3.700   2.157  -0.014  0.00  0.00    +0.140 C 
ENDROOT
BRANCH   1   4
ATOM      2  C   UNL     1      -0.034   1.595   0.074  0.00  0.00    +0.004 A 
ATOM      3  C   UNL     1       1.199   2.220   0.073  0.00  0.00    +0.009 A 
ATOM      4  C   UNL     1       2.357   1.471  -0.013  0.00  0.00    +0.015 A 
ATOM      5  C   UNL     1       2.285   0.090  -0.098  0.00  0.00    +0.163 A 
ATOM      6  C   UNL     1       1.044  -0.540  -0.097  0.00  0.00    +0.159 A 
ATOM      7  C   UNL     1      -0.114   0.217  -0.011  0.00  0.00    +0.049 A 
BRANCH   6   8
ATOM      8  O   UNL     1       0.967  -1.895  -0.181  0.00  0.00    -0.503 OA
ATOM      9  H   UNL     1       0.974  -2.343   0.676  0.00  0.00    +0.292 HD
ENDBRANCH   6   8
BRANCH   5  10
ATOM     10  O   UNL     1       3.424  -0.648  -0.183  0.00  0.00    -0.503 OA
ATOM     11  H   UNL     1       3.782  -0.918   0.674  0.00  0.00    +0.292 HD
ENDBRANCH   5  10
ENDBRANCH   1   4
BRANCH   1  12
ATOM     12  N   UNL     1       4.198   2.251  -1.388  0.00  0.00    -0.337 N 
ATOM     13  H   UNL     1       3.737   1.787  -2.104  0.00  0.00    +0.146 HD
BRANCH  12  14
ATOM     14  C   UNL     1       5.339   3.011  -1.667  0.00  0.00    +0.065 A 
ATOM     15  C   UNL     1       5.605   3.414  -2.970  0.00  0.00    +0.064 A 
ATOM     16  C   UNL     1       6.733   4.165  -3.243  0.00  0.00    +0.037 A 
ATOM     17  C   UNL     1       7.597   4.515  -2.220  0.00  0.00    +0.021 A 
ATOM     18  C   UNL     1       7.335   4.115  -0.922  0.00  0.00    +0.037 A 
ATOM     19  C   UNL     1       6.205   3.369  -0.642  0.00  0.00    +0.064 A 
ATOM     20 CL   UNL     1       5.873   2.875   0.989  0.00  0.00    -0.082 Cl
ATOM     21 BR   UNL     1       9.139   5.542  -2.598  0.00  0.00    -0.050 Br
ATOM     22 CL   UNL     1       4.522   2.975  -4.254  0.00  0.00    -0.082 Cl
ENDBRANCH  12  14
ENDBRANCH   1  12
TORSDOF 5
