REMARK  Name = ZINC67158757
REMARK  10 active torsions:
REMARK  status: ('A' for Active; 'I' for Inactive)
REMARK    1  A    between atoms: C_1  and  C_2
REMARK    2  A    between atoms: C_9  and  C_11
REMARK    3  A    between atoms: C_18  and  C_20
REMARK    4  A    between atoms: C_20  and  C_21
REMARK    5  A    between atoms: C_21  and  N_22
REMARK    6  A    between atoms: C_23  and  O_25
REMARK    7  A    between atoms: O_25  and  C_26
REMARK    8  A    between atoms: C_26  and  C_27
REMARK    9  A    between atoms: C_26  and  C_28
REMARK   10  A    between atoms: C_26  and  C_29
REMARK                            x       y       z     vdW  Elec       q    Type
REMARK                         _______ _______ _______ _____ _____    ______ ____
ROOT
ATOM      1  C   UNL     1       0.090  -5.594   2.249  0.00  0.00    +0.072 C 
ATOM      2  C   UNL     1       1.534  -5.966   2.593  0.00  0.00    +0.014 C 
ATOM      3  C   UNL     1       1.561  -7.335   3.277  0.00  0.00    +0.020 C 
ATOM      4  C   UNL     1       0.757  -7.265   4.580  0.00  0.00    +0.108 C 
ATOM      5  N   UNL     1      -0.592  -6.768   4.277  0.00  0.00    -0.301 N 
ATOM      6  C   UNL     1      -0.731  -5.505   3.540  0.00  0.00    +0.119 C 
ATOM      7  C   UNL     1      -1.682  -7.459   4.667  0.00  0.00    +0.217 C 
ATOM      8  O   UNL     1      -2.790  -7.038   4.411  0.00  0.00    -0.276 OA
ENDROOT
BRANCH   1  17
ATOM      9  C   UNL     1      -0.018   1.503   0.010  0.00  0.00    +0.044 C 
ATOM     10  C   UNL     1       0.002  -0.004   0.002  0.00  0.00    -0.048 A 
ATOM     11  C   UNL     1       0.006  -0.687  -1.206  0.00  0.00    +0.005 A 
ATOM     12  C   UNL     1       0.024  -2.052  -1.235  0.00  0.00    +0.030 A 
ATOM     13  C   UNL     1       0.040  -2.774  -0.039  0.00  0.00    +0.089 A 
ATOM     14  C   UNL     1       0.037  -2.083   1.185  0.00  0.00    +0.066 A 
ATOM     15  C   UNL     1       0.023  -0.695   1.195  0.00  0.00    +0.031 A 
ATOM     16  N   UNL     1       0.055  -3.051   2.169  0.00  0.00    -0.342 N 
ATOM     17  C   UNL     1       0.068  -4.261   1.546  0.00  0.00    +0.113 A 
ATOM     18  N   UNL     1       0.059  -4.099   0.255  0.00  0.00    -0.232 NA
ATOM     19  H   UNL     1       0.058  -2.898   3.127  0.00  0.00    +0.167 HD
ENDBRANCH   1  17
BRANCH   7  20
ATOM     20  C   UNL     1      -1.523  -8.753   5.421  0.00  0.00    +0.115 C 
BRANCH  20  21
ATOM     21  C   UNL     1      -2.904  -9.329   5.742  0.00  0.00    +0.116 C 
BRANCH  21  22
ATOM     22  N   UNL     1      -2.750 -10.588   6.476  0.00  0.00    -0.281 N 
ATOM     23  C   UNL     1      -3.840 -11.278   6.866  0.00  0.00    +0.401 C 
ATOM     24  O   UNL     1      -4.950 -10.856   6.609  0.00  0.00    -0.226 OA
ATOM     25  H   UNL     1      -1.864 -10.924   6.681  0.00  0.00    +0.152 HD
BRANCH  23  26
ATOM     26  O   UNL     1      -3.698 -12.435   7.540  0.00  0.00    -0.445 OA
BRANCH  26  27
ATOM     27  C   UNL     1      -4.896 -13.114   7.923  0.00  0.00    +0.107 C 
ATOM     28  C   UNL     1      -5.706 -13.463   6.673  0.00  0.00    +0.055 C 
ATOM     29  C   UNL     1      -4.537 -14.398   8.674  0.00  0.00    +0.055 C 
ATOM     30  C   UNL     1      -5.728 -12.207   8.832  0.00  0.00    +0.055 C 
ENDBRANCH  26  27
ENDBRANCH  23  26
ENDBRANCH  21  22
ENDBRANCH  20  21
ENDBRANCH   7  20
TORSDOF 6
