REMARK  Name = ZINC45166018
REMARK  7 active torsions:
REMARK  status: ('A' for Active; 'I' for Inactive)
REMARK    1  A    between atoms: C_1  and  C_2
REMARK    2  A    between atoms: C_2  and  C_3
REMARK    3  A    between atoms: C_7  and  C_21
REMARK    4  A    between atoms: C_8  and  N_9
REMARK    5  A    between atoms: N_9  and  S_10
REMARK    6  A    between atoms: S_10  and  C_13
REMARK    7  A    between atoms: C_14  and  N_20
REMARK                            x       y       z     vdW  Elec       q    Type
REMARK                         _______ _______ _______ _____ _____    ______ ____
ROOT
ATOM      1  S   UNL     1      -2.184   1.248  -3.577  0.00  0.00    +0.076 S 
ATOM      2  O   UNL     1      -1.699   0.902  -4.867  0.00  0.00    -0.150 OA
ATOM      3  O   UNL     1      -3.540   1.603  -3.342  0.00  0.00    -0.150 OA
ENDROOT
BRANCH   1   4
ATOM      4  C   UNL     1      -1.205   2.603  -3.018  0.00  0.00    +0.147 A 
ATOM      5  C   UNL     1      -1.637   3.379  -1.950  0.00  0.00    +0.053 A 
ATOM      6  C   UNL     1      -0.862   4.446  -1.513  0.00  0.00    +0.025 A 
ATOM      7  C   UNL     1       0.335   4.732  -2.141  0.00  0.00    +0.003 A 
ATOM      8  C   UNL     1       0.762   3.958  -3.204  0.00  0.00    +0.022 A 
ATOM      9  C   UNL     1      -0.004   2.890  -3.638  0.00  0.00    +0.069 A 
ATOM     10 CL   UNL     1       0.540   1.917  -4.968  0.00  0.00    -0.081 Cl
BRANCH   5  11
ATOM     11  N   UNL     1      -2.847   3.088  -1.317  0.00  0.00    -0.356 N 
ATOM     12  H   UNL     1      -3.292   2.243  -1.487  0.00  0.00    +0.142 HD
ATOM     13  H   UNL     1      -3.243   3.730  -0.708  0.00  0.00    +0.142 HD
ENDBRANCH   5  11
ENDBRANCH   1   4
BRANCH   1  14
ATOM     14  N   UNL     1      -1.853  -0.036  -2.586  0.00  0.00    -0.216 N 
ATOM     15  H   UNL     1      -1.424  -0.829  -2.945  0.00  0.00    +0.174 HD
BRANCH  14  21
ATOM     16  C   UNL     1      -1.197  -0.023  -0.263  0.00  0.00    -0.025 A 
ATOM     17  C   UNL     1      -1.535   0.040   1.075  0.00  0.00    +0.005 A 
ATOM     18  C   UNL     1      -2.862   0.139   1.450  0.00  0.00    +0.001 A 
ATOM     19  C   UNL     1      -3.856   0.176   0.488  0.00  0.00    +0.005 A 
ATOM     20  C   UNL     1      -3.525   0.115  -0.851  0.00  0.00    -0.028 A 
ATOM     21  C   UNL     1      -2.192   0.020  -1.232  0.00  0.00    +0.054 A 
ATOM     22  C   UNL     1      -4.608   0.155  -1.898  0.00  0.00    +0.046 C 
BRANCH  16  24
ATOM     23  C   UNL     1       0.802   1.265  -0.967  0.00  0.00    +0.009 C 
ATOM     24  C   UNL     1       0.249  -0.131  -0.671  0.00  0.00    +0.033 C 
ENDBRANCH  16  24
ENDBRANCH  14  21
ENDBRANCH   1  14
TORSDOF 5
