REMARK  Name = ZINC20295027
REMARK  12 active torsions:
REMARK  status: ('A' for Active; 'I' for Inactive)
REMARK    1  A    between atoms: C_1  and  C_2
REMARK    2  A    between atoms: C_3  and  C_29
REMARK    3  A    between atoms: C_4  and  N_10
REMARK    4  A    between atoms: C_6  and  C_7
REMARK    5  A    between atoms: C_11  and  C_13
REMARK    6  A    between atoms: C_13  and  N_14
REMARK    7  A    between atoms: N_17  and  C_20
REMARK    8  A    between atoms: C_23  and  N_26
REMARK    9  A    between atoms: C_29  and  O_31
REMARK   10  A    between atoms: O_31  and  C_32
REMARK   11  A    between atoms: C_32  and  C_33
REMARK   12  A    between atoms: C_32  and  C_34
REMARK                            x       y       z     vdW  Elec       q    Type
REMARK                         _______ _______ _______ _____ _____    ______ ____
ROOT
ATOM      1  N   UNL     1       5.185  -0.213   3.273  0.00  0.00    -0.281 N 
ATOM      2  C   UNL     1       4.255   0.181   2.380  0.00  0.00    +0.201 C 
ATOM      3  O   UNL     1       4.505   1.075   1.600  0.00  0.00    -0.278 OA
ATOM      4  H   UNL     1       4.958  -1.024   3.981  0.00  0.00    +0.155 HD
ENDROOT
BRANCH   1   8
ATOM      5  C   UNL     1       9.872   0.678   4.831  0.00  0.00    +0.046 C 
ATOM      6  C   UNL     1       8.656   0.896   3.968  0.00  0.00    -0.015 A 
ATOM      7  C   UNL     1       7.508   0.137   4.139  0.00  0.00    +0.091 A 
ATOM      8  C   UNL     1       6.422   0.400   3.298  0.00  0.00    +0.087 A 
ATOM      9  S   UNL     1       7.014   1.681   2.291  0.00  0.00    -0.068 S 
ATOM     10  C   UNL     1       8.646   1.851   2.987  0.00  0.00    +0.079 A 
BRANCH  10  11
ATOM     11  C   UNL     1       9.713   2.777   2.602  0.00  0.00    +0.248 C 
ATOM     12  O   UNL     1      10.780   2.754   3.188  0.00  0.00    -0.270 OA
ATOM     13  N   UNL     1       9.513   3.656   1.600  0.00  0.00    -0.325 N 
ATOM     14  H   UNL     1      10.314   4.352   1.310  0.00  0.00    +0.145 HD
ATOM     15  H   UNL     1       8.549   3.676   1.071  0.00  0.00    +0.145 HD
ENDBRANCH  10  11
BRANCH   7  16
ATOM     16  C   UNL     1       7.436  -0.907   5.168  0.00  0.00    +0.342 C 
ATOM     17  O   UNL     1       7.770  -2.046   4.904  0.00  0.00    -0.245 OA
BRANCH  16  18
ATOM     18  O   UNL     1       6.999  -0.603   6.407  0.00  0.00    -0.458 OA
BRANCH  18  19
ATOM     19  C   UNL     1       6.954  -1.685   7.374  0.00  0.00    +0.171 C 
ATOM     20  C   UNL     1       7.179  -1.124   8.779  0.00  0.00    +0.052 C 
ATOM     21  C   UNL     1       5.586  -2.369   7.311  0.00  0.00    +0.052 C 
ENDBRANCH  18  19
ENDBRANCH  16  18
ENDBRANCH   7  16
ENDBRANCH   1   8
BRANCH   2  22
ATOM     22  C   UNL     1       2.905  -0.488   2.352  0.00  0.00    +0.019 C 
BRANCH  22  23
ATOM     23  N   UNL     1       2.135   0.012   1.206  0.00  0.00    +0.387 N 
ATOM     24  C   UNL     1       2.749  -0.403  -0.063  0.00  0.00    -0.059 C 
ATOM     25  C   UNL     1       1.964   0.203  -1.229  0.00  0.00    +0.086 C 
ATOM     26  N   UNL     1       0.565  -0.240  -1.156  0.00  0.00    -0.333 N 
ATOM     27  C   UNL     1      -0.050   0.175   0.113  0.00  0.00    +0.086 C 
ATOM     28  C   UNL     1       0.735  -0.430   1.279  0.00  0.00    -0.059 C 
ATOM     29  H   UNL     1       2.146   1.111   1.246  0.00  0.00    -0.081 HD
BRANCH  26  30
ATOM     30  C   UNL     1      -0.168   0.235  -2.246  0.00  0.00    +0.030 A 
ATOM     31  C   UNL     1       0.450   1.021  -3.210  0.00  0.00    +0.025 A 
ATOM     32  C   UNL     1      -0.277   1.485  -4.290  0.00  0.00    +0.034 A 
ATOM     33  C   UNL     1      -1.620   1.177  -4.405  0.00  0.00    +0.126 A 
ATOM     34  C   UNL     1      -2.239   0.399  -3.444  0.00  0.00    +0.034 A 
ATOM     35  C   UNL     1      -1.518  -0.072  -2.365  0.00  0.00    +0.025 A 
BRANCH  33  36
ATOM     36  N   UNL     1      -2.396   1.679  -5.560  0.00  0.00    +0.056 N 
ATOM     37  O   UNL     1      -3.579   1.409  -5.664  0.00  0.00    -0.126 OA
ATOM     38  O   UNL     1      -1.852   2.365  -6.408  0.00  0.00    -0.126 OA
ENDBRANCH  33  36
ENDBRANCH  26  30
ENDBRANCH  22  23
ENDBRANCH   2  22
TORSDOF 9
