REMARK  Name = ZINC20604115
REMARK  5 active torsions:
REMARK  status: ('A' for Active; 'I' for Inactive)
REMARK    1  A    between atoms: C_3  and  N_11
REMARK    2  A    between atoms: C_6  and  C_7
REMARK    3  A    between atoms: N_11  and  S_12
REMARK    4  A    between atoms: S_12  and  C_15
REMARK    5  A    between atoms: C_18  and  N_21
REMARK                            x       y       z     vdW  Elec       q    Type
REMARK                         _______ _______ _______ _____ _____    ______ ____
ROOT
ATOM      1  S   UNL     1      -0.125   1.646   0.070  0.00  0.00    +0.092 S 
ATOM      2  O   UNL     1      -0.820   2.260  -1.007  0.00  0.00    -0.148 OA
ATOM      3  O   UNL     1      -0.570   1.741   1.416  0.00  0.00    -0.148 OA
ENDROOT
BRANCH   1   4
ATOM      4  C   UNL     1       1.518   2.282   0.036  0.00  0.00    +0.110 A 
ATOM      5  C   UNL     1       2.240   2.392   1.210  0.00  0.00    +0.031 A 
ATOM      6  C   UNL     1       3.529   2.885   1.187  0.00  0.00    +0.026 A 
ATOM      7  C   UNL     1       4.098   3.281  -0.017  0.00  0.00    +0.051 A 
ATOM      8  C   UNL     1       3.368   3.175  -1.194  0.00  0.00    +0.026 A 
ATOM      9  C   UNL     1       2.081   2.676  -1.164  0.00  0.00    +0.031 A 
BRANCH   7  10
ATOM     10  N   UNL     1       5.400   3.785  -0.044  0.00  0.00    -0.207 N 
ATOM     11  C   UNL     1       5.995   4.414   1.145  0.00  0.00    +0.131 C 
ATOM     12  C   UNL     1       7.283   3.682   1.517  0.00  0.00    +0.022 C 
ATOM     13  C   UNL     1       8.331   3.840   0.417  0.00  0.00    +0.026 C 
ATOM     14  C   UNL     1       7.912   3.033  -0.817  0.00  0.00    +0.189 C 
ATOM     15  S   UNL     1       6.330   3.687  -1.421  0.00  0.00    +0.045 S 
ATOM     16  O   UNL     1       5.678   2.725  -2.239  0.00  0.00    -0.155 OA
ATOM     17  O   UNL     1       6.487   5.030  -1.857  0.00  0.00    -0.155 OA
ENDBRANCH   7  10
ENDBRANCH   1   4
BRANCH   1  18
ATOM     18  N   UNL     1      -0.032   0.031  -0.285  0.00  0.00    -0.098 NA
BRANCH  18  21
ATOM     19  C   UNL     1       0.742  -2.074   2.626  0.00  0.00    +0.014 A 
ATOM     20  C   UNL     1       0.068  -1.217   1.778  0.00  0.00    +0.027 A 
ATOM     21  C   UNL     1       0.647  -0.835   0.575  0.00  0.00    +0.074 A 
ATOM     22  C   UNL     1       1.901  -1.320   0.226  0.00  0.00    +0.027 A 
ATOM     23  C   UNL     1       2.572  -2.173   1.081  0.00  0.00    +0.014 A 
ATOM     24  C   UNL     1       1.992  -2.551   2.278  0.00  0.00    +0.055 A 
BRANCH  24  25
ATOM     25  C   UNL     1       2.725  -3.486   3.206  0.00  0.00    +0.417 C 
ATOM     26  F   UNL     1       2.390  -4.808   2.895  0.00  0.00    -0.166 F 
ATOM     27  F   UNL     1       4.104  -3.306   3.055  0.00  0.00    -0.166 F 
ATOM     28  F   UNL     1       2.360  -3.211   4.528  0.00  0.00    -0.166 F 
ENDBRANCH  24  25
ENDBRANCH  18  21
ENDBRANCH   1  18
TORSDOF 5
