REMARK  Name = ZINC64375482
REMARK  8 active torsions:
REMARK  status: ('A' for Active; 'I' for Inactive)
REMARK    1  A    between atoms: C_1  and  O_2
REMARK    2  A    between atoms: O_2  and  C_3
REMARK    3  A    between atoms: C_6  and  C_9
REMARK    4  A    between atoms: N_11  and  C_12
REMARK    5  A    between atoms: C_21  and  C_23
REMARK    6  A    between atoms: N_25  and  C_26
REMARK    7  A    between atoms: C_26  and  C_27
REMARK    8  A    between atoms: C_27  and  C_28
REMARK                            x       y       z     vdW  Elec       q    Type
REMARK                         _______ _______ _______ _____ _____    ______ ____
ROOT
ATOM      1  C   UNL     1      -6.304  -4.645   0.043  0.00  0.00    +0.220 C 
ATOM      2  N   UNL     1      -6.145  -6.100   0.308  0.00  0.00    -0.320 N 
ATOM      3  C   UNL     1      -5.774  -6.802  -0.800  0.00  0.00    +0.027 C 
ATOM      4  C   UNL     1      -6.615  -6.446  -2.030  0.00  0.00    +0.094 C 
ATOM      5  S   UNL     1      -7.045  -4.697  -1.647  0.00  0.00    -0.110 S 
ATOM      6  C   UNL     1      -5.668  -6.494  -3.231  0.00  0.00    +0.020 C 
ATOM      7  C   UNL     1      -5.141  -7.925  -3.355  0.00  0.00    +0.006 C 
ATOM      8  C   UNL     1      -4.333  -8.343  -2.141  0.00  0.00    +0.042 C 
ATOM      9  C   UNL     1      -4.763  -7.694  -0.867  0.00  0.00    +0.032 C 
ATOM     10  H   UNL     1      -6.291  -6.506   1.177  0.00  0.00    +0.148 HD
ENDROOT
BRANCH   1  13
ATOM     11  C   UNL     1      -4.956  -2.616   0.035  0.00  0.00    +0.246 C 
ATOM     12  O   UNL     1      -5.984  -1.968   0.044  0.00  0.00    -0.270 OA
ATOM     13  N   UNL     1      -5.008  -3.963   0.034  0.00  0.00    -0.284 N 
ATOM     14  H   UNL     1      -4.187  -4.480   0.027  0.00  0.00    +0.152 HD
BRANCH  11  18
ATOM     15  C   UNL     1      -1.199  -0.637   0.010  0.00  0.00    +0.120 A 
ATOM     16  C   UNL     1      -2.373   0.106   0.019  0.00  0.00    +0.046 A 
ATOM     17  C   UNL     1      -3.594  -0.532   0.028  0.00  0.00    +0.016 A 
ATOM     18  C   UNL     1      -3.650  -1.928   0.026  0.00  0.00    +0.037 A 
ATOM     19  C   UNL     1      -2.467  -2.671   0.016  0.00  0.00    +0.016 A 
ATOM     20  C   UNL     1      -1.250  -2.026   0.003  0.00  0.00    +0.046 A 
BRANCH  15  22
ATOM     21  C   UNL     1      -0.017   1.425   0.010  0.00  0.00    +0.277 C 
ATOM     22  O   UNL     1       0.002  -0.004   0.002  0.00  0.00    -0.495 OA
ENDBRANCH  15  22
ENDBRANCH  11  18
ENDBRANCH   1  13
BRANCH   9  23
ATOM     23  C   UNL     1      -4.080  -8.030   0.325  0.00  0.00    +0.242 C 
ATOM     24  O   UNL     1      -4.407  -7.517   1.380  0.00  0.00    -0.270 OA
ATOM     25  N   UNL     1      -3.066  -8.917   0.294  0.00  0.00    -0.311 N 
ATOM     26  H   UNL     1      -2.804  -9.326  -0.546  0.00  0.00    +0.149 HD
BRANCH  25  27
ATOM     27  C   UNL     1      -2.358  -9.265   1.528  0.00  0.00    +0.109 C 
BRANCH  27  28
ATOM     28  C   UNL     1      -1.260 -10.285   1.218  0.00  0.00    +0.052 C 
BRANCH  28  29
ATOM     29  C   UNL     1      -0.532 -10.642   2.488  0.00  0.00    -0.040 C 
ATOM     30  C   UNL     1      -0.777 -11.699   3.295  0.00  0.00    -0.001 A 
ATOM     31  C   UNL     1      -1.757 -12.790   3.236  0.00  0.00    +0.010 A 
ATOM     32  C   UNL     1      -1.759 -13.724   4.214  0.00  0.00    +0.001 A 
ATOM     33  C   UNL     1      -0.851 -13.676   5.281  0.00  0.00    +0.002 A 
ATOM     34  C   UNL     1       0.079 -12.705   5.404  0.00  0.00    +0.026 A 
ATOM     35  C   UNL     1       0.172 -11.672   4.432  0.00  0.00    +0.043 A 
ATOM     36  N   UNL     1       0.972 -10.638   4.330  0.00  0.00    -0.380 N 
ATOM     37  C   UNL     1       0.624  -9.895   3.114  0.00  0.00    +0.144 C 
ATOM     38  H   UNL     1       1.678 -10.405   4.953  0.00  0.00    +0.160 HD
ENDBRANCH  28  29
ENDBRANCH  27  28
ENDBRANCH  25  27
ENDBRANCH   9  23
TORSDOF 7
