REMARK  Name = ZINC08507520
REMARK  4 active torsions:
REMARK  status: ('A' for Active; 'I' for Inactive)
REMARK    1  A    between atoms: C_1  and  C_2
REMARK    2  A    between atoms: C_5  and  C_8
REMARK    3  A    between atoms: C_23  and  C_25
REMARK    4  A    between atoms: C_23  and  C_26
REMARK                            x       y       z     vdW  Elec       q    Type
REMARK                         _______ _______ _______ _____ _____    ______ ____
ROOT
ATOM      1  C   UNL     1       0.059  -4.275  -0.021  0.00  0.00    +0.090 C 
ATOM      2  C   UNL     1      -1.169  -4.786   0.672  0.00  0.00    +0.042 A 
ATOM      3  C   UNL     1      -2.410  -4.764   0.019  0.00  0.00    +0.126 A 
ATOM      4  N   UNL     1      -3.491  -5.216   0.646  0.00  0.00    -0.208 NA
ATOM      5  C   UNL     1      -3.417  -5.691   1.886  0.00  0.00    +0.180 A 
ATOM      6  S   UNL     1      -4.835  -6.262   2.655  0.00  0.00    -0.011 S 
ATOM      7  N   UNL     1      -2.244  -5.730   2.547  0.00  0.00    -0.322 N 
ATOM      8  C   UNL     1      -1.103  -5.277   1.944  0.00  0.00    +0.110 A 
ATOM      9  N   UNL     1       0.099  -5.316   2.607  0.00  0.00    -0.304 N 
ATOM     10  C   UNL     1       1.280  -5.245   1.919  0.00  0.00    +0.017 C 
ATOM     11  C   UNL     1       1.314  -4.756   0.662  0.00  0.00    +0.024 C 
ATOM     12  C   UNL     1       2.525  -4.678  -0.049  0.00  0.00    +0.162 C 
ATOM     13  O   UNL     1       2.521  -4.250  -1.186  0.00  0.00    -0.292 OA
ATOM     14  C   UNL     1       3.824  -5.114   0.571  0.00  0.00    +0.086 C 
ATOM     15  C   UNL     1       3.736  -4.934   2.090  0.00  0.00    -0.023 C 
ATOM     16  C   UNL     1       2.536  -5.729   2.600  0.00  0.00    +0.058 C 
ATOM     17  C   UNL     1       3.551  -3.452   2.422  0.00  0.00    +0.011 C 
ATOM     18  C   UNL     1       5.016  -5.457   2.745  0.00  0.00    +0.011 C 
ATOM     19  N   UNL     1      -2.508  -4.276  -1.266  0.00  0.00    -0.343 N 
ATOM     20  H   UNL     1       0.111  -5.395   3.574  0.00  0.00    +0.153 HD
ATOM     21  H   UNL     1      -3.367  -4.262  -1.716  0.00  0.00    +0.144 HD
ATOM     22  H   UNL     1      -1.717  -3.946  -1.721  0.00  0.00    +0.144 HD
ATOM     23  H   UNL     1      -2.209  -6.079   3.451  0.00  0.00    +0.169 HD
ENDROOT
BRANCH   1  28
ATOM     24  C   UNL     1      -0.018   1.503   0.010  0.00  0.00    +0.044 C 
ATOM     25  C   UNL     1       0.002  -0.004   0.002  0.00  0.00    -0.050 A 
ATOM     26  C   UNL     1       0.006  -0.689  -1.199  0.00  0.00    +0.003 A 
ATOM     27  C   UNL     1       0.025  -2.071  -1.206  0.00  0.00    +0.005 A 
ATOM     28  C   UNL     1       0.040  -2.768  -0.013  0.00  0.00    -0.035 A 
ATOM     29  C   UNL     1       0.037  -2.084   1.188  0.00  0.00    +0.005 A 
ATOM     30  C   UNL     1       0.023  -0.702   1.195  0.00  0.00    +0.003 A 
ENDBRANCH   1  28
TORSDOF 1
