REMARK  Name = ZINC15959237
REMARK  7 active torsions:
REMARK  status: ('A' for Active; 'I' for Inactive)
REMARK    1  A    between atoms: C_1  and  C_2
REMARK    2  A    between atoms: C_16  and  C_19
REMARK    3  A    between atoms: C_19  and  C_21
REMARK    4  A    between atoms: C_19  and  O_22
REMARK    5  A    between atoms: N_25  and  C_28
REMARK    6  A    between atoms: C_28  and  C_29
REMARK    7  A    between atoms: C_29  and  C_30
REMARK                            x       y       z     vdW  Elec       q    Type
REMARK                         _______ _______ _______ _____ _____    ______ ____
ROOT
ATOM      1  C   UNL     1      -0.018   1.503   0.010  0.00  0.00    +0.046 C 
ATOM      2  C   UNL     1       0.002  -0.004   0.002  0.00  0.00    -0.028 A 
ATOM      3  C   UNL     1       0.006  -0.685  -1.198  0.00  0.00    +0.025 A 
ATOM      4  C   UNL     1       0.024  -2.068  -1.216  0.00  0.00    +0.042 A 
ATOM      5  C   UNL     1       0.040  -2.772  -0.023  0.00  0.00    +0.027 A 
ATOM      6  C   UNL     1       0.036  -2.096   1.176  0.00  0.00    +0.005 A 
ATOM      7  C   UNL     1       0.023  -0.704   1.206  0.00  0.00    +0.042 A 
ATOM      8  N   UNL     1       0.029  -0.249   2.526  0.00  0.00    -0.283 N 
ATOM      9  C   UNL     1       0.052  -1.263   3.413  0.00  0.00    +0.243 C 
ATOM     10  O   UNL     1       0.063  -1.168   4.622  0.00  0.00    -0.273 OA
ATOM     11  C   UNL     1       0.050  -2.537   2.612  0.00  0.00    +0.136 C 
ATOM     12  C   UNL     1      -1.160  -3.419   2.943  0.00  0.00    +0.122 C 
ATOM     13  C   UNL     1      -0.617  -4.874   2.869  0.00  0.00    +0.109 C 
ATOM     14  C   UNL     1       0.872  -4.721   2.492  0.00  0.00    +0.096 C 
ATOM     15  N   UNL     1       1.241  -3.352   2.917  0.00  0.00    -0.293 NA
ATOM     16  C   UNL     1      -1.379  -5.471   1.708  0.00  0.00    +0.227 C 
ATOM     17  O   UNL     1      -1.262  -6.608   1.304  0.00  0.00    -0.275 OA
ATOM     18  N   UNL     1      -2.203  -4.550   1.196  0.00  0.00    -0.241 N 
ATOM     19  C   UNL     1      -2.167  -3.350   1.818  0.00  0.00    +0.228 C 
ATOM     20  O   UNL     1      -2.827  -2.375   1.528  0.00  0.00    -0.275 OA
ATOM     21 CL   UNL     1       0.028  -2.919  -2.729  0.00  0.00    -0.084 Cl
ATOM     22  H   UNL     1       0.018   0.688   2.776  0.00  0.00    +0.155 HD
ATOM     23  H   UNL     1       2.047  -3.016   2.412  0.00  0.00    +0.124 HD
ENDROOT
BRANCH  14  24
ATOM     24  C   UNL     1       1.716  -5.769   3.220  0.00  0.00    +0.129 C 
ATOM     25  C   UNL     1       3.198  -5.522   2.930  0.00  0.00    +0.039 C 
BRANCH  24  26
ATOM     26  O   UNL     1       1.483  -5.675   4.627  0.00  0.00    -0.390 OA
ATOM     27  H   UNL     1       1.708  -4.814   5.006  0.00  0.00    +0.210 HD
ENDBRANCH  24  26
ENDBRANCH  14  24
BRANCH  18  28
ATOM     28  C   UNL     1      -3.081  -4.819   0.054  0.00  0.00    +0.121 C 
BRANCH  28  29
ATOM     29  C   UNL     1      -4.428  -5.342   0.559  0.00  0.00    +0.054 C 
BRANCH  29  30
ATOM     30  C   UNL     1      -5.331  -5.619  -0.615  0.00  0.00    -0.046 A 
ATOM     31  C   UNL     1      -6.156  -4.623  -1.103  0.00  0.00    +0.004 A 
ATOM     32  C   UNL     1      -6.985  -4.878  -2.180  0.00  0.00    +0.000 A 
ATOM     33  C   UNL     1      -6.988  -6.128  -2.769  0.00  0.00    +0.000 A 
ATOM     34  C   UNL     1      -6.162  -7.124  -2.282  0.00  0.00    +0.000 A 
ATOM     35  C   UNL     1      -5.330  -6.868  -1.208  0.00  0.00    +0.004 A 
ENDBRANCH  29  30
ENDBRANCH  28  29
ENDBRANCH  18  28
TORSDOF 5
