REMARK  Name = ZINC53964724
REMARK  6 active torsions:
REMARK  status: ('A' for Active; 'I' for Inactive)
REMARK    1  A    between atoms: C_1  and  C_2
REMARK    2  A    between atoms: C_2  and  C_3
REMARK    3  A    between atoms: C_2  and  C_4
REMARK    4  A    between atoms: C_2  and  N_19
REMARK    5  A    between atoms: C_4  and  N_5
REMARK    6  A    between atoms: C_12  and  C_14
REMARK                            x       y       z     vdW  Elec       q    Type
REMARK                         _______ _______ _______ _____ _____    ______ ____
ROOT
ATOM      1  N   UNL     1      -1.413  -1.998   0.005  0.00  0.00    -0.301 N 
ATOM      2  C   UNL     1      -2.571  -2.688   0.012  0.00  0.00    +0.303 C 
ATOM      3  O   UNL     1      -3.632  -2.095   0.025  0.00  0.00    -0.253 OA
ATOM      4  N   UNL     1      -2.553  -4.036   0.005  0.00  0.00    -0.278 N 
ATOM      5  C   UNL     1      -1.343  -4.879  -0.005  0.00  0.00    +0.110 C 
ATOM      6  C   UNL     1      -1.797  -6.230   0.603  0.00  0.00    +0.021 C 
ATOM      7  C   UNL     1      -3.230  -6.367   0.024  0.00  0.00    +0.029 C 
ATOM      8  C   UNL     1      -3.736  -4.909   0.011  0.00  0.00    +0.114 C 
ATOM      9  H   UNL     1      -0.567  -2.472  -0.006  0.00  0.00    +0.150 HD
ENDROOT
BRANCH   8  10
ATOM     10  C   UNL     1      -4.559  -4.665  -1.227  0.00  0.00    +0.010 A 
ATOM     11  C   UNL     1      -5.908  -4.627  -1.362  0.00  0.00    +0.013 A 
ATOM     12  C   UNL     1      -6.450  -4.384  -2.610  0.00  0.00    +0.008 A 
ATOM     13  C   UNL     1      -5.618  -4.191  -3.662  0.00  0.00    +0.045 A 
ATOM     14  S   UNL     1      -4.012  -4.345  -2.896  0.00  0.00    -0.100 S 
ENDBRANCH   8  10
BRANCH   1  15
ATOM     15  C   UNL     1      -1.433  -0.534   0.013  0.00  0.00    +0.093 C 
BRANCH  15  17
ATOM     16  C   UNL     1      -0.019   1.526   0.010  0.00  0.00    -0.008 C 
ATOM     17  C   UNL     1       0.002  -0.004   0.002  0.00  0.00    -0.055 C 
ATOM     18  C   UNL     1       0.742  -0.511   1.242  0.00  0.00    -0.008 C 
BRANCH  17  19
ATOM     19  N   UNL     1       0.690  -0.478  -1.207  0.00  0.00    +0.384 N 
ATOM     20  C   UNL     1      -0.026   0.002  -2.395  0.00  0.00    -0.078 C 
ATOM     21  C   UNL     1       0.638  -0.556  -3.655  0.00  0.00    -0.019 C 
ATOM     22  C   UNL     1       2.094  -0.083  -3.709  0.00  0.00    -0.004 C 
ATOM     23  C   UNL     1       2.812  -0.525  -2.431  0.00  0.00    -0.019 C 
ATOM     24  C   UNL     1       2.067   0.031  -1.216  0.00  0.00    -0.078 C 
ATOM     25  H   UNL     1       0.705  -1.487  -1.210  0.00  0.00    -0.081 HD
ENDBRANCH  17  19
ENDBRANCH  15  17
ENDBRANCH   1  15
TORSDOF 4
