REMARK  Name = ZINC43743283
REMARK  10 active torsions:
REMARK  status: ('A' for Active; 'I' for Inactive)
REMARK    1  A    between atoms: C_1  and  C_2
REMARK    2  A    between atoms: C_13  and  C_14
REMARK    3  A    between atoms: C_13  and  O_15
REMARK    4  A    between atoms: N_21  and  O_22
REMARK    5  A    between atoms: O_22  and  C_23
REMARK    6  A    between atoms: C_23  and  C_24
REMARK    7  A    between atoms: N_26  and  C_27
REMARK    8  A    between atoms: C_27  and  C_28
REMARK    9  A    between atoms: C_28  and  C_29
REMARK   10  A    between atoms: C_41  and  C_42
REMARK                            x       y       z     vdW  Elec       q    Type
REMARK                         _______ _______ _______ _____ _____    ______ ____
ROOT
ATOM      1  C   UNL     1      -0.019   1.526   0.010  0.00  0.00    +0.014 C 
ATOM      2  C   UNL     1       0.002  -0.004   0.002  0.00  0.00    -0.000 C 
ATOM      3  C   UNL     1       0.494  -0.558  -1.338  0.00  0.00    +0.010 C 
ATOM      4  C   UNL     1       1.989  -0.305  -1.508  0.00  0.00    +0.005 C 
ATOM      5  C   UNL     1       2.744  -1.058  -0.406  0.00  0.00    +0.006 C 
ATOM      6  C   UNL     1       2.320  -0.497   0.946  0.00  0.00    -0.003 C 
ATOM      7  C   UNL     1       0.840  -0.572   1.161  0.00  0.00    +0.001 C 
ATOM      8  C   UNL     1       0.342  -2.024   1.287  0.00  0.00    +0.007 C 
ATOM      9  C   UNL     1      -1.182  -1.905   1.055  0.00  0.00    +0.035 C 
ATOM     10  C   UNL     1      -1.405  -0.606   0.259  0.00  0.00    +0.069 C 
ATOM     11  C   UNL     1      -2.095  -0.916  -1.071  0.00  0.00    +0.042 C 
ATOM     12  C   UNL     1       2.801   0.957   1.036  0.00  0.00    +0.008 C 
ATOM     13  C   UNL     1       4.317   0.928   1.241  0.00  0.00    +0.032 C 
ATOM     14  C   UNL     1       4.964   0.018   0.239  0.00  0.00    -0.058 C 
ATOM     15  C   UNL     1       6.307   0.066   0.109  0.00  0.00    +0.031 C 
ATOM     16  C   UNL     1       6.875  -0.910  -0.869  0.00  0.00    +0.102 C 
ATOM     17  N   UNL     1       7.833  -0.599  -1.699  0.00  0.00    -0.085 NA
ATOM     18  C   UNL     1       6.259  -2.272  -0.823  0.00  0.00    +0.027 C 
ATOM     19  C   UNL     1       4.919  -2.284  -0.683  0.00  0.00    -0.014 C 
ATOM     20  C   UNL     1       4.229  -0.934  -0.612  0.00  0.00    +0.011 C 
ATOM     21  C   UNL     1       4.380  -0.367  -2.025  0.00  0.00    +0.020 C 
ENDROOT
BRANCH  10  22
ATOM     22  O   UNL     1      -2.197   0.307   1.022  0.00  0.00    -0.388 OA
ATOM     23  H   UNL     1      -3.089  -0.012   1.215  0.00  0.00    +0.210 HD
ENDBRANCH  10  22
BRANCH  17  24
ATOM     24  O   UNL     1       8.330  -1.569  -2.603  0.00  0.00    -0.384 OA
BRANCH  24  25
ATOM     25  C   UNL     1       9.376  -1.092  -3.451  0.00  0.00    +0.358 C 
BRANCH  25  26
ATOM     26  C   UNL     1       9.826  -2.201  -4.366  0.00  0.00    +0.253 C 
ATOM     27  O   UNL     1       9.303  -3.293  -4.299  0.00  0.00    -0.272 OA
ATOM     28  N   UNL     1      10.811  -1.980  -5.260  0.00  0.00    -0.312 N 
ATOM     29  H   UNL     1      11.230  -1.107  -5.313  0.00  0.00    +0.149 HD
BRANCH  28  30
ATOM     30  C   UNL     1      11.248  -3.058  -6.150  0.00  0.00    +0.109 C 
BRANCH  30  31
ATOM     31  C   UNL     1      12.369  -2.547  -7.058  0.00  0.00    +0.056 C 
BRANCH  31  32
ATOM     32  C   UNL     1      12.819  -3.656  -7.973  0.00  0.00    -0.021 A 
ATOM     33  C   UNL     1      13.847  -4.495  -7.766  0.00  0.00    +0.087 A 
ATOM     34  N   UNL     1      13.953  -5.369  -8.813  0.00  0.00    -0.360 N 
ATOM     35  H   UNL     1      14.621  -6.069  -8.889  0.00  0.00    +0.165 HD
ATOM     36  C   UNL     1      12.972  -5.108  -9.743  0.00  0.00    +0.047 A 
ATOM     37  C   UNL     1      12.214  -4.028  -9.255  0.00  0.00    +0.003 A 
ATOM     38  C   UNL     1      11.135  -3.543  -9.995  0.00  0.00    +0.010 A 
ATOM     39  C   UNL     1      10.816  -4.124 -11.190  0.00  0.00    +0.001 A 
ATOM     40  C   UNL     1      11.558  -5.193 -11.674  0.00  0.00    +0.002 A 
ATOM     41  C   UNL     1      12.633  -5.681 -10.964  0.00  0.00    +0.026 A 
ENDBRANCH  31  32
ENDBRANCH  30  31
ENDBRANCH  28  30
ENDBRANCH  25  26
ENDBRANCH  24  25
ENDBRANCH  17  24
TORSDOF 7
