REMARK  Name = ZINC13392005
REMARK  4 active torsions:
REMARK  status: ('A' for Active; 'I' for Inactive)
REMARK    1  A    between atoms: C_3  and  C_18
REMARK    2  A    between atoms: C_4  and  N_9
REMARK    3  A    between atoms: C_6  and  C_7
REMARK    4  A    between atoms: C_10  and  C_12
REMARK                            x       y       z     vdW  Elec       q    Type
REMARK                         _______ _______ _______ _____ _____    ______ ____
ROOT
ATOM      1  C   UNL     1       3.252   9.028   0.296  0.00  0.00    +0.016 A 
ATOM      2  C   UNL     1       1.883   9.164   0.318  0.00  0.00    +0.018 A 
ATOM      3  C   UNL     1       1.066   8.034   0.223  0.00  0.00    +0.084 A 
ATOM      4  C   UNL     1       1.644   6.760   0.117  0.00  0.00    +0.049 A 
ATOM      5  C   UNL     1       3.025   6.629   0.096  0.00  0.00    +0.039 A 
ATOM      6  C   UNL     1       3.832   7.761   0.185  0.00  0.00    +0.065 A 
ENDROOT
BRANCH   4   7
ATOM      7  N   UNL     1       0.835   5.631   0.027  0.00  0.00    -0.278 N 
ATOM      8  C   UNL     1       1.298   4.516  -0.571  0.00  0.00    +0.284 C 
ATOM      9  O   UNL     1       2.383   4.526  -1.121  0.00  0.00    -0.266 OA
ATOM     10  H   UNL     1      -0.063   5.648   0.395  0.00  0.00    +0.155 HD
BRANCH   8  11
ATOM     11  C   UNL     1       0.494   3.291  -0.558  0.00  0.00    +0.191 A 
ATOM     12  C   UNL     1       0.843   2.097  -1.123  0.00  0.00    +0.056 A 
ATOM     13  C   UNL     1      -0.213   1.208  -0.872  0.00  0.00    +0.058 A 
ATOM     14  C   UNL     1      -1.153   1.891  -0.178  0.00  0.00    +0.171 A 
ATOM     15  O   UNL     1      -0.719   3.144   0.014  0.00  0.00    -0.444 OA
ATOM     16 BR   UNL     1      -2.802   1.192   0.426  0.00  0.00    -0.008 Br
ENDBRANCH   8  11
ENDBRANCH   4   7
BRANCH   6  17
ATOM     17  C   UNL     1       5.305   7.622   0.162  0.00  0.00    +0.387 C 
ATOM     18  O   UNL     1       5.810   6.522   0.066  0.00  0.00    -0.241 OA
ATOM     19  O   UNL     1       6.086   8.716   0.249  0.00  0.00    -0.241 OA
ENDBRANCH   6  17
BRANCH   3  20
ATOM     20  C   UNL     1      -0.403   8.181   0.240  0.00  0.00    +0.388 C 
ATOM     21  O   UNL     1      -1.111   7.194   0.252  0.00  0.00    -0.241 OA
ATOM     22  O   UNL     1      -0.957   9.408   0.241  0.00  0.00    -0.241 OA
ENDBRANCH   3  20
TORSDOF 4
