REMARK  Name = ZINC08918013
REMARK  7 active torsions:
REMARK  status: ('A' for Active; 'I' for Inactive)
REMARK    1  A    between atoms: C_1  and  C_2
REMARK    2  A    between atoms: C_8  and  C_36
REMARK    3  A    between atoms: C_9  and  O_35
REMARK    4  A    between atoms: C_19  and  C_21
REMARK    5  A    between atoms: C_21  and  N_67
REMARK    6  A    between atoms: C_24  and  C_27
REMARK    7  A    between atoms: C_27  and  C_29
REMARK                            x       y       z     vdW  Elec       q    Type
REMARK                         _______ _______ _______ _____ _____    ______ ____
ROOT
ATOM      1  C   UNL     1      -2.457   0.902  -0.437  0.00  0.00    +0.008 C 
ATOM      2  C   UNL     1      -2.052   0.918   1.040  0.00  0.00    -0.001 C 
ATOM      3  C   UNL     1      -2.121  -0.511   1.575  0.00  0.00    +0.008 C 
ATOM      4  C   UNL     1      -1.784  -0.493   3.068  0.00  0.00    +0.027 C 
ATOM      5  C   UNL     1      -0.434   0.143   3.242  0.00  0.00    -0.027 C 
ATOM      6  C   UNL     1       0.044   1.026   2.417  0.00  0.00    -0.061 C 
ATOM      7  C   UNL     1      -0.645   1.496   1.168  0.00  0.00    +0.018 C 
ATOM      8  C   UNL     1      -0.725   3.019   1.177  0.00  0.00    +0.132 C 
ATOM      9  C   UNL     1       0.465   3.762   1.696  0.00  0.00    +0.071 C 
ATOM     10  C   UNL     1       1.181   3.165   2.915  0.00  0.00    +0.187 C 
ATOM     11  C   UNL     1       1.384   1.654   2.745  0.00  0.00    +0.076 C 
ATOM     12  O   UNL     1       2.522   3.761   2.859  0.00  0.00    -0.460 OA
ATOM     13  C   UNL     1       2.821   4.164   1.615  0.00  0.00    +0.309 C 
ATOM     14  O   UNL     1       3.889   4.612   1.258  0.00  0.00    -0.251 OA
ATOM     15  C   UNL     1       1.615   3.976   0.704  0.00  0.00    +0.090 C 
ATOM     16  C   UNL     1       0.156   1.031  -0.053  0.00  0.00    +0.018 C 
ENDROOT
BRANCH   8  17
ATOM     17  O   UNL     1      -1.011   3.477  -0.152  0.00  0.00    -0.391 OA
ATOM     18  H   UNL     1      -1.079   4.438  -0.230  0.00  0.00    +0.210 HD
ENDBRANCH   8  17
BRANCH  15  19
ATOM     19  C   UNL     1       1.395   5.250  -0.122  0.00  0.00    -0.064 C 
BRANCH  19  25
ATOM     20  C   UNL     1       2.580   6.766  -1.591  0.00  0.00    -0.078 C 
ATOM     21  C   UNL     1       3.797   6.895  -2.510  0.00  0.00    -0.007 C 
ATOM     22  C   UNL     1       3.638   5.939  -3.696  0.00  0.00    +0.057 C 
ATOM     23  C   UNL     1       3.476   4.510  -3.171  0.00  0.00    -0.007 C 
ATOM     24  C   UNL     1       2.269   4.450  -2.233  0.00  0.00    -0.078 C 
ATOM     25  N   UNL     1       2.494   5.373  -1.101  0.00  0.00    +0.380 N 
ATOM     26  H   UNL     1       3.379   5.127  -0.641  0.00  0.00    -0.082 HD
BRANCH  22  27
ATOM     27  C   UNL     1       4.861   6.018  -4.573  0.00  0.00    +0.166 C 
ATOM     28  O   UNL     1       5.767   5.227  -4.423  0.00  0.00    -0.292 OA
BRANCH  27  29
ATOM     29  C   UNL     1       4.955   7.056  -5.612  0.00  0.00    +0.018 A 
ATOM     30  C   UNL     1       3.909   7.967  -5.793  0.00  0.00    +0.011 A 
ATOM     31  C   UNL     1       4.008   8.940  -6.765  0.00  0.00    +0.001 A 
ATOM     32  C   UNL     1       5.132   9.008  -7.569  0.00  0.00    +0.000 A 
ATOM     33  C   UNL     1       6.169   8.107  -7.401  0.00  0.00    +0.001 A 
ATOM     34  C   UNL     1       6.088   7.132  -6.429  0.00  0.00    +0.011 A 
ENDBRANCH  27  29
ENDBRANCH  22  27
ENDBRANCH  19  25
ENDBRANCH  15  19
TORSDOF 5
