REMARK  Name = ZINC62136220
REMARK  2 active torsions:
REMARK  status: ('A' for Active; 'I' for Inactive)
REMARK    1  A    between atoms: C_5  and  C_8
REMARK    2  A    between atoms: C_16  and  C_19
REMARK                            x       y       z     vdW  Elec       q    Type
REMARK                         _______ _______ _______ _____ _____    ______ ____
ROOT
ATOM      1  C   UNL     1      -0.134   1.491  -0.222  0.00  0.00    +0.004 C 
ATOM      2  C   UNL     1       1.275   2.087  -0.217  0.00  0.00    +0.019 C 
ATOM      3  C   UNL     1       2.017   1.645  -1.482  0.00  0.00    +0.110 C 
ATOM      4  N   UNL     1       1.982   0.179  -1.562  0.00  0.00    -0.274 N 
ATOM      5  C   UNL     1       0.683  -0.503  -1.485  0.00  0.00    +0.163 C 
ATOM      6  C   UNL     1      -0.044  -0.037  -0.220  0.00  0.00    +0.032 C 
ATOM      7  C   UNL     1       3.121  -0.528  -1.705  0.00  0.00    +0.305 C 
ATOM      8  O   UNL     1       3.104  -1.739  -1.590  0.00  0.00    -0.252 OA
ATOM      9  N   UNL     1       4.279   0.107  -1.974  0.00  0.00    -0.285 N 
ATOM     10  C   UNL     1       4.489   1.561  -1.930  0.00  0.00    +0.110 C 
ATOM     11  C   UNL     1       5.969   1.821  -2.284  0.00  0.00    +0.035 C 
ATOM     12  C   UNL     1       6.648   0.466  -1.954  0.00  0.00    +0.121 C 
ATOM     13  C   UNL     1       5.546  -0.543  -2.356  0.00  0.00    +0.124 C 
ENDROOT
BRANCH   5  14
ATOM     14  C   UNL     1       0.897  -1.994  -1.428  0.00  0.00    +0.231 C 
ATOM     15  O   UNL     1       1.393  -2.498  -0.443  0.00  0.00    -0.274 OA
ATOM     16  N   UNL     1       0.537  -2.766  -2.472  0.00  0.00    -0.328 N 
ATOM     17  H   UNL     1       0.140  -2.363  -3.260  0.00  0.00    +0.145 HD
ATOM     18  H   UNL     1       0.674  -3.726  -2.435  0.00  0.00    +0.145 HD
ENDBRANCH   5  14
BRANCH  12  19
ATOM     19  C   UNL     1       7.892   0.270  -2.781  0.00  0.00    +0.361 C 
ATOM     20  O   UNL     1       8.823   1.050  -2.677  0.00  0.00    -0.246 OA
ATOM     21  O   UNL     1       7.968  -0.670  -3.555  0.00  0.00    -0.246 OA
ENDBRANCH  12  19
TORSDOF 2
