REMARK  Name = ZINC58913719
REMARK  11 active torsions:
REMARK  status: ('A' for Active; 'I' for Inactive)
REMARK    1  A    between atoms: C_1  and  C_2
REMARK    2  A    between atoms: C_5  and  N_8
REMARK    3  A    between atoms: C_9  and  C_36
REMARK    4  A    between atoms: C_11  and  C_14
REMARK    5  A    between atoms: C_12  and  C_13
REMARK    6  A    between atoms: N_15  and  N_16
REMARK    7  A    between atoms: C_17  and  C_19
REMARK    8  A    between atoms: N_21  and  C_22
REMARK    9  A    between atoms: C_25  and  O_28
REMARK   10  A    between atoms: O_28  and  C_29
REMARK   11  A    between atoms: C_29  and  C_30
REMARK                            x       y       z     vdW  Elec       q    Type
REMARK                         _______ _______ _______ _____ _____    ______ ____
ROOT
ATOM      1  N   UNL     1       3.485  -8.393   1.522  0.00  0.00    -0.199 N 
ATOM      2  C   UNL     1       4.698  -8.230   2.087  0.00  0.00    +0.318 C 
ATOM      3  O   UNL     1       5.128  -7.113   2.291  0.00  0.00    -0.263 OA
ATOM      4  H   UNL     1       3.142  -9.285   1.359  0.00  0.00    +0.178 HD
ENDROOT
BRANCH   2   5
ATOM      5  C   UNL     1       5.511  -9.422   2.462  0.00  0.00    +0.305 C 
ATOM      6  O   UNL     1       5.081 -10.539   2.257  0.00  0.00    -0.265 OA
ATOM      7  N   UNL     1       6.724  -9.259   3.027  0.00  0.00    -0.278 N 
ATOM      8  H   UNL     1       7.096  -8.369   3.129  0.00  0.00    +0.155 HD
BRANCH   7   9
ATOM      9  C   UNL     1       7.445 -10.374   3.467  0.00  0.00    +0.034 A 
ATOM     10  C   UNL     1       8.231 -10.286   4.609  0.00  0.00    +0.027 A 
ATOM     11  C   UNL     1       8.943 -11.387   5.042  0.00  0.00    +0.047 A 
ATOM     12  C   UNL     1       8.873 -12.580   4.338  0.00  0.00    +0.121 A 
ATOM     13  C   UNL     1       8.089 -12.668   3.197  0.00  0.00    +0.047 A 
ATOM     14  C   UNL     1       7.372 -11.570   2.765  0.00  0.00    +0.027 A 
BRANCH  12  15
ATOM     15  O   UNL     1       9.575 -13.664   4.765  0.00  0.00    -0.487 OA
BRANCH  15  16
ATOM     16  C   UNL     1       9.457 -14.859   3.992  0.00  0.00    +0.264 C 
BRANCH  16  17
ATOM     17  C   UNL     1      10.298 -15.945   4.613  0.00  0.00    -0.010 A 
ATOM     18  C   UNL     1      11.618 -16.098   4.234  0.00  0.00    +0.007 A 
ATOM     19  C   UNL     1      12.390 -17.094   4.804  0.00  0.00    +0.000 A 
ATOM     20  C   UNL     1      11.841 -17.935   5.753  0.00  0.00    +0.000 A 
ATOM     21  C   UNL     1      10.521 -17.781   6.133  0.00  0.00    +0.000 A 
ATOM     22  C   UNL     1       9.751 -16.783   5.566  0.00  0.00    +0.007 A 
ENDBRANCH  16  17
ENDBRANCH  15  16
ENDBRANCH  12  15
ENDBRANCH   7   9
ENDBRANCH   2   5
BRANCH   1  24
ATOM     23  C   UNL     1       1.551  -7.430   0.624  0.00  0.00    +0.140 C 
ATOM     24  N   UNL     1       2.721  -7.273   1.169  0.00  0.00    -0.187 NA
BRANCH  23  28
ATOM     25  N   UNL     1       0.074  -4.171  -0.052  0.00  0.00    -0.317 N 
ATOM     26  C   UNL     1      -0.933  -4.965  -0.523  0.00  0.00    +0.022 A 
ATOM     27  C   UNL     1      -0.582  -6.254  -0.365  0.00  0.00    +0.032 A 
ATOM     28  C   UNL     1       0.748  -6.252   0.254  0.00  0.00    +0.016 A 
ATOM     29  C   UNL     1       1.094  -4.940   0.414  0.00  0.00    +0.030 A 
ATOM     30  C   UNL     1       2.383  -4.432   1.007  0.00  0.00    +0.064 C 
ATOM     31  C   UNL     1      -2.227  -4.476  -1.123  0.00  0.00    +0.064 C 
BRANCH  25  36
ATOM     32  C   UNL     1       0.016   1.504  -0.060  0.00  0.00    +0.044 C 
ATOM     33  C   UNL     1       0.031  -0.003  -0.058  0.00  0.00    -0.050 A 
ATOM     34  C   UNL     1       0.032  -0.694  -1.256  0.00  0.00    +0.005 A 
ATOM     35  C   UNL     1       0.046  -2.075  -1.257  0.00  0.00    +0.026 A 
ATOM     36  C   UNL     1       0.060  -2.769  -0.054  0.00  0.00    +0.047 A 
ATOM     37  C   UNL     1       0.060  -2.072   1.146  0.00  0.00    +0.026 A 
ATOM     38  C   UNL     1       0.051  -0.691   1.141  0.00  0.00    +0.005 A 
ENDBRANCH  25  36
ENDBRANCH  23  28
ENDBRANCH   1  24
TORSDOF 8
