REMARK  Name = ZINC35172429
REMARK  9 active torsions:
REMARK  status: ('A' for Active; 'I' for Inactive)
REMARK    1  A    between atoms: C_1  and  C_2
REMARK    2  A    between atoms: C_9  and  C_11
REMARK    3  A    between atoms: C_11  and  C_12
REMARK    4  A    between atoms: C_12  and  C_13
REMARK    5  A    between atoms: C_13  and  S_14
REMARK    6  A    between atoms: S_14  and  C_15
REMARK    7  A    between atoms: C_18  and  C_28
REMARK    8  A    between atoms: N_19  and  C_20
REMARK    9  A    between atoms: C_28  and  C_29
REMARK                            x       y       z     vdW  Elec       q    Type
REMARK                         _______ _______ _______ _____ _____    ______ ____
ROOT
ATOM      1  C   UNL     1      -3.385  -9.133  -2.013  0.00  0.00    +0.196 A 
ATOM      2  N   UNL     1      -2.666  -9.838  -1.171  0.00  0.00    -0.122 NA
ATOM      3  N   UNL     1      -2.889 -11.091  -1.345  0.00  0.00    -0.133 NA
ATOM      4  C   UNL     1      -3.757 -11.263  -2.302  0.00  0.00    +0.143 A 
ATOM      5  N   UNL     1      -4.110 -10.022  -2.759  0.00  0.00    -0.274 N 
ENDROOT
BRANCH   5   6
ATOM      6  C   UNL     1      -5.023  -9.723  -3.782  0.00  0.00    +0.052 A 
ATOM      7  C   UNL     1      -6.375  -9.986  -3.606  0.00  0.00    +0.028 A 
ATOM      8  C   UNL     1      -7.272  -9.691  -4.614  0.00  0.00    +0.023 A 
ATOM      9  C   UNL     1      -6.825  -9.135  -5.799  0.00  0.00    +0.059 A 
ATOM     10  C   UNL     1      -5.477  -8.872  -5.978  0.00  0.00    +0.061 A 
ATOM     11  C   UNL     1      -4.577  -9.159  -4.969  0.00  0.00    +0.047 A 
ATOM     12 CL   UNL     1      -4.919  -8.174  -7.466  0.00  0.00    -0.082 Cl
ATOM     13 CL   UNL     1      -7.955  -8.767  -7.064  0.00  0.00    -0.082 Cl
ENDBRANCH   5   6
BRANCH   1  14
ATOM     14  S   UNL     1      -3.416  -7.377  -2.152  0.00  0.00    -0.086 S 
BRANCH  14  15
ATOM     15  C   UNL     1      -2.240  -6.816  -0.890  0.00  0.00    +0.078 C 
BRANCH  15  16
ATOM     16  C   UNL     1      -2.169  -5.288  -0.902  0.00  0.00    +0.020 C 
BRANCH  16  17
ATOM     17  C   UNL     1      -1.177  -4.815   0.162  0.00  0.00    +0.097 C 
BRANCH  17  25
ATOM     18  C   UNL     1       1.392   0.723   1.093  0.00  0.00    -0.012 C 
ATOM     19  C   UNL     1       1.269  -0.796   0.952  0.00  0.00    -0.057 C 
ATOM     20  C   UNL     1      -0.208  -1.197   1.016  0.00  0.00    +0.091 C 
ATOM     21  N   UNL     1      -0.293  -2.666   1.010  0.00  0.00    -0.305 N 
ATOM     22  C   UNL     1       0.537  -3.412   1.968  0.00  0.00    +0.089 C 
ATOM     23  C   UNL     1       1.979  -2.906   1.860  0.00  0.00    -0.063 C 
ATOM     24  N   UNL     1       2.001  -1.449   2.045  0.00  0.00    +0.383 N 
ATOM     25  C   UNL     1      -1.107  -3.310   0.150  0.00  0.00    +0.215 C 
ATOM     26  O   UNL     1      -1.784  -2.678  -0.633  0.00  0.00    -0.276 OA
ATOM     27  H   UNL     1       2.957  -1.126   2.048  0.00  0.00    -0.085 HD
ATOM     28  H   UNL     1       1.566  -1.217   2.925  0.00  0.00    -0.085 HD
ENDBRANCH  17  25
ENDBRANCH  16  17
ENDBRANCH  15  16
ENDBRANCH  14  15
ENDBRANCH   1  14
BRANCH   4  29
ATOM     29  C   UNL     1      -4.280 -12.584  -2.806  0.00  0.00    +0.111 C 
BRANCH  29  30
ATOM     30  C   UNL     1      -3.333 -13.138  -3.839  0.00  0.00    -0.040 A 
ATOM     31  C   UNL     1      -3.562 -12.906  -5.182  0.00  0.00    +0.004 A 
ATOM     32  C   UNL     1      -2.692 -13.414  -6.129  0.00  0.00    +0.000 A 
ATOM     33  C   UNL     1      -1.594 -14.154  -5.733  0.00  0.00    +0.000 A 
ATOM     34  C   UNL     1      -1.365 -14.385  -4.389  0.00  0.00    +0.000 A 
ATOM     35  C   UNL     1      -2.231 -13.873  -3.442  0.00  0.00    +0.004 A 
ENDBRANCH  29  30
ENDBRANCH   4  29
TORSDOF 8
