REMARK  Name = ZINC62617589
REMARK  3 active torsions:
REMARK  status: ('A' for Active; 'I' for Inactive)
REMARK    1  A    between atoms: C_3  and  N_17
REMARK    2  A    between atoms: C_6  and  C_7
REMARK    3  A    between atoms: C_14  and  O_16
REMARK                            x       y       z     vdW  Elec       q    Type
REMARK                         _______ _______ _______ _____ _____    ______ ____
ROOT
ATOM      1  C   UNL     1      -0.017   1.378   0.010  0.00  0.00    +0.006 A 
ATOM      2  C   UNL     1       1.171   2.086   0.002  0.00  0.00    +0.033 A 
ATOM      3  C   UNL     1       2.377   1.411  -0.013  0.00  0.00    +0.126 A 
ATOM      4  C   UNL     1       2.396   0.029  -0.020  0.00  0.00    +0.033 A 
ATOM      5  C   UNL     1       1.208  -0.679  -0.012  0.00  0.00    +0.006 A 
ATOM      6  C   UNL     1       0.002  -0.004   0.002  0.00  0.00    -0.042 A 
ENDROOT
BRANCH   6   7
ATOM      7  C   UNL     1      -1.293  -0.775   0.010  0.00  0.00    +0.048 C 
ATOM      8  C   UNL     1      -1.375  -1.602  -1.244  0.00  0.00    +0.011 C 
ATOM      9  C   UNL     1      -2.848  -1.661  -1.697  0.00  0.00    +0.001 C 
ATOM     10  C   UNL     1      -3.621  -2.639  -0.947  0.00  0.00    +0.000 C 
ATOM     11  C   UNL     1      -3.682  -2.311   0.559  0.00  0.00    +0.003 C 
ATOM     12  C   UNL     1      -2.398  -2.763   1.200  0.00  0.00    +0.032 C 
ATOM     13  C   UNL     1      -1.352  -1.636   1.287  0.00  0.00    +0.122 C 
BRANCH  13  14
ATOM     14  O   UNL     1      -0.066  -2.216   1.512  0.00  0.00    -0.391 OA
ATOM     15  H   UNL     1      -0.018  -2.774   2.300  0.00  0.00    +0.210 HD
ENDBRANCH  13  14
ENDBRANCH   6   7
BRANCH   3  16
ATOM     16  N   UNL     1       3.649   2.168  -0.022  0.00  0.00    +0.056 N 
ATOM     17  O   UNL     1       3.633   3.377  -0.016  0.00  0.00    -0.126 OA
ATOM     18  O   UNL     1       4.704   1.578  -0.035  0.00  0.00    -0.126 OA
ENDBRANCH   3  16
TORSDOF 3
