REMARK  Name = ZINC14705758
REMARK  7 active torsions:
REMARK  status: ('A' for Active; 'I' for Inactive)
REMARK    1  A    between atoms: C_1  and  C_2
REMARK    2  A    between atoms: C_2  and  C_4
REMARK    3  A    between atoms: C_2  and  S_16
REMARK    4  A    between atoms: N_9  and  C_10
REMARK    5  A    between atoms: S_16  and  C_17
REMARK    6  A    between atoms: N_30  and  C_31
REMARK    7  A    between atoms: C_31  and  C_32
REMARK                            x       y       z     vdW  Elec       q    Type
REMARK                         _______ _______ _______ _____ _____    ______ ____
ROOT
ATOM      1  C   UNL     1      -0.273   0.322   3.718  0.00  0.00    +0.180 C 
ATOM      2  N   UNL     1      -1.362   0.994   3.966  0.00  0.00    -0.158 NA
ATOM      3  N   UNL     1      -1.508   1.095   5.356  0.00  0.00    -0.221 N 
ATOM      4  C   UNL     1      -0.463   0.458   5.919  0.00  0.00    +0.121 C 
ATOM      5  C   UNL     1      -0.216   0.318   7.302  0.00  0.00    +0.040 C 
ATOM      6  C   UNL     1      -0.554   1.218   8.325  0.00  0.00    +0.123 C 
ATOM      7  N   UNL     1      -0.160   0.737   9.482  0.00  0.00    -0.254 NA
ATOM      8  C   UNL     1       0.443  -0.457   9.355  0.00  0.00    +0.072 A 
ATOM      9  C   UNL     1       0.443  -0.804   7.983  0.00  0.00    +0.012 A 
ATOM     10  C   UNL     1       1.006  -2.008   7.567  0.00  0.00    +0.011 A 
ATOM     11  C   UNL     1       1.555  -2.853   8.491  0.00  0.00    +0.001 A 
ATOM     12  C   UNL     1       1.555  -2.521   9.841  0.00  0.00    +0.002 A 
ATOM     13  C   UNL     1       1.019  -1.344  10.276  0.00  0.00    +0.028 A 
ATOM     14  N   UNL     1       0.308  -0.031   4.910  0.00  0.00    -0.263 N 
ATOM     15  H   UNL     1      -2.228   1.543   5.827  0.00  0.00    +0.176 HD
ENDROOT
BRANCH   1  16
ATOM     16  S   UNL     1       0.346  -0.074   2.116  0.00  0.00    -0.076 S 
BRANCH  16  18
ATOM     17  C   UNL     1      -0.832   2.190   1.133  0.00  0.00    +0.029 C 
ATOM     18  C   UNL     1      -0.860   0.668   0.983  0.00  0.00    +0.137 C 
BRANCH  18  19
ATOM     19  C   UNL     1      -0.512   0.296  -0.435  0.00  0.00    +0.234 C 
ATOM     20  O   UNL     1       0.610  -0.074  -0.707  0.00  0.00    -0.274 OA
ATOM     21  N   UNL     1      -1.448   0.375  -1.401  0.00  0.00    -0.239 N 
ATOM     22  C   UNL     1      -1.137   0.042  -2.670  0.00  0.00    +0.310 C 
ATOM     23  O   UNL     1      -0.012  -0.329  -2.942  0.00  0.00    -0.252 OA
ATOM     24  N   UNL     1      -2.073   0.121  -3.636  0.00  0.00    -0.269 N 
ATOM     25  H   UNL     1      -2.346   0.671  -1.184  0.00  0.00    +0.159 HD
ATOM     26  H   UNL     1      -2.990   0.341  -3.407  0.00  0.00    +0.156 HD
BRANCH  24  27
ATOM     27  C   UNL     1      -1.722  -0.113  -4.971  0.00  0.00    +0.035 A 
ATOM     28  C   UNL     1      -2.331   0.611  -5.988  0.00  0.00    +0.023 A 
ATOM     29  C   UNL     1      -1.982   0.377  -7.303  0.00  0.00    +0.002 A 
ATOM     30  C   UNL     1      -1.030  -0.577  -7.609  0.00  0.00    +0.000 A 
ATOM     31  C   UNL     1      -0.423  -1.300  -6.599  0.00  0.00    +0.002 A 
ATOM     32  C   UNL     1      -0.762  -1.067  -5.280  0.00  0.00    +0.023 A 
ENDBRANCH  24  27
ENDBRANCH  18  19
ENDBRANCH  16  18
ENDBRANCH   1  16
BRANCH  14  33
ATOM     33  C   UNL     1       1.546  -0.798   5.069  0.00  0.00    +0.145 C 
BRANCH  33  34
ATOM     34  C   UNL     1       2.703  -0.041   4.413  0.00  0.00    +0.136 C 
ATOM     35  C   UNL     1       4.027  -0.798   4.654  0.00  0.00    +0.035 C 
ATOM     36  C   UNL     1       5.027   0.362   4.912  0.00  0.00    +0.031 C 
ATOM     37  C   UNL     1       4.114   1.381   5.641  0.00  0.00    +0.160 C 
ATOM     38  O   UNL     1       2.830   1.257   5.005  0.00  0.00    -0.375 OA
ENDBRANCH  33  34
ENDBRANCH  14  33
TORSDOF 6
