REMARK  Name = ZINC46645382
REMARK  4 active torsions:
REMARK  status: ('A' for Active; 'I' for Inactive)
REMARK    1  A    between atoms: C_9  and  C_18
REMARK    2  A    between atoms: C_18  and  N_19
REMARK    3  A    between atoms: C_20  and  C_22
REMARK    4  A    between atoms: C_22  and  N_23
REMARK                            x       y       z     vdW  Elec       q    Type
REMARK                         _______ _______ _______ _____ _____    ______ ____
ROOT
ATOM      1  N   UNL     1       3.605  -1.614  -3.741  0.00  0.00    -0.314 N 
ATOM      2  C   UNL     1       3.642  -1.042  -4.961  0.00  0.00    +0.231 C 
ATOM      3  O   UNL     1       3.641   0.166  -5.065  0.00  0.00    -0.274 OA
ATOM      4  H   UNL     1       3.606  -2.580  -3.659  0.00  0.00    +0.149 HD
ENDROOT
BRANCH   1   5
ATOM      5  C   UNL     1       3.563  -0.776  -2.541  0.00  0.00    +0.108 C 
BRANCH   5  14
ATOM      6  C   UNL     1      -0.017   1.385   0.010  0.00  0.00    +0.000 A 
ATOM      7  C   UNL     1       1.165   2.102   0.002  0.00  0.00    +0.000 A 
ATOM      8  C   UNL     1       2.388   1.442  -0.013  0.00  0.00    +0.004 A 
ATOM      9  C   UNL     1       2.399   0.077  -0.021  0.00  0.00    -0.036 A 
ATOM     10  C   UNL     1       1.207  -0.646  -0.013  0.00  0.00    -0.036 A 
ATOM     11  C   UNL     1       0.002  -0.004   0.002  0.00  0.00    +0.004 A 
ATOM     12  C   UNL     1       1.389  -2.155  -0.022  0.00  0.00    +0.050 C 
ATOM     13  C   UNL     1       2.220  -2.459  -1.288  0.00  0.00    +0.018 C 
ATOM     14  C   UNL     1       3.526  -1.667  -1.298  0.00  0.00    +0.019 C 
ATOM     15  C   UNL     1       3.654  -0.782  -0.038  0.00  0.00    +0.054 C 
ATOM     16  C   UNL     1       3.504  -1.732   1.140  0.00  0.00    -0.036 A 
ATOM     17  C   UNL     1       2.312  -2.455   1.148  0.00  0.00    -0.036 A 
ATOM     18  C   UNL     1       2.042  -3.345   2.147  0.00  0.00    +0.004 A 
ATOM     19  C   UNL     1       2.978  -3.520   3.159  0.00  0.00    +0.000 A 
ATOM     20  C   UNL     1       4.160  -2.803   3.151  0.00  0.00    +0.000 A 
ATOM     21  C   UNL     1       4.428  -1.899   2.131  0.00  0.00    +0.004 A 
ENDBRANCH   5  14
ENDBRANCH   1   5
BRANCH   2  22
ATOM     22  C   UNL     1       3.685  -1.904  -6.197  0.00  0.00    +0.213 C 
BRANCH  22  23
ATOM     23  N   UNL     1       3.721  -1.051  -7.387  0.00  0.00    -0.215 N 
ATOM     24  C   UNL     1       2.624  -0.609  -8.036  0.00  0.00    +0.247 C 
ATOM     25  O   UNL     1       1.466  -0.833  -7.756  0.00  0.00    -0.273 OA
ATOM     26  C   UNL     1       3.143   0.226  -9.184  0.00  0.00    +0.113 C 
ATOM     27  C   UNL     1       2.705  -0.372 -10.516  0.00  0.00    +0.035 C 
ATOM     28  C   UNL     1       3.266   0.469 -11.665  0.00  0.00    +0.003 C 
ATOM     29  C   UNL     1       2.755   1.906 -11.540  0.00  0.00    +0.000 C 
ATOM     30  C   UNL     1       3.223   2.500 -10.209  0.00  0.00    +0.003 C 
ATOM     31  C   UNL     1       2.661   1.667  -9.054  0.00  0.00    +0.035 C 
ATOM     32  N   UNL     1       4.603   0.156  -9.044  0.00  0.00    -0.285 N 
ATOM     33  C   UNL     1       4.846  -0.608  -7.962  0.00  0.00    +0.310 C 
ATOM     34  O   UNL     1       5.961  -0.869  -7.555  0.00  0.00    -0.252 OA
ATOM     35  H   UNL     1       5.262   0.579  -9.616  0.00  0.00    +0.151 HD
ENDBRANCH  22  23
ENDBRANCH   2  22
TORSDOF 4
