REMARK  Name = ZINC25011542
REMARK  13 active torsions:
REMARK  status: ('A' for Active; 'I' for Inactive)
REMARK    1  A    between atoms: C_1  and  C_2
REMARK    2  A    between atoms: N_5  and  C_8
REMARK    3  A    between atoms: C_8  and  C_9
REMARK    4  A    between atoms: C_15  and  C_17
REMARK    5  A    between atoms: C_17  and  C_19
REMARK    6  A    between atoms: C_17  and  N_23
REMARK    7  A    between atoms: C_19  and  C_20
REMARK    8  A    between atoms: C_20  and  C_21
REMARK    9  A    between atoms: C_20  and  C_22
REMARK   10  A    between atoms: N_23  and  S_24
REMARK   11  A    between atoms: S_24  and  C_27
REMARK   12  A    between atoms: C_30  and  O_33
REMARK   13  A    between atoms: O_33  and  C_34
REMARK                            x       y       z     vdW  Elec       q    Type
REMARK                         _______ _______ _______ _____ _____    ______ ____
ROOT
ATOM      1  C   UNL     1       3.638   2.775   4.855  0.00  0.00    +0.034 A 
ATOM      2  C   UNL     1       3.277   1.789   5.711  0.00  0.00    +0.070 A 
ATOM      3  S   UNL     1       1.812   1.165   4.902  0.00  0.00    -0.060 S 
ATOM      4  C   UNL     1       1.825   2.248   3.544  0.00  0.00    +0.165 A 
ATOM      5  N   UNL     1       2.899   2.976   3.781  0.00  0.00    -0.231 NA
ATOM      6  N   UNL     1       0.937   2.323   2.478  0.00  0.00    -0.263 N 
ATOM      7  C   UNL     1      -0.109   1.475   2.411  0.00  0.00    +0.237 C 
ATOM      8  O   UNL     1      -0.275   0.647   3.281  0.00  0.00    -0.274 OA
ATOM      9  H   UNL     1       1.087   3.074   1.689  0.00  0.00    +0.157 HD
ENDROOT
BRANCH   1  10
ATOM     10  C   UNL     1       4.858   3.618   5.119  0.00  0.00    -0.022 C 
BRANCH  10  15
ATOM     11  C   UNL     1       9.236   2.193   1.733  0.00  0.00    +0.007 C 
ATOM     12  C   UNL     1       8.044   2.923   2.353  0.00  0.00    -0.018 C 
ATOM     13  C   UNL     1       8.371   3.300   3.801  0.00  0.00    -0.016 C 
ATOM     14  C   UNL     1       7.153   3.975   4.435  0.00  0.00    -0.078 C 
ATOM     15  N   UNL     1       6.007   3.057   4.396  0.00  0.00    +0.383 N 
ATOM     16  C   UNL     1       5.645   2.718   3.014  0.00  0.00    -0.078 C 
ATOM     17  C   UNL     1       6.818   2.006   2.337  0.00  0.00    -0.016 C 
ATOM     18  H   UNL     1       6.306   2.127   4.902  0.00  0.00    -0.081 HD
ENDBRANCH  10  15
ENDBRANCH   1  10
BRANCH   7  19
ATOM     19  C   UNL     1      -1.073   1.557   1.255  0.00  0.00    +0.163 C 
BRANCH  19  20
ATOM     20  N   UNL     1      -2.112   0.537   1.413  0.00  0.00    -0.178 NA
ATOM     21  H   UNL     1      -2.014  -0.432   0.903  0.00  0.00    +0.149 HD
BRANCH  20  22
ATOM     22  S   UNL     1      -3.545   0.922   2.150  0.00  0.00    +0.059 S 
ATOM     23  O   UNL     1      -4.344  -0.253   2.124  0.00  0.00    -0.153 OA
ATOM     24  O   UNL     1      -3.213   1.592   3.358  0.00  0.00    -0.153 OA
BRANCH  22  25
ATOM     25  C   UNL     1      -4.356   2.105   1.125  0.00  0.00    +0.105 A 
ATOM     26  C   UNL     1      -4.055   3.448   1.251  0.00  0.00    +0.032 A 
ATOM     27  C   UNL     1      -4.685   4.377   0.445  0.00  0.00    +0.047 A 
ATOM     28  C   UNL     1      -5.628   3.961  -0.483  0.00  0.00    +0.120 A 
ATOM     29  C   UNL     1      -5.933   2.613  -0.603  0.00  0.00    +0.047 A 
ATOM     30  C   UNL     1      -5.296   1.688   0.201  0.00  0.00    +0.032 A 
BRANCH  28  31
ATOM     31  O   UNL     1      -6.253   4.873  -1.273  0.00  0.00    -0.495 OA
ATOM     32  C   UNL     1      -5.890   6.244  -1.094  0.00  0.00    +0.277 C 
ENDBRANCH  28  31
ENDBRANCH  22  25
ENDBRANCH  20  22
ENDBRANCH  19  20
BRANCH  19  33
ATOM     33  C   UNL     1      -0.319   1.318  -0.055  0.00  0.00    +0.032 C 
BRANCH  33  34
ATOM     34  C   UNL     1      -1.261   1.559  -1.236  0.00  0.00    -0.015 C 
ATOM     35  C   UNL     1      -0.466   1.501  -2.542  0.00  0.00    +0.007 C 
ATOM     36  C   UNL     1      -2.346   0.481  -1.251  0.00  0.00    +0.007 C 
ENDBRANCH  33  34
ENDBRANCH  19  33
ENDBRANCH   7  19
TORSDOF 9
