REMARK  Name = ZINC39653432
REMARK  13 active torsions:
REMARK  status: ('A' for Active; 'I' for Inactive)
REMARK    1  A    between atoms: C_1  and  C_2
REMARK    2  A    between atoms: C_2  and  C_3
REMARK    3  A    between atoms: C_3  and  C_5
REMARK    4  A    between atoms: C_3  and  C_11
REMARK    5  A    between atoms: C_15  and  C_24
REMARK    6  A    between atoms: N_26  and  C_27
REMARK    7  A    between atoms: C_27  and  C_28
REMARK    8  A    between atoms: C_28  and  C_29
REMARK    9  A    between atoms: C_32  and  O_38
REMARK   10  A    between atoms: C_33  and  O_35
REMARK   11  A    between atoms: O_35  and  C_36
REMARK   12  A    between atoms: C_36  and  C_37
REMARK   13  A    between atoms: O_38  and  C_39
REMARK                            x       y       z     vdW  Elec       q    Type
REMARK                         _______ _______ _______ _____ _____    ______ ____
ROOT
ATOM      1  C   UNL     1      -2.058  -0.056  -1.030  0.00  0.00    +0.223 C 
ATOM      2  O   UNL     1      -2.682  -0.871  -1.676  0.00  0.00    -0.275 OA
ATOM      3  N   UNL     1      -2.105   1.249  -1.365  0.00  0.00    -0.300 N 
ATOM      4  C   UNL     1      -1.488   2.392  -0.652  0.00  0.00    +0.121 C 
ATOM      5  C   UNL     1      -0.962   3.314  -1.775  0.00  0.00    +0.100 C 
ATOM      6  C   UNL     1      -1.819   2.965  -3.003  0.00  0.00    -0.004 C 
ATOM      7  C   UNL     1      -2.780   1.864  -2.533  0.00  0.00    +0.115 C 
ATOM      8  C   UNL     1      -2.603   4.189  -3.467  0.00  0.00    -0.010 C 
ATOM      9  C   UNL     1      -3.402   3.832  -4.724  0.00  0.00    -0.082 C 
ATOM     10  N   UNL     1      -2.484   3.385  -5.779  0.00  0.00    +0.379 N 
ATOM     11  C   UNL     1      -1.803   2.154  -5.361  0.00  0.00    -0.082 C 
ATOM     12  C   UNL     1      -0.936   2.440  -4.131  0.00  0.00    -0.010 C 
ATOM     13  H   UNL     1      -3.006   3.208  -6.624  0.00  0.00    -0.086 HD
ATOM     14  H   UNL     1      -1.799   4.104  -5.954  0.00  0.00    -0.086 HD
ENDROOT
BRANCH   5  15
ATOM     15  C   UNL     1      -1.149   4.761  -1.397  0.00  0.00    +0.218 C 
ATOM     16  O   UNL     1      -2.046   5.080  -0.644  0.00  0.00    -0.275 OA
ATOM     17  N   UNL     1      -0.321   5.700  -1.894  0.00  0.00    -0.315 N 
ATOM     18  H   UNL     1       0.396   5.445  -2.495  0.00  0.00    +0.149 HD
BRANCH  17  19
ATOM     19  C   UNL     1      -0.503   7.107  -1.526  0.00  0.00    +0.109 C 
BRANCH  19  20
ATOM     20  C   UNL     1       0.562   7.958  -2.221  0.00  0.00    +0.054 C 
BRANCH  20  21
ATOM     21  C   UNL     1       0.375   9.404  -1.843  0.00  0.00    -0.042 A 
ATOM     22  C   UNL     1      -0.448  10.215  -2.603  0.00  0.00    +0.007 A 
ATOM     23  C   UNL     1      -0.623  11.543  -2.260  0.00  0.00    +0.049 A 
ATOM     24  C   UNL     1       0.026  12.064  -1.151  0.00  0.00    +0.162 A 
ATOM     25  C   UNL     1       0.854  11.247  -0.386  0.00  0.00    +0.162 A 
ATOM     26  C   UNL     1       1.021   9.916  -0.733  0.00  0.00    +0.053 A 
BRANCH  24  27
ATOM     27  O   UNL     1      -0.144  13.370  -0.813  0.00  0.00    -0.491 OA
ATOM     28  C   UNL     1      -1.008  14.148  -1.644  0.00  0.00    +0.277 C 
ENDBRANCH  24  27
BRANCH  25  29
ATOM     29  O   UNL     1       1.493  11.754   0.702  0.00  0.00    -0.489 OA
BRANCH  29  30
ATOM     30  C   UNL     1       2.326  10.857   1.440  0.00  0.00    +0.226 C 
ATOM     31  C   UNL     1       2.956  11.601   2.620  0.00  0.00    +0.048 C 
ENDBRANCH  29  30
ENDBRANCH  25  29
ENDBRANCH  20  21
ENDBRANCH  19  20
ENDBRANCH  17  19
ENDBRANCH   5  15
BRANCH   1  32
ATOM     32  C   UNL     1      -1.228  -0.502   0.146  0.00  0.00    +0.105 C 
BRANCH  32  33
ATOM     33  C   UNL     1      -2.090  -0.543   1.382  0.00  0.00    -0.036 A 
ATOM     34  C   UNL     1      -3.196  -1.371   1.425  0.00  0.00    +0.004 A 
ATOM     35  C   UNL     1      -3.987  -1.409   2.559  0.00  0.00    +0.000 A 
ATOM     36  C   UNL     1      -3.671  -0.619   3.648  0.00  0.00    +0.000 A 
ATOM     37  C   UNL     1      -2.564   0.208   3.605  0.00  0.00    +0.000 A 
ATOM     38  C   UNL     1      -1.771   0.243   2.473  0.00  0.00    +0.004 A 
ENDBRANCH  32  33
BRANCH  32  40
ATOM     39  C   UNL     1       0.322  -1.828  -1.296  0.00  0.00    +0.005 C 
ATOM     40  C   UNL     1      -0.664  -1.898  -0.128  0.00  0.00    +0.014 C 
ENDBRANCH  32  40
ENDBRANCH   1  32
TORSDOF 10
