REMARK  Name = ZINC33770825
REMARK  19 active torsions:
REMARK  status: ('A' for Active; 'I' for Inactive)
REMARK    1  A    between atoms: C_1  and  C_2
REMARK    2  A    between atoms: C_2  and  N_3
REMARK    3  A    between atoms: N_3  and  C_4
REMARK    4  A    between atoms: N_3  and  C_6
REMARK    5  A    between atoms: C_4  and  C_5
REMARK    6  A    between atoms: C_6  and  C_7
REMARK    7  A    between atoms: C_7  and  C_8
REMARK    8  A    between atoms: C_8  and  C_9
REMARK    9  A    between atoms: C_9  and  C_11
REMARK   10  A    between atoms: C_9  and  N_12
REMARK   11  A    between atoms: C_13  and  C_15
REMARK   12  A    between atoms: C_15  and  C_16
REMARK   13  A    between atoms: C_22  and  C_24
REMARK   14  A    between atoms: C_24  and  N_25
REMARK   15  A    between atoms: N_25  and  C_26
REMARK   16  A    between atoms: C_26  and  C_27
REMARK   17  A    between atoms: C_26  and  C_28
REMARK   18  A    between atoms: C_29  and  C_31
REMARK   19  A    between atoms: C_34  and  C_37
REMARK                            x       y       z     vdW  Elec       q    Type
REMARK                         _______ _______ _______ _____ _____    ______ ____
ROOT
ATOM      1  C   UNL     1      -3.596   5.794   3.709  0.00  0.00    +0.059 A 
ATOM      2  C   UNL     1      -3.869   4.525   3.317  0.00  0.00    +0.072 A 
ATOM      3  S   UNL     1      -5.324   4.181   4.295  0.00  0.00    -0.060 S 
ATOM      4  C   UNL     1      -5.421   5.715   5.103  0.00  0.00    +0.165 A 
ATOM      5  N   UNL     1      -4.384   6.358   4.604  0.00  0.00    -0.229 NA
ATOM      6  N   UNL     1      -6.351   6.151   6.041  0.00  0.00    -0.263 N 
ATOM      7  C   UNL     1      -7.348   5.333   6.432  0.00  0.00    +0.236 C 
ATOM      8  O   UNL     1      -7.434   4.216   5.966  0.00  0.00    -0.274 OA
ATOM      9  H   UNL     1      -6.272   7.163   6.463  0.00  0.00    +0.157 HD
ENDROOT
BRANCH   1  10
ATOM     10  C   UNL     1      -2.417   6.540   3.140  0.00  0.00    +0.151 C 
BRANCH  10  12
ATOM     11  N   UNL     1      -1.999   8.685   1.981  0.00  0.00    -0.312 N 
ATOM     12  C   UNL     1      -2.886   7.846   2.551  0.00  0.00    +0.219 C 
ATOM     13  O   UNL     1      -4.062   8.141   2.589  0.00  0.00    -0.275 OA
ATOM     14  H   UNL     1      -0.932   8.418   1.947  0.00  0.00    +0.149 HD
BRANCH  11  15
ATOM     15  C   UNL     1      -2.455   9.954   1.408  0.00  0.00    +0.070 C 
ATOM     16  C   UNL     1      -2.528  11.014   2.510  0.00  0.00    +0.028 C 
BRANCH  15  17
ATOM     17  C   UNL     1      -1.471  10.409   0.328  0.00  0.00    +0.020 C 
BRANCH  17  18
ATOM     18  C   UNL     1      -1.490   9.411  -0.831  0.00  0.00    -0.017 C 
BRANCH  18  19
ATOM     19  C   UNL     1      -0.506   9.866  -1.911  0.00  0.00    -0.079 C 
BRANCH  19  20
ATOM     20  N   UNL     1      -0.525   8.908  -3.025  0.00  0.00    +0.379 N 
ATOM     21  H   UNL     1      -0.372   7.901  -2.608  0.00  0.00    -0.082 HD
BRANCH  20  23
ATOM     22  C   UNL     1      -2.092  10.318  -4.270  0.00  0.00    -0.017 C 
ATOM     23  C   UNL     1      -1.825   8.920  -3.709  0.00  0.00    -0.082 C 
ENDBRANCH  20  23
BRANCH  20  24
ATOM     24  C   UNL     1       0.569   9.176  -3.968  0.00  0.00    -0.082 C 
ATOM     25  C   UNL     1       0.684   8.016  -4.959  0.00  0.00    -0.017 C 
ENDBRANCH  20  24
ENDBRANCH  19  20
ENDBRANCH  18  19
ENDBRANCH  17  18
ENDBRANCH  15  17
ENDBRANCH  11  15
ENDBRANCH  10  12
ENDBRANCH   1  10
BRANCH   7  26
ATOM     26  C   UNL     1      -8.355   5.805   7.448  0.00  0.00    +0.204 C 
BRANCH  26  27
ATOM     27  N   UNL     1      -9.328   4.740   7.703  0.00  0.00    -0.286 N 
ATOM     28  C   UNL     1     -10.450   4.661   6.960  0.00  0.00    +0.247 C 
ATOM     29  O   UNL     1     -10.437   5.019   5.799  0.00  0.00    -0.270 OA
BRANCH  28  30
ATOM     30  C   UNL     1     -11.698   4.139   7.559  0.00  0.00    +0.037 A 
ATOM     31  C   UNL     1     -11.672   2.974   8.327  0.00  0.00    +0.013 A 
ATOM     32  C   UNL     1     -12.839   2.495   8.886  0.00  0.00    +0.004 A 
ATOM     33  C   UNL     1     -14.034   3.161   8.678  0.00  0.00    -0.050 A 
ATOM     34  C   UNL     1     -14.066   4.314   7.914  0.00  0.00    +0.004 A 
ATOM     35  C   UNL     1     -12.906   4.806   7.353  0.00  0.00    +0.013 A 
ATOM     36  C   UNL     1     -15.305   2.629   9.288  0.00  0.00    +0.044 C 
ENDBRANCH  28  30
BRANCH  27  37
ATOM     37  C   UNL     1      -9.082   3.761   8.764  0.00  0.00    +0.071 C 
ATOM     38  C   UNL     1     -10.287   3.716   9.706  0.00  0.00    +0.028 C 
ATOM     39  C   UNL     1      -8.868   2.379   8.144  0.00  0.00    +0.028 C 
ENDBRANCH  27  37
ENDBRANCH  26  27
ENDBRANCH   7  26
TORSDOF 13
