REMARK  Name = ZINC23858649
REMARK  7 active torsions:
REMARK  status: ('A' for Active; 'I' for Inactive)
REMARK    1  A    between atoms: C_1  and  N_2
REMARK    2  A    between atoms: C_10  and  C_12
REMARK    3  A    between atoms: C_12  and  C_14
REMARK    4  A    between atoms: C_12  and  N_27
REMARK    5  A    between atoms: C_14  and  N_15
REMARK    6  A    between atoms: C_16  and  C_18
REMARK    7  A    between atoms: C_23  and  N_24
REMARK                            x       y       z     vdW  Elec       q    Type
REMARK                         _______ _______ _______ _____ _____    ______ ____
ROOT
ATOM      1  C   UNL     1      -2.186  -3.917   0.247  0.00  0.00    -0.020 C 
ENDROOT
BRANCH   1  11
ATOM      2  C   UNL     1      -7.330  -7.377   1.479  0.00  0.00    +0.129 C 
ATOM      3  N   UNL     1      -6.368  -7.750   0.434  0.00  0.00    -0.333 N 
ATOM      4  C   UNL     1      -7.046  -7.998  -0.840  0.00  0.00    +0.105 C 
ATOM      5  C   UNL     1      -5.993  -8.355  -1.896  0.00  0.00    +0.024 C 
ATOM      6  C   UNL     1      -5.156  -7.104  -2.170  0.00  0.00    +0.038 C 
ATOM      7  C   UNL     1      -4.739  -6.477  -0.864  0.00  0.00    -0.026 A 
ATOM      8  C   UNL     1      -5.346  -6.807   0.336  0.00  0.00    +0.033 A 
ATOM      9  C   UNL     1      -4.923  -6.185   1.511  0.00  0.00    +0.023 A 
ATOM     10  C   UNL     1      -3.906  -5.254   1.482  0.00  0.00    +0.004 A 
ATOM     11  C   UNL     1      -3.300  -4.932   0.282  0.00  0.00    -0.059 A 
ATOM     12  C   UNL     1      -3.720  -5.538  -0.886  0.00  0.00    +0.007 A 
ENDBRANCH   1  11
BRANCH   1  13
ATOM     13  N   UNL     1      -1.313  -4.109   1.413  0.00  0.00    +0.385 N 
ATOM     14  C   UNL     1      -0.695  -5.459   1.399  0.00  0.00    -0.078 C 
ATOM     15  C   UNL     1       0.532  -5.298   2.331  0.00  0.00    -0.020 C 
ATOM     16  C   UNL     1       1.031  -3.872   2.001  0.00  0.00    -0.020 C 
ATOM     17  C   UNL     1      -0.187  -3.150   1.395  0.00  0.00    -0.078 C 
ATOM     18  H   UNL     1      -1.954  -3.961   2.295  0.00  0.00    -0.081 HD
ENDBRANCH   1  13
BRANCH   1  19
ATOM     19  C   UNL     1      -2.780  -2.507   0.281  0.00  0.00    +0.094 C 
BRANCH  19  20
ATOM     20  N   UNL     1      -3.545  -2.270  -0.946  0.00  0.00    -0.313 N 
ATOM     21  C   UNL     1      -4.079  -1.056  -1.183  0.00  0.00    +0.246 C 
ATOM     22  O   UNL     1      -3.926  -0.157  -0.378  0.00  0.00    -0.270 OA
ATOM     23  H   UNL     1      -3.683  -3.083  -1.674  0.00  0.00    +0.149 HD
BRANCH  21  24
ATOM     24  C   UNL     1      -4.850  -0.816  -2.421  0.00  0.00    +0.067 A 
ATOM     25  C   UNL     1      -4.278  -1.081  -3.666  0.00  0.00    +0.015 A 
ATOM     26  C   UNL     1      -5.003  -0.856  -4.817  0.00  0.00    +0.001 A 
ATOM     27  C   UNL     1      -6.296  -0.368  -4.740  0.00  0.00    +0.002 A 
ATOM     28  C   UNL     1      -6.869  -0.103  -3.509  0.00  0.00    +0.033 A 
ATOM     29  C   UNL     1      -6.154  -0.324  -2.350  0.00  0.00    +0.138 A 
BRANCH  29  30
ATOM     30  N   UNL     1      -6.771  -0.045  -1.033  0.00  0.00    +0.057 N 
ATOM     31  O   UNL     1      -7.866   0.485  -0.974  0.00  0.00    -0.126 OA
ATOM     32  O   UNL     1      -6.184  -0.347  -0.010  0.00  0.00    -0.126 OA
ENDBRANCH  29  30
ENDBRANCH  21  24
ENDBRANCH  19  20
ENDBRANCH   1  19
TORSDOF 6
