REMARK  Name = ZINC67299489
REMARK  3 active torsions:
REMARK  status: ('A' for Active; 'I' for Inactive)
REMARK    1  A    between atoms: C_4  and  C_7
REMARK    2  A    between atoms: N_15  and  N_16
REMARK    3  A    between atoms: C_17  and  C_19
REMARK                            x       y       z     vdW  Elec       q    Type
REMARK                         _______ _______ _______ _____ _____    ______ ____
ROOT
ATOM      1  C   UNL     1       2.859  -0.454  -2.507  0.00  0.00    +0.107 A 
ATOM      2  N   UNL     1       2.572  -0.251  -3.778  0.00  0.00    -0.144 NA
ATOM      3  N   UNL     1       3.312  -0.762  -4.665  0.00  0.00    -0.126 NA
ATOM      4  C   UNL     1       4.365  -1.494  -4.356  0.00  0.00    +0.189 A 
ATOM      5  S   UNL     1       4.326  -1.462  -2.671  0.00  0.00    -0.035 S 
ATOM      6  N   UNL     1       5.274  -2.123  -5.201  0.00  0.00    -0.246 N 
ATOM      7  C   UNL     1       5.133  -2.022  -6.537  0.00  0.00    +0.322 C 
ATOM      8  O   UNL     1       4.212  -1.381  -7.005  0.00  0.00    -0.251 OA
ATOM      9  N   UNL     1       6.014  -2.631  -7.356  0.00  0.00    -0.218 N 
ATOM     10  H   UNL     1       6.009  -2.634  -4.828  0.00  0.00    +0.158 HD
ATOM     11  H   UNL     1       5.912  -2.559  -8.318  0.00  0.00    +0.174 HD
ENDROOT
BRANCH   1  15
ATOM     12  C   UNL     1      -0.019   1.526   0.010  0.00  0.00    +0.000 C 
ATOM     13  C   UNL     1       1.417   2.055  -0.000  0.00  0.00    +0.001 C 
ATOM     14  C   UNL     1       2.133   1.562  -1.259  0.00  0.00    +0.010 C 
ATOM     15  C   UNL     1       2.154   0.032  -1.268  0.00  0.00    +0.047 C 
ATOM     16  C   UNL     1       0.718  -0.497  -1.257  0.00  0.00    +0.010 C 
ATOM     17  C   UNL     1       0.002  -0.004   0.002  0.00  0.00    +0.001 C 
ENDBRANCH   1  15
BRANCH   9  18
ATOM     18  N   UNL     1       7.075  -3.370  -6.817  0.00  0.00    -0.231 N 
ATOM     19  C   UNL     1       7.956  -3.980  -7.635  0.00  0.00    +0.258 C 
ATOM     20  O   UNL     1       7.829  -3.889  -8.838  0.00  0.00    -0.271 OA
ATOM     21  H   UNL     1       7.177  -3.443  -5.855  0.00  0.00    +0.173 HD
BRANCH  19  22
ATOM     22  C   UNL     1       9.098  -4.774  -7.056  0.00  0.00    +0.205 C 
ATOM     23  C   UNL     1      10.053  -3.835  -6.289  0.00  0.00    +0.043 C 
ATOM     24  C   UNL     1      11.448  -4.412  -6.656  0.00  0.00    +0.031 C 
ATOM     25  C   UNL     1      11.195  -4.889  -8.108  0.00  0.00    +0.161 C 
ATOM     26  O   UNL     1       9.847  -5.389  -8.110  0.00  0.00    -0.367 OA
ENDBRANCH  19  22
ENDBRANCH   9  18
TORSDOF 3
