REMARK  Name = ZINC63084116
REMARK  6 active torsions:
REMARK  status: ('A' for Active; 'I' for Inactive)
REMARK    1  A    between atoms: C_1  and  C_2
REMARK    2  A    between atoms: C_2  and  C_3
REMARK    3  A    between atoms: N_6  and  C_9
REMARK    4  A    between atoms: C_9  and  C_10
REMARK    5  A    between atoms: N_16  and  C_19
REMARK    6  A    between atoms: N_20  and  N_21
REMARK                            x       y       z     vdW  Elec       q    Type
REMARK                         _______ _______ _______ _____ _____    ______ ____
ROOT
ATOM      1  C   UNL     1       3.656  -4.194   3.376  0.00  0.00    +0.117 A 
ATOM      2  N   UNL     1       2.699  -4.866   3.992  0.00  0.00    -0.217 NA
ATOM      3  C   UNL     1       2.653  -6.193   3.949  0.00  0.00    +0.146 A 
ATOM      4  C   UNL     1       3.652  -6.874   3.228  0.00  0.00    +0.079 A 
ATOM      5  C   UNL     1       3.932  -8.232   2.960  0.00  0.00    +0.148 A 
ATOM      6  N   UNL     1       5.005  -8.294   2.224  0.00  0.00    -0.177 NA
ATOM      7  N   UNL     1       5.480  -7.001   1.972  0.00  0.00    -0.249 N 
ATOM      8  C   UNL     1       4.650  -6.113   2.589  0.00  0.00    +0.163 A 
ATOM      9  N   UNL     1       4.606  -4.785   2.687  0.00  0.00    -0.215 NA
ATOM     10  C   UNL     1       6.665  -6.661   1.181  0.00  0.00    +0.174 C 
ATOM     11  N   UNL     1       1.649  -6.887   4.596  0.00  0.00    -0.267 N 
ATOM     12  H   UNL     1       1.627  -7.856   4.557  0.00  0.00    +0.167 HD
ENDROOT
BRANCH  11  13
ATOM     13  N   UNL     1       0.688  -6.209   5.292  0.00  0.00    -0.255 NA
ATOM     14  H   UNL     1       0.221  -5.537   4.701  0.00  0.00    +0.140 HD
ATOM     15  H   UNL     1       0.026  -6.846   5.708  0.00  0.00    +0.140 HD
ENDBRANCH  11  13
BRANCH   1  16
ATOM     16  C   UNL     1       3.654  -2.690   3.463  0.00  0.00    -0.001 C 
BRANCH  16  20
ATOM     17  C   UNL     1       0.742  -0.511   1.242  0.00  0.00    -0.015 C 
ATOM     18  C   UNL     1       2.214  -0.095   1.165  0.00  0.00    -0.015 C 
ATOM     19  C   UNL     1       2.965  -0.672   2.367  0.00  0.00    -0.078 C 
ATOM     20  N   UNL     1       2.867  -2.136   2.352  0.00  0.00    +0.384 N 
ATOM     21  C   UNL     1       1.465  -2.544   2.497  0.00  0.00    -0.078 C 
ATOM     22  C   UNL     1       0.656  -2.039   1.300  0.00  0.00    -0.015 C 
ATOM     23  H   UNL     1       3.230  -2.488   1.478  0.00  0.00    -0.081 HD
BRANCH  17  25
ATOM     24  C   UNL     1      -0.019   1.526   0.010  0.00  0.00    +0.004 C 
ATOM     25  C   UNL     1       0.002  -0.004   0.002  0.00  0.00    -0.000 C 
ENDBRANCH  17  25
ENDBRANCH  16  20
ENDBRANCH   1  16
TORSDOF 4
