REMARK  Name = ZINC20523549
REMARK  7 active torsions:
REMARK  status: ('A' for Active; 'I' for Inactive)
REMARK    1  A    between atoms: C_1  and  C_2
REMARK    2  A    between atoms: C_2  and  C_4
REMARK    3  A    between atoms: C_2  and  N_7
REMARK    4  A    between atoms: C_4  and  C_5
REMARK    5  A    between atoms: C_4  and  C_6
REMARK    6  A    between atoms: N_7  and  C_8
REMARK    7  A    between atoms: C_13  and  N_14
REMARK                            x       y       z     vdW  Elec       q    Type
REMARK                         _______ _______ _______ _____ _____    ______ ____
ROOT
ATOM      1  C   UNL     1       0.105  -0.412   2.498  0.00  0.00    +0.058 A 
ATOM      2  C   UNL     1      -1.220  -0.009   2.602  0.00  0.00    +0.026 A 
ATOM      3  C   UNL     1      -1.971  -0.384   3.698  0.00  0.00    +0.017 A 
ATOM      4  C   UNL     1      -1.404  -1.160   4.694  0.00  0.00    +0.020 A 
ATOM      5  C   UNL     1      -0.085  -1.562   4.594  0.00  0.00    +0.050 A 
ATOM      6  C   UNL     1       0.669  -1.196   3.496  0.00  0.00    +0.148 A 
ATOM      7 BR   UNL     1      -2.436  -1.671   6.194  0.00  0.00    -0.050 Br
ENDROOT
BRANCH   6   8
ATOM      8  N   UNL     1       2.079  -1.632   3.387  0.00  0.00    +0.058 N 
ATOM      9  O   UNL     1       2.535  -1.941   2.311  0.00  0.00    -0.126 OA
ATOM     10  O   UNL     1       2.776  -1.680   4.374  0.00  0.00    -0.126 OA
ENDBRANCH   6   8
BRANCH   1  11
ATOM     11  N   UNL     1       0.867  -0.034   1.390  0.00  0.00    -0.339 N 
ATOM     12  H   UNL     1       1.814  -0.242   1.359  0.00  0.00    +0.146 HD
BRANCH  11  14
ATOM     13  C   UNL     1       0.203   2.176   0.579  0.00  0.00    +0.028 C 
ATOM     14  C   UNL     1       0.236   0.676   0.275  0.00  0.00    +0.070 C 
BRANCH  14  15
ATOM     15  C   UNL     1       1.039   0.433  -1.004  0.00  0.00    +0.003 C 
ATOM     16  C   UNL     1       0.380   1.175  -2.169  0.00  0.00    +0.009 C 
ATOM     17  C   UNL     1       2.468   0.947  -0.815  0.00  0.00    +0.009 C 
ENDBRANCH  14  15
ENDBRANCH  11  14
ENDBRANCH   1  11
TORSDOF 4
