REMARK  Name = ZINC46053264
REMARK  7 active torsions:
REMARK  status: ('A' for Active; 'I' for Inactive)
REMARK    1  A    between atoms: C_1  and  N_2
REMARK    2  A    between atoms: C_6  and  C_9
REMARK    3  A    between atoms: C_6  and  O_25
REMARK    4  A    between atoms: C_9  and  N_10
REMARK    5  A    between atoms: N_10  and  C_11
REMARK    6  A    between atoms: C_11  and  C_12
REMARK    7  A    between atoms: C_17  and  C_18
REMARK                            x       y       z     vdW  Elec       q    Type
REMARK                         _______ _______ _______ _____ _____    ______ ____
ROOT
ATOM      1  N   UNL     1       3.730  -1.947   0.630  0.00  0.00    +0.384 N 
ATOM      2  H   UNL     1       3.929  -2.152  -0.338  0.00  0.00    -0.085 HD
ATOM      3  H   UNL     1       3.612  -0.952   0.745  0.00  0.00    -0.085 HD
ENDROOT
BRANCH   1   4
ATOM      4  C   UNL     1       2.498  -2.637   1.035  0.00  0.00    -0.037 C 
BRANCH   4  10
ATOM      5  C   UNL     1      -2.034  -3.957   0.274  0.00  0.00    +0.132 C 
ATOM      6  N   UNL     1      -0.820  -3.349  -0.275  0.00  0.00    -0.302 N 
ATOM      7  C   UNL     1      -0.668  -3.317  -1.724  0.00  0.00    +0.107 C 
ATOM      8  C   UNL     1       0.368  -2.268  -2.130  0.00  0.00    +0.022 C 
ATOM      9  C   UNL     1       1.643  -2.492  -1.308  0.00  0.00    +0.044 C 
ATOM     10  C   UNL     1       1.338  -2.165   0.156  0.00  0.00    +0.127 C 
ATOM     11  C   UNL     1       0.073  -2.853   0.582  0.00  0.00    +0.245 C 
ATOM     12  O   UNL     1      -0.145  -2.969   1.769  0.00  0.00    -0.273 OA
BRANCH  10  13
ATOM     13  O   UNL     1       1.177  -0.753   0.303  0.00  0.00    -0.381 OA
ATOM     14  H   UNL     1       0.981  -0.471   1.208  0.00  0.00    +0.211 HD
ENDBRANCH  10  13
ENDBRANCH   4  10
ENDBRANCH   1   4
BRANCH   1  15
ATOM     15  C   UNL     1       4.846  -2.407   1.467  0.00  0.00    -0.043 C 
BRANCH  15  16
ATOM     16  C   UNL     1       6.089  -1.627   1.121  0.00  0.00    -0.019 A 
ATOM     17  C   UNL     1       7.138  -2.081   0.401  0.00  0.00    +0.107 A 
ATOM     18  N   UNL     1       8.045  -1.085   0.313  0.00  0.00    -0.284 N 
ATOM     19  H   UNL     1       8.897  -1.130  -0.148  0.00  0.00    +0.188 HD
ATOM     20  N   UNL     1       7.541   0.026   1.002  0.00  0.00    -0.174 NA
ATOM     21  C   UNL     1       6.360  -0.294   1.486  0.00  0.00    +0.094 A 
BRANCH  21  22
ATOM     22  C   UNL     1       5.472   0.592   2.279  0.00  0.00    +0.002 A 
ATOM     23  C   UNL     1       5.289   1.920   1.898  0.00  0.00    +0.011 A 
ATOM     24  C   UNL     1       4.462   2.740   2.639  0.00  0.00    +0.020 A 
ATOM     25  C   UNL     1       3.815   2.245   3.758  0.00  0.00    +0.041 A 
ATOM     26  C   UNL     1       3.993   0.927   4.140  0.00  0.00    +0.020 A 
ATOM     27  C   UNL     1       4.813   0.097   3.402  0.00  0.00    +0.011 A 
ATOM     28 CL   UNL     1       2.776   3.282   4.685  0.00  0.00    -0.084 Cl
ENDBRANCH  21  22
ENDBRANCH  15  16
ENDBRANCH   1  15
TORSDOF 6
