REMARK  Name = ZINC00880961
REMARK  13 active torsions:
REMARK  status: ('A' for Active; 'I' for Inactive)
REMARK    1  A    between atoms: C_1  and  C_2
REMARK    2  A    between atoms: C_4  and  C_8
REMARK    3  A    between atoms: N_10  and  N_11
REMARK    4  A    between atoms: C_12  and  C_13
REMARK    5  A    between atoms: C_18  and  O_19
REMARK    6  A    between atoms: O_19  and  C_20
REMARK    7  A    between atoms: C_20  and  C_22
REMARK    8  A    between atoms: C_24  and  O_32
REMARK    9  A    between atoms: C_25  and  O_30
REMARK   10  A    between atoms: C_26  and  O_28
REMARK   11  A    between atoms: O_28  and  C_29
REMARK   12  A    between atoms: O_30  and  C_31
REMARK   13  A    between atoms: O_32  and  C_33
REMARK                            x       y       z     vdW  Elec       q    Type
REMARK                         _______ _______ _______ _____ _____    ______ ____
ROOT
ATOM      1  C   UNL     1       0.105  -8.125  -1.785  0.00  0.00    +0.039 A 
ATOM      2  C   UNL     1       0.120  -9.368  -1.148  0.00  0.00    +0.028 A 
ATOM      3  C   UNL     1       0.132 -10.526  -1.899  0.00  0.00    +0.020 A 
ATOM      4  C   UNL     1       0.130 -10.460  -3.283  0.00  0.00    +0.034 A 
ATOM      5  C   UNL     1       0.116  -9.235  -3.925  0.00  0.00    +0.062 A 
ATOM      6  C   UNL     1       0.098  -8.063  -3.184  0.00  0.00    +0.155 A 
ATOM      7 BR   UNL     1       0.114  -9.159  -5.814  0.00  0.00    -0.046 Br
ATOM      8 BR   UNL     1       0.152 -12.208  -1.037  0.00  0.00    -0.050 Br
ENDROOT
BRANCH   1  10
ATOM      9  N   UNL     1       0.073  -5.732  -1.583  0.00  0.00    -0.187 NA
ATOM     10  C   UNL     1       0.092  -6.885  -0.988  0.00  0.00    +0.142 C 
BRANCH   9  13
ATOM     11  C   UNL     1       0.041  -3.355  -1.444  0.00  0.00    +0.281 C 
ATOM     12  O   UNL     1       0.035  -3.298  -2.659  0.00  0.00    -0.267 OA
ATOM     13  N   UNL     1       0.061  -4.553  -0.826  0.00  0.00    -0.202 N 
ATOM     14  H   UNL     1       0.067  -4.599   0.143  0.00  0.00    +0.178 HD
BRANCH  11  18
ATOM     15  C   UNL     1      -0.018   1.503   0.010  0.00  0.00    +0.067 C 
ATOM     16  C   UNL     1       0.002  -0.004   0.002  0.00  0.00    +0.060 A 
ATOM     17  C   UNL     1       0.008  -0.820  -1.131  0.00  0.00    +0.057 A 
ATOM     18  C   UNL     1       0.028  -2.118  -0.649  0.00  0.00    +0.122 A 
ATOM     19  N   UNL     1       0.033  -2.018   0.714  0.00  0.00    -0.272 N 
ATOM     20  H   UNL     1       0.047  -2.768   1.329  0.00  0.00    +0.189 HD
ATOM     21  N   UNL     1       0.023  -0.780   1.056  0.00  0.00    -0.178 NA
ENDBRANCH  11  18
ENDBRANCH   9  13
ENDBRANCH   1  10
BRANCH   6  22
ATOM     22  O   UNL     1       0.077  -6.859  -3.814  0.00  0.00    -0.421 OA
BRANCH  22  23
ATOM     23  C   UNL     1       1.257  -6.282  -4.113  0.00  0.00    +0.345 C 
ATOM     24  O   UNL     1       2.297  -6.838  -3.820  0.00  0.00    -0.245 OA
BRANCH  23  25
ATOM     25  C   UNL     1       1.287  -4.975  -4.796  0.00  0.00    +0.067 A 
ATOM     26  C   UNL     1       0.091  -4.332  -5.128  0.00  0.00    +0.064 A 
ATOM     27  C   UNL     1       0.122  -3.107  -5.768  0.00  0.00    +0.166 A 
ATOM     28  C   UNL     1       1.342  -2.514  -6.081  0.00  0.00    +0.204 A 
ATOM     29  C   UNL     1       2.535  -3.153  -5.751  0.00  0.00    +0.166 A 
ATOM     30  C   UNL     1       2.510  -4.375  -5.107  0.00  0.00    +0.064 A 
BRANCH  29  31
ATOM     31  O   UNL     1       3.725  -2.571  -6.059  0.00  0.00    -0.491 OA
ATOM     32  C   UNL     1       4.909  -3.281  -5.691  0.00  0.00    +0.277 C 
ENDBRANCH  29  31
BRANCH  28  33
ATOM     33  O   UNL     1       1.369  -1.310  -6.711  0.00  0.00    -0.488 OA
ATOM     34  C   UNL     1       1.385  -0.146  -5.883  0.00  0.00    +0.277 C 
ENDBRANCH  28  33
BRANCH  27  35
ATOM     35  O   UNL     1      -1.041  -2.481  -6.092  0.00  0.00    -0.491 OA
ATOM     36  C   UNL     1      -2.256  -3.147  -5.742  0.00  0.00    +0.277 C 
ENDBRANCH  27  35
ENDBRANCH  23  25
ENDBRANCH  22  23
ENDBRANCH   6  22
TORSDOF 9
