REMARK  Name = ZINC23524348
REMARK  10 active torsions:
REMARK  status: ('A' for Active; 'I' for Inactive)
REMARK    1  A    between atoms: C_1  and  C_2
REMARK    2  A    between atoms: C_5  and  C_9
REMARK    3  A    between atoms: C_6  and  O_8
REMARK    4  A    between atoms: N_11  and  C_12
REMARK    5  A    between atoms: N_11  and  C_13
REMARK    6  A    between atoms: C_13  and  C_14
REMARK    7  A    between atoms: N_16  and  C_17
REMARK    8  A    between atoms: C_18  and  C_25
REMARK    9  A    between atoms: C_20  and  C_24
REMARK   10  A    between atoms: C_22  and  C_23
REMARK                            x       y       z     vdW  Elec       q    Type
REMARK                         _______ _______ _______ _____ _____    ______ ____
ROOT
ATOM      1  C   UNL     1      -0.316   1.338   1.233  0.00  0.00    +0.203 C 
ENDROOT
BRANCH   1   4
ATOM      2  C   UNL     1      -0.984   1.847   3.520  0.00  0.00    +0.250 C 
ATOM      3  O   UNL     1      -1.565   0.779   3.558  0.00  0.00    -0.270 OA
ATOM      4  N   UNL     1      -0.299   2.203   2.415  0.00  0.00    -0.292 N 
ATOM      5  C   UNL     1       0.463   3.454   2.397  0.00  0.00    +0.133 C 
BRANCH   2  10
ATOM      6  C   UNL     1      -1.164   5.388   8.054  0.00  0.00    +0.044 C 
ATOM      7  C   UNL     1      -1.117   4.458   6.869  0.00  0.00    -0.047 A 
ATOM      8  C   UNL     1      -1.020   4.978   5.589  0.00  0.00    +0.004 A 
ATOM      9  C   UNL     1      -0.977   4.137   4.498  0.00  0.00    +0.017 A 
ATOM     10  C   UNL     1      -1.030   2.753   4.683  0.00  0.00    +0.078 A 
ATOM     11  C   UNL     1      -1.133   2.231   5.980  0.00  0.00    +0.129 A 
ATOM     12  C   UNL     1      -1.170   3.092   7.066  0.00  0.00    +0.049 A 
BRANCH  11  13
ATOM     13  O   UNL     1      -1.191   0.889   6.171  0.00  0.00    -0.506 OA
ATOM     14  H   UNL     1      -1.271   0.482   7.190  0.00  0.00    +0.292 HD
ENDBRANCH  11  13
ENDBRANCH   2  10
ENDBRANCH   1   4
BRANCH   1  15
ATOM     15  C   UNL     1       0.822   0.353   1.315  0.00  0.00    +0.235 C 
ATOM     16  O   UNL     1       1.576   0.375   2.265  0.00  0.00    -0.274 OA
ATOM     17  N   UNL     1       1.005  -0.549   0.330  0.00  0.00    -0.284 N 
ATOM     18  H   UNL     1       0.296  -0.597  -0.510  0.00  0.00    +0.155 HD
BRANCH  17  19
ATOM     19  C   UNL     1       2.096  -1.423   0.376  0.00  0.00    +0.039 A 
ATOM     20  C   UNL     1       3.391  -0.923   0.336  0.00  0.00    -0.029 A 
ATOM     21  C   UNL     1       4.466  -1.788   0.385  0.00  0.00    +0.008 A 
ATOM     22  C   UNL     1       4.254  -3.152   0.465  0.00  0.00    -0.050 A 
ATOM     23  C   UNL     1       2.966  -3.654   0.500  0.00  0.00    +0.008 A 
ATOM     24  C   UNL     1       1.887  -2.794   0.456  0.00  0.00    -0.029 A 
ATOM     25  C   UNL     1       0.483  -3.341   0.494  0.00  0.00    +0.045 C 
ATOM     26  C   UNL     1       5.430  -4.094   0.514  0.00  0.00    +0.044 C 
ATOM     27  C   UNL     1       3.623   0.564   0.243  0.00  0.00    +0.045 C 
ENDBRANCH  17  19
ENDBRANCH   1  15
TORSDOF 5
