REMARK  Name = ZINC30755737
REMARK  9 active torsions:
REMARK  status: ('A' for Active; 'I' for Inactive)
REMARK    1  A    between atoms: C_1  and  C_2
REMARK    2  A    between atoms: C_2  and  C_3
REMARK    3  A    between atoms: C_3  and  C_5
REMARK    4  A    between atoms: C_3  and  N_11
REMARK    5  A    between atoms: C_12  and  C_14
REMARK    6  A    between atoms: C_18  and  N_21
REMARK    7  A    between atoms: C_19  and  C_20
REMARK    8  A    between atoms: N_21  and  S_22
REMARK    9  A    between atoms: S_22  and  C_25
REMARK                            x       y       z     vdW  Elec       q    Type
REMARK                         _______ _______ _______ _____ _____    ______ ____
ROOT
ATOM      1  C   UNL     1       0.944  -0.122   4.022  0.00  0.00    +0.041 A 
ATOM      2  C   UNL     1       1.867   0.757   4.589  0.00  0.00    +0.013 A 
ATOM      3  C   UNL     1       2.338   0.533   5.867  0.00  0.00    +0.003 A 
ATOM      4  C   UNL     1       1.897  -0.560   6.590  0.00  0.00    +0.025 A 
ATOM      5  C   UNL     1       0.977  -1.441   6.034  0.00  0.00    +0.052 A 
ATOM      6  C   UNL     1       0.495  -1.222   4.752  0.00  0.00    -0.016 A 
ATOM      7  C   UNL     1      -0.507  -2.173   4.149  0.00  0.00    +0.046 C 
ENDROOT
BRANCH   1   9
ATOM      8  N   UNL     1       0.764   1.249   2.001  0.00  0.00    -0.305 N 
ATOM      9  C   UNL     1       0.438   0.115   2.652  0.00  0.00    +0.245 C 
ATOM     10  O   UNL     1      -0.271  -0.713   2.114  0.00  0.00    -0.270 OA
ATOM     11  H   UNL     1       1.406   1.998   2.488  0.00  0.00    +0.150 HD
BRANCH   8  12
ATOM     12  C   UNL     1       0.263   1.484   0.644  0.00  0.00    +0.103 C 
BRANCH  12  13
ATOM     13  C   UNL     1       0.218   2.966   0.375  0.00  0.00    -0.027 A 
ATOM     14  C   UNL     1       1.238   3.782   0.829  0.00  0.00    +0.005 A 
ATOM     15  C   UNL     1       1.199   5.141   0.578  0.00  0.00    +0.000 A 
ATOM     16  C   UNL     1       0.136   5.685  -0.118  0.00  0.00    +0.000 A 
ATOM     17  C   UNL     1      -0.886   4.870  -0.568  0.00  0.00    +0.000 A 
ATOM     18  C   UNL     1      -0.845   3.510  -0.321  0.00  0.00    +0.005 A 
ENDBRANCH  12  13
BRANCH  12  20
ATOM     19  C   UNL     1       1.143  -0.707  -0.173  0.00  0.00    +0.006 C 
ATOM     20  C   UNL     1       1.193   0.810  -0.366  0.00  0.00    +0.024 C 
ENDBRANCH  12  20
ENDBRANCH   8  12
ENDBRANCH   1   9
BRANCH   5  21
ATOM     21  N   UNL     1       0.535  -2.544   6.768  0.00  0.00    -0.216 N 
ATOM     22  H   UNL     1       0.324  -3.496   6.258  0.00  0.00    +0.174 HD
BRANCH  21  23
ATOM     23  S   UNL     1       0.328  -2.420   8.406  0.00  0.00    +0.072 S 
ATOM     24  O   UNL     1      -0.247  -3.645   8.838  0.00  0.00    -0.150 OA
ATOM     25  O   UNL     1       1.552  -1.925   8.934  0.00  0.00    -0.150 OA
BRANCH  23  26
ATOM     26  C   UNL     1      -0.882  -1.170   8.685  0.00  0.00    +0.108 A 
ATOM     27  C   UNL     1      -0.492   0.146   8.846  0.00  0.00    +0.029 A 
ATOM     28  C   UNL     1      -1.442   1.128   9.060  0.00  0.00    +0.002 A 
ATOM     29  C   UNL     1      -2.782   0.791   9.123  0.00  0.00    +0.000 A 
ATOM     30  C   UNL     1      -3.171  -0.526   8.968  0.00  0.00    +0.002 A 
ATOM     31  C   UNL     1      -2.221  -1.507   8.749  0.00  0.00    +0.029 A 
ENDBRANCH  23  26
ENDBRANCH  21  23
ENDBRANCH   5  21
TORSDOF 7
