REMARK  Name = ZINC20052889
REMARK  8 active torsions:
REMARK  status: ('A' for Active; 'I' for Inactive)
REMARK    1  A    between atoms: C_1  and  C_2
REMARK    2  A    between atoms: C_3  and  N_26
REMARK    3  A    between atoms: C_4  and  C_25
REMARK    4  A    between atoms: N_5  and  C_7
REMARK    5  A    between atoms: C_7  and  C_8
REMARK    6  A    between atoms: N_10  and  C_11
REMARK    7  A    between atoms: N_10  and  C_17
REMARK    8  A    between atoms: C_11  and  C_12
REMARK                            x       y       z     vdW  Elec       q    Type
REMARK                         _______ _______ _______ _____ _____    ______ ____
ROOT
ATOM      1  C   UNL     1      -2.070   4.842  -1.610  0.00  0.00    +0.238 C 
ATOM      2  O   UNL     1      -0.931   4.878  -1.195  0.00  0.00    -0.274 OA
ATOM      3  N   UNL     1      -2.814   3.731  -1.440  0.00  0.00    -0.290 N 
ENDROOT
BRANCH   3   4
ATOM      4  C   UNL     1      -2.292   2.614  -0.649  0.00  0.00    +0.099 C 
ATOM      5  C   UNL     1      -1.928   3.113   0.759  0.00  0.00    +0.047 C 
ATOM      6  C   UNL     1      -1.094   2.005   1.466  0.00  0.00    +0.168 C 
ATOM      7  S   UNL     1      -0.022   1.452   0.074  0.00  0.00    -0.029 S 
ATOM      8  O   UNL     1       0.021   0.031   0.060  0.00  0.00    -0.174 OA
ATOM      9  O   UNL     1       1.194   2.187   0.106  0.00  0.00    -0.174 OA
ATOM     10  C   UNL     1      -1.036   2.034  -1.345  0.00  0.00    +0.188 C 
ENDBRANCH   3   4
BRANCH   1  11
ATOM     11  C   UNL     1      -2.654   6.038  -2.317  0.00  0.00    +0.239 C 
BRANCH  11  16
ATOM     12  C   UNL     1       0.304   9.997  -1.435  0.00  0.00    +0.070 C 
ATOM     13  C   UNL     1      -0.334   8.794  -2.080  0.00  0.00    +0.090 A 
ATOM     14  C   UNL     1       0.021   8.241  -3.315  0.00  0.00    +0.169 A 
ATOM     15  C   UNL     1      -0.782   7.176  -3.541  0.00  0.00    +0.067 A 
ATOM     16  N   UNL     1      -1.616   7.059  -2.486  0.00  0.00    -0.257 N 
ATOM     17  N   UNL     1      -1.319   8.089  -1.585  0.00  0.00    -0.173 NA
ATOM     18  C   UNL     1      -0.752   6.281  -4.753  0.00  0.00    +0.068 C 
BRANCH  14  19
ATOM     19  N   UNL     1       1.088   8.733  -4.215  0.00  0.00    +0.060 N 
ATOM     20  O   UNL     1       0.829   9.564  -5.068  0.00  0.00    -0.126 OA
ATOM     21  O   UNL     1       2.224   8.308  -4.104  0.00  0.00    -0.126 OA
ENDBRANCH  14  19
ENDBRANCH  11  16
ENDBRANCH   1  11
BRANCH   3  22
ATOM     22  C   UNL     1      -4.145   3.640  -2.046  0.00  0.00    +0.150 C 
BRANCH  22  23
ATOM     23  C   UNL     1      -5.173   4.172  -1.081  0.00  0.00    +0.007 A 
ATOM     24  C   UNL     1      -5.633   5.439  -0.936  0.00  0.00    +0.013 A 
ATOM     25  C   UNL     1      -6.592   5.698   0.025  0.00  0.00    +0.008 A 
ATOM     26  C   UNL     1      -7.038   4.679   0.800  0.00  0.00    +0.045 A 
ATOM     27  S   UNL     1      -6.096   3.298   0.172  0.00  0.00    -0.100 S 
ENDBRANCH  22  23
ENDBRANCH   3  22
TORSDOF 6
