REMARK  Name = ZINC12866316
REMARK  10 active torsions:
REMARK  status: ('A' for Active; 'I' for Inactive)
REMARK    1  A    between atoms: C_1  and  C_2
REMARK    2  A    between atoms: C_7  and  C_36
REMARK    3  A    between atoms: C_18  and  C_20
REMARK    4  A    between atoms: C_20  and  N_68
REMARK    5  A    between atoms: C_21  and  C_22
REMARK    6  A    between atoms: C_21  and  N_68
REMARK    7  A    between atoms: C_25  and  O_28
REMARK    8  A    between atoms: O_28  and  C_29
REMARK    9  A    between atoms: C_30  and  C_31
REMARK   10  A    between atoms: C_30  and  N_68
REMARK                            x       y       z     vdW  Elec       q    Type
REMARK                         _______ _______ _______ _____ _____    ______ ____
ROOT
ATOM      1  C   UNL     1       0.912  -1.172   0.171  0.00  0.00    -0.062 C 
ENDROOT
BRANCH   1  16
ATOM      2  C   UNL     1       5.203  -3.289  -0.584  0.00  0.00    +0.012 C 
ATOM      3  C   UNL     1       4.034  -4.268  -0.456  0.00  0.00    +0.012 C 
ATOM      4  C   UNL     1       4.567  -5.700  -0.384  0.00  0.00    +0.007 C 
ATOM      5  C   UNL     1       5.389  -5.865   0.897  0.00  0.00    +0.001 C 
ATOM      6  C   UNL     1       4.474  -5.697   2.110  0.00  0.00    +0.011 C 
ATOM      7  C   UNL     1       3.900  -4.276   2.134  0.00  0.00    -0.007 C 
ATOM      8  C   UNL     1       3.256  -3.968   0.814  0.00  0.00    -0.064 C 
ATOM      9  C   UNL     1       2.075  -3.446   0.696  0.00  0.00    -0.019 C 
ATOM     10  C   UNL     1       1.172  -3.070   1.832  0.00  0.00    +0.064 C 
ATOM     11  C   UNL     1       1.983  -2.981   3.144  0.00  0.00    +0.185 C 
ATOM     12  C   UNL     1       2.922  -4.154   3.290  0.00  0.00    +0.056 C 
ATOM     13  O   UNL     1       2.687  -1.710   3.018  0.00  0.00    -0.461 OA
ATOM     14  C   UNL     1       1.823  -0.824   2.477  0.00  0.00    +0.309 C 
ATOM     15  O   UNL     1       1.860   0.374   2.632  0.00  0.00    -0.251 OA
ATOM     16  C   UNL     1       0.798  -1.571   1.644  0.00  0.00    +0.092 C 
ATOM     17  C   UNL     1       5.043  -3.287   2.369  0.00  0.00    +0.016 C 
ENDBRANCH   1  16
BRANCH   1  18
ATOM     18  N   UNL     1       0.550   0.255   0.040  0.00  0.00    +0.388 N 
ATOM     19  H   UNL     1       0.858   0.756   0.882  0.00  0.00    -0.081 HD
BRANCH  18  20
ATOM     20  C   UNL     1       1.220   0.840  -1.140  0.00  0.00    -0.042 C 
BRANCH  20  21
ATOM     21  C   UNL     1       1.014   2.333  -1.125  0.00  0.00    -0.064 A 
ATOM     22  C   UNL     1      -0.074   2.886  -1.776  0.00  0.00    +0.005 A 
ATOM     23  C   UNL     1      -0.268   4.254  -1.760  0.00  0.00    +0.046 A 
ATOM     24  C   UNL     1       0.635   5.073  -1.099  0.00  0.00    +0.120 A 
ATOM     25  C   UNL     1       1.728   4.517  -0.451  0.00  0.00    +0.046 A 
ATOM     26  C   UNL     1       1.915   3.148  -0.466  0.00  0.00    +0.005 A 
BRANCH  24  27
ATOM     27  O   UNL     1       0.449   6.420  -1.086  0.00  0.00    -0.495 OA
ATOM     28  C   UNL     1      -0.698   6.923  -1.773  0.00  0.00    +0.277 C 
ENDBRANCH  24  27
ENDBRANCH  20  21
ENDBRANCH  18  20
BRANCH  18  29
ATOM     29  C   UNL     1      -0.916   0.394  -0.091  0.00  0.00    -0.003 C 
BRANCH  29  30
ATOM     30  C   UNL     1      -1.548   0.148   1.255  0.00  0.00    +0.089 A 
ATOM     31  C   UNL     1      -1.647   1.046   2.253  0.00  0.00    +0.042 A 
ATOM     32  C   UNL     1      -2.306   0.397   3.322  0.00  0.00    +0.041 A 
ATOM     33  C   UNL     1      -2.563  -0.859   2.918  0.00  0.00    +0.195 A 
ATOM     34  O   UNL     1      -2.101  -1.004   1.665  0.00  0.00    -0.470 OA
ENDBRANCH  29  30
ENDBRANCH  18  29
ENDBRANCH   1  18
TORSDOF 7
