REMARK  Name = ZINC06157448
REMARK  6 active torsions:
REMARK  status: ('A' for Active; 'I' for Inactive)
REMARK    1  A    between atoms: C_1  and  C_2
REMARK    2  A    between atoms: C_7  and  C_10
REMARK    3  A    between atoms: N_14  and  S_15
REMARK    4  A    between atoms: S_15  and  C_18
REMARK    5  A    between atoms: C_20  and  C_28
REMARK    6  A    between atoms: C_22  and  C_24
REMARK                            x       y       z     vdW  Elec       q    Type
REMARK                         _______ _______ _______ _____ _____    ______ ____
ROOT
ATOM      1  S   UNL     1      -0.543   1.088   2.867  0.00  0.00    +0.077 S 
ATOM      2  O   UNL     1      -1.758   1.178   3.599  0.00  0.00    -0.150 OA
ATOM      3  O   UNL     1       0.229  -0.104   2.817  0.00  0.00    -0.150 OA
ENDROOT
BRANCH   1  15
ATOM      4  C   UNL     1      -5.644   2.732   0.367  0.00  0.00    +0.039 C 
ATOM      5  C   UNL     1      -5.449   2.461   1.861  0.00  0.00    +0.133 C 
ATOM      6  C   UNL     1      -4.147   1.681   2.073  0.00  0.00    +0.139 C 
ATOM      7  N   UNL     1      -3.018   2.561   1.731  0.00  0.00    -0.299 N 
ATOM      8  C   UNL     1      -2.976   3.900   2.340  0.00  0.00    +0.139 C 
ATOM      9  C   UNL     1      -4.338   4.574   2.110  0.00  0.00    +0.133 C 
ATOM     10  O   UNL     1      -5.375   3.702   2.566  0.00  0.00    -0.371 OA
ATOM     11  C   UNL     1      -4.395   5.888   2.890  0.00  0.00    +0.039 C 
ATOM     12  C   UNL     1      -2.029   2.142   0.873  0.00  0.00    +0.179 C 
ATOM     13  C   UNL     1      -0.882   1.777  -1.048  0.00  0.00    +0.136 C 
ATOM     14  C   UNL     1      -0.070   1.188   0.123  0.00  0.00    +0.155 C 
ATOM     15  N   UNL     1      -0.904   1.484   1.300  0.00  0.00    -0.173 N 
ATOM     16  N   UNL     1      -2.082   2.338  -0.406  0.00  0.00    -0.358 N 
ATOM     17  H   UNL     1      -2.847   2.813  -0.899  0.00  0.00    +0.162 HD
ENDBRANCH   1  15
BRANCH   1  18
ATOM     18  C   UNL     1       0.516   2.349   3.493  0.00  0.00    +0.110 A 
ATOM     19  C   UNL     1       1.885   2.243   3.334  0.00  0.00    +0.041 A 
ATOM     20  C   UNL     1       2.716   3.235   3.821  0.00  0.00    +0.057 A 
ATOM     21  C   UNL     1       2.179   4.328   4.475  0.00  0.00    +0.024 A 
ATOM     22  C   UNL     1       0.810   4.431   4.639  0.00  0.00    +0.057 A 
ATOM     23  C   UNL     1      -0.021   3.441   4.148  0.00  0.00    +0.041 A 
BRANCH  22  24
ATOM     24  C   UNL     1       0.224   5.622   5.352  0.00  0.00    +0.417 C 
ATOM     25  F   UNL     1       0.131   5.347   6.721  0.00  0.00    -0.166 F 
ATOM     26  F   UNL     1       1.048   6.735   5.155  0.00  0.00    -0.166 F 
ATOM     27  F   UNL     1      -1.052   5.889   4.842  0.00  0.00    -0.166 F 
ENDBRANCH  22  24
BRANCH  20  28
ATOM     28  C   UNL     1       4.208   3.123   3.642  0.00  0.00    +0.417 C 
ATOM     29  F   UNL     1       4.832   4.236   4.217  0.00  0.00    -0.166 F 
ATOM     30  F   UNL     1       4.667   1.958   4.266  0.00  0.00    -0.166 F 
ATOM     31  F   UNL     1       4.512   3.072   2.277  0.00  0.00    -0.166 F 
ENDBRANCH  20  28
ENDBRANCH   1  18
TORSDOF 4
