REMARK  Name = ZINC60335618
REMARK  9 active torsions:
REMARK  status: ('A' for Active; 'I' for Inactive)
REMARK    1  A    between atoms: C_1  and  C_2
REMARK    2  A    between atoms: N_5  and  C_8
REMARK    3  A    between atoms: C_8  and  C_10
REMARK    4  A    between atoms: C_8  and  C_29
REMARK    5  A    between atoms: C_10  and  N_11
REMARK    6  A    between atoms: C_12  and  C_14
REMARK    7  A    between atoms: C_20  and  C_22
REMARK    8  A    between atoms: C_29  and  C_30
REMARK    9  A    between atoms: C_29  and  C_31
REMARK                            x       y       z     vdW  Elec       q    Type
REMARK                         _______ _______ _______ _____ _____    ______ ____
ROOT
ATOM      1  N   UNL     1       1.681  -3.953  -2.462  0.00  0.00    -0.315 N 
ATOM      2  C   UNL     1       2.306  -4.114  -3.645  0.00  0.00    +0.234 C 
ATOM      3  O   UNL     1       3.310  -4.791  -3.713  0.00  0.00    -0.274 OA
ATOM      4  H   UNL     1       0.878  -3.411  -2.408  0.00  0.00    +0.149 HD
ENDROOT
BRANCH   2   5
ATOM      5  C   UNL     1       1.758  -3.452  -4.883  0.00  0.00    +0.162 C 
ATOM      6  C   UNL     1       0.341  -3.986  -5.180  0.00  0.00    +0.033 C 
ATOM      7  C   UNL     1       0.326  -4.088  -6.728  0.00  0.00    +0.021 C 
ATOM      8  C   UNL     1       1.784  -4.515  -7.027  0.00  0.00    +0.109 C 
ATOM      9  N   UNL     1       2.603  -3.780  -6.041  0.00  0.00    -0.286 N 
ATOM     10  C   UNL     1       3.906  -3.462  -6.178  0.00  0.00    +0.247 C 
ATOM     11  O   UNL     1       4.497  -2.916  -5.267  0.00  0.00    -0.270 OA
BRANCH  10  12
ATOM     12  C   UNL     1       4.615  -3.776  -7.436  0.00  0.00    +0.037 A 
ATOM     13  C   UNL     1       5.717  -3.014  -7.828  0.00  0.00    +0.014 A 
ATOM     14  C   UNL     1       6.375  -3.312  -9.003  0.00  0.00    +0.016 A 
ATOM     15  C   UNL     1       5.944  -4.365  -9.793  0.00  0.00    +0.018 A 
ATOM     16  C   UNL     1       4.851  -5.124  -9.410  0.00  0.00    +0.016 A 
ATOM     17  C   UNL     1       4.189  -4.839  -8.234  0.00  0.00    +0.014 A 
ATOM     18 BR   UNL     1       6.851  -4.766 -11.403  0.00  0.00    -0.050 Br
ENDBRANCH  10  12
ENDBRANCH   2   5
BRANCH   1  19
ATOM     19  C   UNL     1       2.213  -4.597  -1.258  0.00  0.00    +0.089 C 
BRANCH  19  20
ATOM     20  C   UNL     1       1.442  -4.104  -0.033  0.00  0.00    -0.049 C 
BRANCH  20  25
ATOM     21  C   UNL     1       3.529   1.201   0.102  0.00  0.00    +0.007 C 
ATOM     22  C   UNL     1       3.231  -0.246  -0.295  0.00  0.00    -0.018 C 
ATOM     23  C   UNL     1       3.627  -1.183   0.849  0.00  0.00    -0.016 C 
ATOM     24  C   UNL     1       3.253  -2.620   0.477  0.00  0.00    -0.078 C 
ATOM     25  N   UNL     1       1.806  -2.709   0.248  0.00  0.00    +0.383 N 
ATOM     26  C   UNL     1       1.430  -1.867  -0.894  0.00  0.00    -0.078 C 
ATOM     27  C   UNL     1       1.733  -0.402  -0.575  0.00  0.00    -0.016 C 
ATOM     28  H   UNL     1       1.316  -2.395   1.072  0.00  0.00    -0.081 HD
ENDBRANCH  20  25
BRANCH  20  29
ATOM     29  C   UNL     1       1.792  -4.976   1.175  0.00  0.00    -0.029 C 
ATOM     30  C   UNL     1       1.014  -4.489   2.398  0.00  0.00    +0.005 C 
ATOM     31  C   UNL     1       1.420  -6.430   0.879  0.00  0.00    +0.005 C 
ENDBRANCH  20  29
ENDBRANCH  19  20
ENDBRANCH   1  19
TORSDOF 6
