REMARK  Name = ZINC03502642
REMARK  11 active torsions:
REMARK  status: ('A' for Active; 'I' for Inactive)
REMARK    1  A    between atoms: C_1  and  C_2
REMARK    2  A    between atoms: C_2  and  C_4
REMARK    3  A    between atoms: C_2  and  S_10
REMARK    4  A    between atoms: S_10  and  C_11
REMARK    5  A    between atoms: C_14  and  C_15
REMARK    6  A    between atoms: C_18  and  C_21
REMARK    7  A    between atoms: C_21  and  C_22
REMARK    8  A    between atoms: C_21  and  C_23
REMARK    9  A    between atoms: N_26  and  C_27
REMARK   10  A    between atoms: C_31  and  O_33
REMARK   11  A    between atoms: O_33  and  C_34
REMARK                            x       y       z     vdW  Elec       q    Type
REMARK                         _______ _______ _______ _____ _____    ______ ____
ROOT
ATOM      1  C   UNL     1      -0.118   0.093  -2.815  0.00  0.00    +0.169 C 
ATOM      2  N   UNL     1      -1.336   0.547  -2.671  0.00  0.00    -0.220 NA
ATOM      3  C   UNL     1      -1.810   0.959  -3.884  0.00  0.00    +0.129 C 
ATOM      4  C   UNL     1      -3.037   1.493  -4.148  0.00  0.00    +0.041 C 
ATOM      5  C   UNL     1      -0.722   0.709  -4.850  0.00  0.00    +0.275 C 
ATOM      6  O   UNL     1      -0.732   0.934  -6.046  0.00  0.00    -0.268 OA
ATOM      7  N   UNL     1       0.289   0.182  -4.125  0.00  0.00    -0.214 N 
ENDROOT
BRANCH   4   8
ATOM      8  C   UNL     1      -3.455   1.721  -5.537  0.00  0.00    -0.023 A 
ATOM      9  C   UNL     1      -3.177   0.764  -6.521  0.00  0.00    +0.008 A 
ATOM     10  C   UNL     1      -3.573   0.986  -7.823  0.00  0.00    +0.004 A 
ATOM     11  C   UNL     1      -4.243   2.150  -8.158  0.00  0.00    -0.045 A 
ATOM     12  C   UNL     1      -4.522   3.100  -7.191  0.00  0.00    +0.004 A 
ATOM     13  C   UNL     1      -4.139   2.893  -5.884  0.00  0.00    +0.008 A 
BRANCH  11  14
ATOM     14  C   UNL     1      -4.672   2.383  -9.584  0.00  0.00    +0.013 C 
ATOM     15  C   UNL     1      -6.193   2.537  -9.641  0.00  0.00    +0.012 C 
ATOM     16  C   UNL     1      -4.011   3.658 -10.113  0.00  0.00    +0.012 C 
ENDBRANCH  11  14
ENDBRANCH   4   8
BRANCH   7  17
ATOM     17  C   UNL     1       1.539  -0.212  -4.624  0.00  0.00    +0.047 A 
ATOM     18  C   UNL     1       1.890  -1.555  -4.639  0.00  0.00    +0.024 A 
ATOM     19  C   UNL     1       3.121  -1.943  -5.131  0.00  0.00    +0.005 A 
ATOM     20  C   UNL     1       4.006  -0.995  -5.609  0.00  0.00    +0.046 A 
ATOM     21  C   UNL     1       3.661   0.348  -5.596  0.00  0.00    +0.122 A 
ATOM     22  C   UNL     1       2.424   0.740  -5.108  0.00  0.00    +0.069 A 
BRANCH  21  23
ATOM     23  O   UNL     1       4.532   1.279  -6.067  0.00  0.00    -0.495 OA
ATOM     24  C   UNL     1       5.786   0.803  -6.559  0.00  0.00    +0.277 C 
ENDBRANCH  21  23
ENDBRANCH   7  17
BRANCH   1  25
ATOM     25  S   UNL     1       0.873  -0.541  -1.503  0.00  0.00    -0.077 S 
BRANCH  25  27
ATOM     26  C   UNL     1      -0.467   1.075   0.250  0.00  0.00    +0.029 C 
ATOM     27  C   UNL     1      -0.193  -0.402  -0.042  0.00  0.00    +0.137 C 
BRANCH  27  28
ATOM     28  C   UNL     1       0.495  -1.029   1.143  0.00  0.00    +0.233 C 
ATOM     29  O   UNL     1       1.705  -1.108   1.170  0.00  0.00    -0.274 OA
ATOM     30  N   UNL     1      -0.234  -1.501   2.173  0.00  0.00    -0.239 N 
ATOM     31  C   UNL     1       0.381  -2.062   3.233  0.00  0.00    +0.303 C 
ATOM     32  O   UNL     1       1.594  -2.142   3.260  0.00  0.00    -0.253 OA
ATOM     33  N   UNL     1      -0.348  -2.535   4.263  0.00  0.00    -0.313 N 
ATOM     34  H   UNL     1      -1.202  -1.438   2.152  0.00  0.00    +0.159 HD
ATOM     35  H   UNL     1      -1.316  -2.471   4.242  0.00  0.00    +0.146 HD
ATOM     36  H   UNL     1       0.095  -2.939   5.026  0.00  0.00    +0.146 HD
ENDBRANCH  27  28
ENDBRANCH  25  27
ENDBRANCH   1  25
TORSDOF 7
