REMARK  Name = ZINC37009136
REMARK  8 active torsions:
REMARK  status: ('A' for Active; 'I' for Inactive)
REMARK    1  A    between atoms: C_1  and  C_2
REMARK    2  A    between atoms: C_5  and  C_22
REMARK    3  A    between atoms: C_12  and  O_20
REMARK    4  A    between atoms: C_13  and  O_18
REMARK    5  A    between atoms: O_16  and  C_17
REMARK    6  A    between atoms: O_18  and  C_19
REMARK    7  A    between atoms: O_20  and  C_21
REMARK    8  A    between atoms: C_26  and  N_28
REMARK                            x       y       z     vdW  Elec       q    Type
REMARK                         _______ _______ _______ _____ _____    ______ ____
ROOT
ATOM      1  C   UNL     1      -0.018   1.503   0.010  0.00  0.00    +0.111 C 
ATOM      2  C   UNL     1       0.002  -0.004   0.002  0.00  0.00    +0.233 C 
ATOM      3  O   UNL     1       1.060  -0.596  -0.011  0.00  0.00    -0.274 OA
ATOM      4  N   UNL     1      -1.156  -0.694   0.009  0.00  0.00    -0.156 N 
ATOM      5  C   UNL     1      -1.321  -2.156   0.009  0.00  0.00    +0.317 C 
ATOM      6  O   UNL     1      -2.738  -2.371   0.019  0.00  0.00    -0.449 OA
ATOM      7  C   UNL     1      -3.345  -1.177   0.024  0.00  0.00    +0.232 C 
ATOM      8  N   UNL     1      -2.457  -0.169   0.025  0.00  0.00    -0.105 NA
ATOM      9  C   UNL     1      -4.742  -1.001   0.034  0.00  0.00    +0.080 C 
ATOM     10  C   UNL     1      -5.599  -2.118   0.045  0.00  0.00    +0.066 C 
ATOM     11  C   UNL     1      -6.950  -1.943   0.054  0.00  0.00    +0.162 C 
ATOM     12  C   UNL     1      -7.504  -0.655   0.052  0.00  0.00    +0.165 C 
ATOM     13  C   UNL     1      -6.689   0.459   0.043  0.00  0.00    +0.095 C 
ATOM     14  C   UNL     1      -5.298   0.305   0.039  0.00  0.00    +0.136 C 
ATOM     15  O   UNL     1      -4.567   1.289   0.035  0.00  0.00    -0.494 OA
ATOM     16  C   UNL     1      -5.269   2.534   0.042  0.00  0.00    +0.277 C 
ENDROOT
BRANCH   5  17
ATOM     17  C   UNL     1      -0.691  -2.755   1.240  0.00  0.00    +0.015 A 
ATOM     18  C   UNL     1      -0.640  -2.027   2.414  0.00  0.00    +0.009 A 
ATOM     19  C   UNL     1      -0.062  -2.575   3.543  0.00  0.00    +0.003 A 
ATOM     20  C   UNL     1       0.465  -3.853   3.499  0.00  0.00    +0.033 A 
ATOM     21  C   UNL     1       0.414  -4.581   2.325  0.00  0.00    +0.127 A 
ATOM     22  C   UNL     1      -0.169  -4.034   1.197  0.00  0.00    +0.041 A 
BRANCH  21  23
ATOM     23  N   UNL     1       0.978  -5.949   2.277  0.00  0.00    +0.056 N 
ATOM     24  O   UNL     1       1.485  -6.428   3.265  0.00  0.00    -0.126 OA
ATOM     25  O   UNL     1       0.933  -6.586   1.251  0.00  0.00    -0.126 OA
ENDBRANCH  21  23
ENDBRANCH   5  17
BRANCH  12  26
ATOM     26  O   UNL     1      -8.852  -0.503   0.061  0.00  0.00    -0.491 OA
ATOM     27  C   UNL     1      -9.354   0.836   0.059  0.00  0.00    +0.277 C 
ENDBRANCH  12  26
BRANCH  11  28
ATOM     28  O   UNL     1      -7.771  -3.029   0.063  0.00  0.00    -0.491 OA
ATOM     29  C   UNL     1      -7.146  -4.314   0.064  0.00  0.00    +0.277 C 
ENDBRANCH  11  28
TORSDOF 4
