REMARK  Name = ZINC39631281
REMARK  12 active torsions:
REMARK  status: ('A' for Active; 'I' for Inactive)
REMARK    1  A    between atoms: C_1  and  C_2
REMARK    2  A    between atoms: C_2  and  C_4
REMARK    3  A    between atoms: C_2  and  N_11
REMARK    4  A    between atoms: C_4  and  C_5
REMARK    5  A    between atoms: C_5  and  C_6
REMARK    6  A    between atoms: C_6  and  C_7
REMARK    7  A    between atoms: C_7  and  C_8
REMARK    8  A    between atoms: C_7  and  C_9
REMARK    9  A    between atoms: C_7  and  O_10
REMARK   10  A    between atoms: C_12  and  C_14
REMARK   11  A    between atoms: C_25  and  C_27
REMARK   12  A    between atoms: C_30  and  C_33
REMARK                            x       y       z     vdW  Elec       q    Type
REMARK                         _______ _______ _______ _____ _____    ______ ____
ROOT
ATOM      1  C   UNL     1       0.373  -1.529   3.258  0.00  0.00    +0.100 C 
ATOM      2  C   UNL     1       1.079  -2.903   3.230  0.00  0.00    +0.121 C 
ATOM      3  N   UNL     1       0.901  -3.442   4.599  0.00  0.00    -0.296 N 
ATOM      4  C   UNL     1      -0.480  -3.055   4.972  0.00  0.00    +0.115 C 
ATOM      5  C   UNL     1      -0.650  -1.633   4.401  0.00  0.00    -0.004 C 
ATOM      6  C   UNL     1      -2.066  -1.446   3.863  0.00  0.00    -0.010 C 
ATOM      7  C   UNL     1      -3.060  -1.496   5.026  0.00  0.00    -0.082 C 
ATOM      8  N   UNL     1      -2.739  -0.438   5.992  0.00  0.00    +0.379 N 
ATOM      9  C   UNL     1      -1.413  -0.677   6.574  0.00  0.00    -0.082 C 
ATOM     10  C   UNL     1      -0.349  -0.593   5.476  0.00  0.00    -0.010 C 
ATOM     11  C   UNL     1       1.794  -4.129   5.338  0.00  0.00    +0.247 C 
ATOM     12  O   UNL     1       2.932  -4.275   4.936  0.00  0.00    -0.270 OA
ATOM     13  H   UNL     1      -2.743   0.456   5.524  0.00  0.00    -0.086 HD
ATOM     14  H   UNL     1      -3.431  -0.433   6.726  0.00  0.00    -0.086 HD
ENDROOT
BRANCH  11  15
ATOM     15  C   UNL     1       1.390  -4.706   6.638  0.00  0.00    +0.037 A 
ATOM     16  C   UNL     1       0.043  -4.946   6.910  0.00  0.00    +0.013 A 
ATOM     17  C   UNL     1      -0.328  -5.485   8.125  0.00  0.00    +0.013 A 
ATOM     18  C   UNL     1       0.634  -5.786   9.073  0.00  0.00    +0.055 A 
ATOM     19  C   UNL     1       1.971  -5.550   8.811  0.00  0.00    +0.013 A 
ATOM     20  C   UNL     1       2.356  -5.018   7.597  0.00  0.00    +0.013 A 
BRANCH  18  21
ATOM     21  C   UNL     1       0.222  -6.374  10.399  0.00  0.00    +0.417 C 
ATOM     22  F   UNL     1       0.209  -7.770  10.306  0.00  0.00    -0.166 F 
ATOM     23  F   UNL     1       1.131  -5.980  11.386  0.00  0.00    -0.166 F 
ATOM     24  F   UNL     1      -1.058  -5.917  10.734  0.00  0.00    -0.166 F 
ENDBRANCH  18  21
ENDBRANCH  11  15
BRANCH   1  26
ATOM     25  N   UNL     1      -0.501  -0.009   1.513  0.00  0.00    -0.312 N 
ATOM     26  C   UNL     1      -0.328  -1.272   1.948  0.00  0.00    +0.218 C 
ATOM     27  O   UNL     1      -0.736  -2.203   1.287  0.00  0.00    -0.275 OA
ATOM     28  H   UNL     1      -0.175   0.736   2.042  0.00  0.00    +0.149 HD
BRANCH  25  30
ATOM     29  C   UNL     1      -2.695   0.267   0.468  0.00  0.00    +0.028 C 
ATOM     30  C   UNL     1      -1.183   0.240   0.240  0.00  0.00    +0.070 C 
BRANCH  30  31
ATOM     31  C   UNL     1      -0.728   1.586  -0.327  0.00  0.00    +0.022 C 
BRANCH  31  32
ATOM     32  C   UNL     1       0.761   1.518  -0.672  0.00  0.00    +0.005 C 
BRANCH  32  33
ATOM     33  C   UNL     1       1.216   2.865  -1.239  0.00  0.00    +0.034 C 
BRANCH  33  34
ATOM     34  C   UNL     1       2.705   2.796  -1.583  0.00  0.00    +0.061 C 
ATOM     35  C   UNL     1       3.188   4.177  -2.033  0.00  0.00    +0.041 C 
ATOM     36  C   UNL     1       3.494   2.356  -0.349  0.00  0.00    +0.041 C 
BRANCH  34  37
ATOM     37  O   UNL     1       2.907   1.854  -2.639  0.00  0.00    -0.389 OA
ATOM     38  H   UNL     1       2.435   2.070  -3.454  0.00  0.00    +0.210 HD
ENDBRANCH  34  37
ENDBRANCH  33  34
ENDBRANCH  32  33
ENDBRANCH  31  32
ENDBRANCH  30  31
ENDBRANCH  25  30
ENDBRANCH   1  26
TORSDOF 9
