REMARK  Name = ZINC66952729
REMARK  8 active torsions:
REMARK  status: ('A' for Active; 'I' for Inactive)
REMARK    1  A    between atoms: C_1  and  C_2
REMARK    2  A    between atoms: C_2  and  C_3
REMARK    3  A    between atoms: C_2  and  N_4
REMARK    4  A    between atoms: C_7  and  C_10
REMARK    5  A    between atoms: C_10  and  N_11
REMARK    6  A    between atoms: C_17  and  N_20
REMARK    7  A    between atoms: C_21  and  C_23
REMARK    8  A    between atoms: C_23  and  C_24
REMARK                            x       y       z     vdW  Elec       q    Type
REMARK                         _______ _______ _______ _____ _____    ______ ____
ROOT
ATOM      1  N   UNL     1       3.830  -4.628   4.393  0.00  0.00    -0.299 N 
ATOM      2  C   UNL     1       2.700  -4.348   5.072  0.00  0.00    +0.302 C 
ATOM      3  O   UNL     1       1.850  -3.637   4.570  0.00  0.00    -0.253 OA
ATOM      4  N   UNL     1       2.510  -4.856   6.305  0.00  0.00    -0.286 N 
ATOM      5  C   UNL     1       1.237  -4.656   7.010  0.00  0.00    +0.111 C 
ATOM      6  C   UNL     1       0.697  -6.021   7.449  0.00  0.00    +0.041 C 
ATOM      7  C   UNL     1       1.763  -6.747   8.271  0.00  0.00    +0.076 C 
ATOM      8  C   UNL     1       3.008  -6.974   7.410  0.00  0.00    +0.041 C 
ATOM      9  C   UNL     1       3.572  -5.625   6.969  0.00  0.00    +0.111 C 
ATOM     10  H   UNL     1       4.539  -5.134   4.820  0.00  0.00    +0.150 HD
ENDROOT
BRANCH   7  11
ATOM     11  N   UNL     1       1.238  -8.039   8.720  0.00  0.00    -0.312 N 
ATOM     12  C   UNL     1       1.741  -8.623   9.826  0.00  0.00    +0.214 C 
ATOM     13  O   UNL     1       2.627  -8.079  10.450  0.00  0.00    -0.276 OA
ATOM     14  H   UNL     1       0.529  -8.474   8.222  0.00  0.00    +0.149 HD
BRANCH  12  15
ATOM     15  C   UNL     1       1.200  -9.952  10.288  0.00  0.00    +0.099 C 
BRANCH  15  16
ATOM     16  C   UNL     1       1.937 -10.389  11.556  0.00  0.00    -0.002 C 
ATOM     17  C   UNL     1       3.410 -10.643  11.228  0.00  0.00    +0.004 C 
ATOM     18  C   UNL     1       4.146 -11.081  12.495  0.00  0.00    +0.000 C 
ATOM     19  C   UNL     1       3.515 -12.366  13.034  0.00  0.00    +0.000 C 
ATOM     20  C   UNL     1       2.042 -12.112  13.362  0.00  0.00    +0.000 C 
ATOM     21  C   UNL     1       1.306 -11.675  12.094  0.00  0.00    +0.004 C 
ENDBRANCH  15  16
ENDBRANCH  12  15
ENDBRANCH   7  11
BRANCH   1  22
ATOM     22  C   UNL     1       3.988  -4.169   3.011  0.00  0.00    +0.107 C 
BRANCH  22  26
ATOM     23  N   UNL     1       5.692  -5.282   0.167  0.00  0.00    +0.381 N 
ATOM     24  C   UNL     1       6.182  -6.378   1.041  0.00  0.00    -0.078 C 
ATOM     25  C   UNL     1       5.401  -6.157   2.360  0.00  0.00    -0.015 C 
ATOM     26  C   UNL     1       5.350  -4.616   2.477  0.00  0.00    -0.012 C 
ATOM     27  C   UNL     1       5.561  -4.097   1.043  0.00  0.00    -0.074 C 
ATOM     28  H   UNL     1       4.795  -5.523  -0.227  0.00  0.00    -0.081 HD
BRANCH  23  30
ATOM     29  C   UNL     1       6.783  -6.250  -1.799  0.00  0.00    -0.014 C 
ATOM     30  C   UNL     1       6.661  -5.015  -0.904  0.00  0.00    -0.075 C 
ATOM     31  C   UNL     1       6.184  -3.825  -1.739  0.00  0.00    -0.014 C 
ENDBRANCH  23  30
ENDBRANCH  22  26
ENDBRANCH   1  22
TORSDOF 6
