REMARK  Name = ZINC20911014
REMARK  12 active torsions:
REMARK  status: ('A' for Active; 'I' for Inactive)
REMARK    1  A    between atoms: C_1  and  C_2
REMARK    2  A    between atoms: C_2  and  C_3
REMARK    3  A    between atoms: C_2  and  N_4
REMARK    4  A    between atoms: C_6  and  C_9
REMARK    5  A    between atoms: N_10  and  N_11
REMARK    6  A    between atoms: C_14  and  S_17
REMARK    7  A    between atoms: S_17  and  C_18
REMARK    8  A    between atoms: C_18  and  C_19
REMARK    9  A    between atoms: C_19  and  C_20
REMARK   10  A    between atoms: N_22  and  C_23
REMARK   11  A    between atoms: C_23  and  C_24
REMARK   12  A    between atoms: C_23  and  C_30
REMARK                            x       y       z     vdW  Elec       q    Type
REMARK                         _______ _______ _______ _____ _____    ______ ____
ROOT
ATOM      1  S   UNL     1       2.641  -3.133  -0.040  0.00  0.00    -0.084 S 
ENDROOT
BRANCH   1   5
ATOM      2  N   UNL     1       2.777  -8.339  -0.068  0.00  0.00    -0.205 N 
ATOM      3  C   UNL     1       2.285  -7.042  -0.057  0.00  0.00    +0.232 A 
ATOM      4  N   UNL     1       3.034  -5.898  -0.059  0.00  0.00    -0.186 NA
ATOM      5  C   UNL     1       2.179  -4.833  -0.045  0.00  0.00    +0.210 A 
ATOM      6  N   UNL     1       0.952  -5.299  -0.030  0.00  0.00    -0.144 NA
ATOM      7  N   UNL     1       1.020  -6.698  -0.042  0.00  0.00    -0.245 N 
ATOM      8  H   UNL     1       3.863  -8.515  -0.080  0.00  0.00    +0.177 HD
ATOM      9  H   UNL     1       0.239  -7.473  -0.042  0.00  0.00    +0.192 HD
BRANCH   2  11
ATOM     10  C   UNL     1       2.352 -10.638  -0.075  0.00  0.00    +0.141 C 
ATOM     11  N   UNL     1       1.891  -9.424  -0.065  0.00  0.00    -0.187 NA
BRANCH  10  14
ATOM     12  N   UNL     1       0.615 -13.826  -0.073  0.00  0.00    -0.268 N 
ATOM     13  C   UNL     1       1.761 -13.116  -0.082  0.00  0.00    +0.118 A 
ATOM     14  C   UNL     1       1.418 -11.781  -0.072  0.00  0.00    +0.032 A 
ATOM     15  C   UNL     1       0.009 -11.711  -0.051  0.00  0.00    +0.143 A 
ATOM     16  N   UNL     1      -0.459 -12.930  -0.058  0.00  0.00    -0.179 NA
BRANCH  12  18
ATOM     17  C   UNL     1       0.588 -15.799  -1.519  0.00  0.00    +0.032 C 
ATOM     18  C   UNL     1       0.513 -15.288  -0.079  0.00  0.00    +0.101 C 
ATOM     19  C   UNL     1       1.664 -15.883   0.734  0.00  0.00    +0.032 C 
ENDBRANCH  12  18
ENDBRANCH  10  14
ENDBRANCH   2  11
ENDBRANCH   1   5
BRANCH   1  20
ATOM     20  C   UNL     1       1.058  -2.248  -0.020  0.00  0.00    +0.086 C 
BRANCH  20  21
ATOM     21  C   UNL     1       1.317  -0.740  -0.015  0.00  0.00    +0.107 C 
BRANCH  21  22
ATOM     22  C   UNL     1       0.002  -0.004   0.002  0.00  0.00    +0.215 C 
ATOM     23  O   UNL     1      -1.040  -0.625   0.009  0.00  0.00    -0.276 OA
ATOM     24  N   UNL     1      -0.016   1.344   0.009  0.00  0.00    -0.304 N 
ATOM     25  H   UNL     1       0.929   1.907   0.008  0.00  0.00    +0.150 HD
BRANCH  24  26
ATOM     26  C   UNL     1      -1.295   2.059   0.019  0.00  0.00    +0.134 C 
BRANCH  26  27
ATOM     27  C   UNL     1      -1.787   2.188   1.438  0.00  0.00    -0.023 A 
ATOM     28  C   UNL     1      -0.894   2.464   2.457  0.00  0.00    +0.006 A 
ATOM     29  C   UNL     1      -1.346   2.587   3.757  0.00  0.00    +0.000 A 
ATOM     30  C   UNL     1      -2.690   2.425   4.040  0.00  0.00    +0.000 A 
ATOM     31  C   UNL     1      -3.582   2.144   3.022  0.00  0.00    +0.000 A 
ATOM     32  C   UNL     1      -3.130   2.026   1.721  0.00  0.00    +0.006 A 
ENDBRANCH  26  27
BRANCH  26  33
ATOM     33  C   UNL     1      -1.107   3.431  -0.575  0.00  0.00    -0.023 A 
ATOM     34  C   UNL     1       0.027   4.163  -0.279  0.00  0.00    +0.006 A 
ATOM     35  C   UNL     1       0.201   5.420  -0.827  0.00  0.00    +0.000 A 
ATOM     36  C   UNL     1      -0.764   5.949  -1.664  0.00  0.00    +0.000 A 
ATOM     37  C   UNL     1      -1.901   5.219  -1.955  0.00  0.00    +0.000 A 
ATOM     38  C   UNL     1      -2.073   3.960  -1.411  0.00  0.00    +0.006 A 
ENDBRANCH  26  33
ENDBRANCH  24  26
ENDBRANCH  21  22
ENDBRANCH  20  21
ENDBRANCH   1  20
TORSDOF 10
