REMARK  Name = ZINC09442736
REMARK  12 active torsions:
REMARK  status: ('A' for Active; 'I' for Inactive)
REMARK    1  A    between atoms: C_1  and  C_2
REMARK    2  A    between atoms: C_2  and  C_3
REMARK    3  A    between atoms: C_2  and  C_4
REMARK    4  A    between atoms: C_8  and  C_31
REMARK    5  A    between atoms: C_9  and  N_10
REMARK    6  A    between atoms: C_11  and  C_13
REMARK    7  A    between atoms: C_13  and  N_14
REMARK    8  A    between atoms: C_17  and  C_21
REMARK    9  A    between atoms: C_17  and  C_22
REMARK   10  A    between atoms: C_25  and  N_28
REMARK   11  A    between atoms: C_31  and  C_32
REMARK   12  A    between atoms: C_31  and  C_33
REMARK                            x       y       z     vdW  Elec       q    Type
REMARK                         _______ _______ _______ _____ _____    ______ ____
ROOT
ATOM      1  N   UNL     1       2.765  -1.605   1.000  0.00  0.00    -0.215 N 
ATOM      2  C   UNL     1       2.046  -2.258   1.935  0.00  0.00    +0.251 C 
ATOM      3  O   UNL     1       2.086  -3.441   2.195  0.00  0.00    -0.272 OA
ATOM      4  C   UNL     1       1.178  -1.204   2.594  0.00  0.00    +0.135 C 
ATOM      5  N   UNL     1       1.543   0.036   1.888  0.00  0.00    -0.281 N 
ATOM      6  C   UNL     1       2.475  -0.299   0.977  0.00  0.00    +0.310 C 
ATOM      7  O   UNL     1       2.995   0.495   0.219  0.00  0.00    -0.252 OA
ATOM      8  C   UNL     1       1.506  -1.091   4.084  0.00  0.00    +0.047 C 
ATOM      9  H   UNL     1       1.181   0.922   2.048  0.00  0.00    +0.152 HD
ENDROOT
BRANCH   4  10
ATOM     10  C   UNL     1      -0.282  -1.518   2.393  0.00  0.00    -0.015 A 
ATOM     11  C   UNL     1      -0.696  -2.832   2.269  0.00  0.00    +0.008 A 
ATOM     12  C   UNL     1      -2.036  -3.120   2.089  0.00  0.00    +0.033 A 
ATOM     13  C   UNL     1      -2.961  -2.095   2.023  0.00  0.00    +0.126 A 
ATOM     14  C   UNL     1      -2.547  -0.782   2.142  0.00  0.00    +0.033 A 
ATOM     15  C   UNL     1      -1.207  -0.493   2.327  0.00  0.00    +0.008 A 
BRANCH  13  16
ATOM     16  N   UNL     1      -4.395  -2.404   1.825  0.00  0.00    +0.056 N 
ATOM     17  O   UNL     1      -5.210  -1.501   1.767  0.00  0.00    -0.126 OA
ATOM     18  O   UNL     1      -4.760  -3.561   1.720  0.00  0.00    -0.126 OA
ENDBRANCH  13  16
ENDBRANCH   4  10
BRANCH   1  19
ATOM     19  C   UNL     1       3.743  -2.247   0.118  0.00  0.00    +0.214 C 
BRANCH  19  21
ATOM     20  N   UNL     1       3.763  -3.332  -2.105  0.00  0.00    -0.284 N 
ATOM     21  C   UNL     1       3.056  -2.709  -1.141  0.00  0.00    +0.235 C 
ATOM     22  O   UNL     1       1.866  -2.522  -1.287  0.00  0.00    -0.274 OA
ATOM     23  H   UNL     1       4.726  -3.415  -2.023  0.00  0.00    +0.155 HD
BRANCH  20  29
ATOM     24  C   UNL     1       2.415  -3.017  -4.084  0.00  0.00    -0.023 A 
ATOM     25  C   UNL     1       1.774  -3.540  -5.191  0.00  0.00    +0.006 A 
ATOM     26  C   UNL     1       1.813  -4.900  -5.436  0.00  0.00    +0.001 A 
ATOM     27  C   UNL     1       2.497  -5.741  -4.577  0.00  0.00    +0.006 A 
ATOM     28  C   UNL     1       3.145  -5.224  -3.472  0.00  0.00    -0.023 A 
ATOM     29  C   UNL     1       3.108  -3.859  -3.223  0.00  0.00    +0.040 A 
BRANCH  24  31
ATOM     30  C   UNL     1       3.546  -0.852  -4.511  0.00  0.00    +0.012 C 
ATOM     31  C   UNL     1       2.368  -1.535  -3.815  0.00  0.00    +0.015 C 
ATOM     32  C   UNL     1       1.055  -0.961  -4.352  0.00  0.00    +0.012 C 
ENDBRANCH  24  31
BRANCH  28  33
ATOM     33  C   UNL     1       3.890  -6.142  -2.537  0.00  0.00    +0.015 C 
ATOM     34  C   UNL     1       2.920  -7.169  -1.950  0.00  0.00    +0.012 C 
ATOM     35  C   UNL     1       4.996  -6.866  -3.307  0.00  0.00    +0.012 C 
ENDBRANCH  28  33
ENDBRANCH  20  29
ENDBRANCH  19  21
ENDBRANCH   1  19
TORSDOF 7
