REMARK  Name = ZINC62053337
REMARK  6 active torsions:
REMARK  status: ('A' for Active; 'I' for Inactive)
REMARK    1  A    between atoms: C_1  and  C_2
REMARK    2  A    between atoms: C_2  and  C_4
REMARK    3  A    between atoms: C_2  and  C_8
REMARK    4  A    between atoms: N_5  and  O_6
REMARK    5  A    between atoms: C_13  and  C_16
REMARK    6  A    between atoms: C_16  and  N_17
REMARK                            x       y       z     vdW  Elec       q    Type
REMARK                         _______ _______ _______ _____ _____    ______ ____
ROOT
ATOM      1  C   UNL     1       0.831  -0.443   1.181  0.00  0.00    +0.226 C 
ATOM      2  O   UNL     1       0.362  -1.200   2.004  0.00  0.00    -0.275 OA
ATOM      3  N   UNL     1       2.092   0.010   1.324  0.00  0.00    -0.301 N 
ATOM      4  C   UNL     1       2.634   1.019   0.405  0.00  0.00    +0.108 C 
ATOM      5  C   UNL     1       3.180   2.192   1.226  0.00  0.00    +0.021 C 
ATOM      6  C   UNL     1       4.190   1.667   2.248  0.00  0.00    -0.025 C 
ATOM      7  C   UNL     1       3.494   0.693   3.201  0.00  0.00    +0.021 C 
ATOM      8  C   UNL     1       2.950  -0.493   2.407  0.00  0.00    +0.108 C 
ENDROOT
BRANCH   1  10
ATOM      9  C   UNL     1      -0.675   1.326   0.315  0.00  0.00    +0.025 C 
ATOM     10  C   UNL     1       0.004  -0.008  -0.001  0.00  0.00    +0.138 C 
BRANCH  10  11
ATOM     11  C   UNL     1      -1.046  -1.050  -0.290  0.00  0.00    +0.143 C 
ATOM     12  N   UNL     1      -2.235  -0.921   0.198  0.00  0.00    -0.076 NA
ATOM     13  N   UNL     1      -0.737  -2.140  -1.074  0.00  0.00    -0.343 N 
ATOM     14  H   UNL     1       0.156  -2.236  -1.440  0.00  0.00    +0.144 HD
ATOM     15  H   UNL     1      -1.413  -2.810  -1.260  0.00  0.00    +0.144 HD
BRANCH  12  16
ATOM     16  O   UNL     1      -3.221  -1.901  -0.074  0.00  0.00    -0.408 OA
ATOM     17  H   UNL     1      -4.079  -1.718   0.334  0.00  0.00    +0.328 HD
ENDBRANCH  12  16
ENDBRANCH  10  11
ENDBRANCH   1  10
BRANCH   6  18
ATOM     18  C   UNL     1       4.763   2.839   3.047  0.00  0.00    -0.075 C 
BRANCH  18  19
ATOM     19  N   UNL     1       5.818   2.351   3.945  0.00  0.00    +0.380 N 
ATOM     20  C   UNL     1       6.997   1.909   3.157  0.00  0.00    -0.079 C 
ATOM     21  C   UNL     1       8.155   1.976   4.184  0.00  0.00    -0.020 C 
ATOM     22  C   UNL     1       7.812   3.236   5.011  0.00  0.00    -0.020 C 
ATOM     23  C   UNL     1       6.300   3.450   4.810  0.00  0.00    -0.079 C 
ATOM     24  H   UNL     1       5.471   1.591   4.510  0.00  0.00    -0.082 HD
ENDBRANCH  18  19
ENDBRANCH   6  18
TORSDOF 5
