REMARK  Name = ZINC63140228
REMARK  12 active torsions:
REMARK  status: ('A' for Active; 'I' for Inactive)
REMARK    1  A    between atoms: C_1  and  C_2
REMARK    2  A    between atoms: C_2  and  C_3
REMARK    3  A    between atoms: C_2  and  C_4
REMARK    4  A    between atoms: C_4  and  C_5
REMARK    5  A    between atoms: C_5  and  N_6
REMARK    6  A    between atoms: C_26  and  C_28
REMARK    7  A    between atoms: C_30  and  O_38
REMARK    8  A    between atoms: C_31  and  O_36
REMARK    9  A    between atoms: C_32  and  O_34
REMARK   10  A    between atoms: O_34  and  C_35
REMARK   11  A    between atoms: O_36  and  C_37
REMARK   12  A    between atoms: O_38  and  C_39
REMARK                            x       y       z     vdW  Elec       q    Type
REMARK                         _______ _______ _______ _____ _____    ______ ____
ROOT
ATOM      1  N   UNL     1      -2.790  -2.565  -0.111  0.00  0.00    -0.291 N 
ATOM      2  C   UNL     1      -3.468  -2.936   1.145  0.00  0.00    +0.203 C 
ATOM      3  C   UNL     1      -4.863  -2.346   1.130  0.00  0.00    +0.234 C 
ATOM      4  O   UNL     1      -5.330  -1.798   2.106  0.00  0.00    -0.274 OA
ATOM      5  N   UNL     1      -5.574  -2.461  -0.040  0.00  0.00    -0.279 N 
ATOM      6  C   UNL     1      -4.921  -3.210  -1.093  0.00  0.00    +0.167 C 
ATOM      7  C   UNL     1      -3.509  -2.712  -1.263  0.00  0.00    +0.237 C 
ATOM      8  O   UNL     1      -3.040  -2.461  -2.353  0.00  0.00    -0.274 OA
ATOM      9  C   UNL     1      -5.637  -3.364  -2.410  0.00  0.00    +0.065 C 
ATOM     10  C   UNL     1      -6.853  -2.479  -2.438  0.00  0.00    -0.034 C 
ATOM     11  C   UNL     1      -7.377  -1.717  -3.388  0.00  0.00    -0.001 A 
ATOM     12  C   UNL     1      -6.986  -1.489  -4.789  0.00  0.00    +0.010 A 
ATOM     13  C   UNL     1      -7.757  -0.618  -5.493  0.00  0.00    +0.001 A 
ATOM     14  C   UNL     1      -8.864   0.041  -4.950  0.00  0.00    +0.002 A 
ATOM     15  C   UNL     1      -9.298  -0.112  -3.674  0.00  0.00    +0.026 A 
ATOM     16  C   UNL     1      -8.570  -1.006  -2.836  0.00  0.00    +0.043 A 
ATOM     17  N   UNL     1      -8.767  -1.344  -1.597  0.00  0.00    -0.375 N 
ATOM     18  C   UNL     1      -7.748  -2.328  -1.209  0.00  0.00    +0.131 C 
ATOM     19  C   UNL     1      -6.861  -1.784  -0.099  0.00  0.00    +0.134 C 
ATOM     20  H   UNL     1      -9.470  -1.002  -1.023  0.00  0.00    +0.160 HD
ENDROOT
BRANCH  19  21
ATOM     21  C   UNL     1      -7.553  -1.926   1.232  0.00  0.00    -0.018 A 
ATOM     22  C   UNL     1      -7.482  -3.122   1.922  0.00  0.00    +0.055 A 
ATOM     23  C   UNL     1      -8.117  -3.256   3.147  0.00  0.00    +0.165 A 
ATOM     24  C   UNL     1      -8.825  -2.187   3.682  0.00  0.00    +0.204 A 
ATOM     25  C   UNL     1      -8.893  -0.986   2.986  0.00  0.00    +0.165 A 
ATOM     26  C   UNL     1      -8.251  -0.858   1.764  0.00  0.00    +0.055 A 
BRANCH  25  27
ATOM     27  O   UNL     1      -9.584   0.064   3.506  0.00  0.00    -0.491 OA
ATOM     28  C   UNL     1      -9.611   1.268   2.735  0.00  0.00    +0.277 C 
ENDBRANCH  25  27
BRANCH  24  29
ATOM     29  O   UNL     1      -9.449  -2.315   4.884  0.00  0.00    -0.488 OA
ATOM     30  C   UNL     1      -8.693  -1.974   6.048  0.00  0.00    +0.277 C 
ENDBRANCH  24  29
BRANCH  23  31
ATOM     31  O   UNL     1      -8.048  -4.434   3.824  0.00  0.00    -0.491 OA
ATOM     32  C   UNL     1      -7.304  -5.490   3.214  0.00  0.00    +0.277 C 
ENDBRANCH  23  31
ENDBRANCH  19  21
BRANCH   1  33
ATOM     33  C   UNL     1      -1.416  -2.058  -0.121  0.00  0.00    +0.108 C 
BRANCH  33  34
ATOM     34  C   UNL     1      -1.433  -0.534   0.013  0.00  0.00    +0.022 C 
BRANCH  34  36
ATOM     35  C   UNL     1      -0.019   1.526   0.010  0.00  0.00    +0.007 C 
ATOM     36  C   UNL     1       0.002  -0.004   0.002  0.00  0.00    -0.016 C 
ATOM     37  C   UNL     1       0.742  -0.511   1.242  0.00  0.00    +0.007 C 
ENDBRANCH  34  36
ENDBRANCH  33  34
ENDBRANCH   1  33
TORSDOF 7
