REMARK  Name = ZINC08918354
REMARK  13 active torsions:
REMARK  status: ('A' for Active; 'I' for Inactive)
REMARK    1  A    between atoms: C_1  and  C_2
REMARK    2  A    between atoms: C_16  and  O_25
REMARK    3  A    between atoms: C_18  and  O_23
REMARK    4  A    between atoms: O_23  and  C_24
REMARK    5  A    between atoms: O_25  and  C_26
REMARK    6  A    between atoms: C_26  and  C_27
REMARK    7  A    between atoms: C_27  and  C_29
REMARK    8  A    between atoms: C_27  and  O_34
REMARK    9  A    between atoms: C_29  and  N_71
REMARK   10  A    between atoms: C_30  and  C_31
REMARK   11  A    between atoms: C_30  and  C_32
REMARK   12  A    between atoms: C_30  and  C_33
REMARK   13  A    between atoms: C_30  and  N_71
REMARK                            x       y       z     vdW  Elec       q    Type
REMARK                         _______ _______ _______ _____ _____    ______ ____
ROOT
ATOM      1  C   UNL     1      -2.228   7.184   0.445  0.00  0.00    +0.052 C 
ATOM      2  C   UNL     1      -1.975   5.737   0.878  0.00  0.00    +0.174 C 
ATOM      3  C   UNL     1      -3.041   4.830   0.253  0.00  0.00    +0.045 C 
ATOM      4  C   UNL     1      -3.793   4.085   1.358  0.00  0.00    +0.011 C 
ATOM      5  C   UNL     1      -4.558   2.890   0.784  0.00  0.00    +0.074 C 
ATOM      6  C   UNL     1      -3.945   1.606   1.281  0.00  0.00    +0.133 C 
ATOM      7  O   UNL     1      -3.977   1.329   2.456  0.00  0.00    -0.297 OA
ATOM      8  C   UNL     1      -3.296   0.668   0.291  0.00  0.00    +0.074 C 
ATOM      9  C   UNL     1      -2.252  -0.183   1.017  0.00  0.00    +0.012 C 
ATOM     10  C   UNL     1      -1.295  -0.776  -0.012  0.00  0.00    +0.027 C 
ATOM     11  C   UNL     1       0.002  -0.004   0.002  0.00  0.00    -0.026 C 
ATOM     12  C   UNL     1      -0.016   1.312   0.009  0.00  0.00    +0.005 C 
ATOM     13  C   UNL     1       1.180   2.164   0.002  0.00  0.00    -0.004 A 
ATOM     14  C   UNL     1       2.438   1.639  -0.260  0.00  0.00    +0.054 A 
ATOM     15  C   UNL     1       3.537   2.480  -0.362  0.00  0.00    +0.125 A 
ATOM     16  C   UNL     1       3.391   3.850  -0.185  0.00  0.00    +0.092 A 
ATOM     17  C   UNL     1       2.151   4.388   0.129  0.00  0.00    +0.138 A 
ATOM     18  C   UNL     1       1.038   3.547   0.258  0.00  0.00    +0.108 A 
ATOM     19  C   UNL     1      -0.272   4.068   0.662  0.00  0.00    +0.344 C 
ATOM     20  O   UNL     1      -1.036   3.332   1.262  0.00  0.00    -0.245 OA
ATOM     21  O   UNL     1      -0.649   5.334   0.448  0.00  0.00    -0.458 OA
ENDROOT
BRANCH  17  22
ATOM     22  O   UNL     1       2.021   5.726   0.315  0.00  0.00    -0.494 OA
ATOM     23  C   UNL     1       3.201   6.519   0.167  0.00  0.00    +0.277 C 
ENDBRANCH  17  22
BRANCH  15  24
ATOM     24  O   UNL     1       4.761   1.962  -0.634  0.00  0.00    -0.489 OA
BRANCH  24  25
ATOM     25  C   UNL     1       5.850   2.883  -0.725  0.00  0.00    +0.258 C 
BRANCH  25  26
ATOM     26  C   UNL     1       7.139   2.119  -1.036  0.00  0.00    +0.135 C 
BRANCH  26  27
ATOM     27  O   UNL     1       7.461   1.261   0.060  0.00  0.00    -0.390 OA
ATOM     28  H   UNL     1       7.599   1.726   0.896  0.00  0.00    +0.210 HD
ENDBRANCH  26  27
BRANCH  26  29
ATOM     29  C   UNL     1       8.280   3.114  -1.257  0.00  0.00    -0.047 C 
BRANCH  29  30
ATOM     30  N   UNL     1       9.489   2.379  -1.673  0.00  0.00    +0.384 N 
ATOM     31  H   UNL     1       9.294   1.873  -2.546  0.00  0.00    -0.085 HD
ATOM     32  H   UNL     1       9.748   1.709  -0.940  0.00  0.00    -0.085 HD
BRANCH  30  33
ATOM     33  C   UNL     1      10.608   3.315  -1.894  0.00  0.00    -0.077 C 
ATOM     34  C   UNL     1      10.910   4.069  -0.598  0.00  0.00    -0.011 C 
ATOM     35  C   UNL     1      11.845   2.525  -2.324  0.00  0.00    -0.011 C 
ATOM     36  C   UNL     1      10.234   4.314  -2.990  0.00  0.00    -0.011 C 
ENDBRANCH  30  33
ENDBRANCH  29  30
ENDBRANCH  26  29
ENDBRANCH  25  26
ENDBRANCH  24  25
ENDBRANCH  15  24
TORSDOF 8
