REMARK  Name = ZINC37929246
REMARK  3 active torsions:
REMARK  status: ('A' for Active; 'I' for Inactive)
REMARK    1  A    between atoms: C_3  and  N_19
REMARK    2  A    between atoms: C_4  and  S_8
REMARK    3  A    between atoms: S_8  and  N_11
REMARK                            x       y       z     vdW  Elec       q    Type
REMARK                         _______ _______ _______ _____ _____    ______ ____
ROOT
ATOM      1  S   UNL     1       4.299  -0.723  -0.331  0.00  0.00    +0.063 S 
ATOM      2  O   UNL     1       3.056  -1.334  -0.646  0.00  0.00    -0.153 OA
ATOM      3  O   UNL     1       4.388   0.587   0.214  0.00  0.00    -0.153 OA
ENDROOT
BRANCH   1   4
ATOM      4  N   UNL     1       5.191  -0.717  -1.726  0.00  0.00    -0.177 NA
ATOM      5  C   UNL     1       4.806  -1.573  -2.857  0.00  0.00    +0.109 C 
ATOM      6  C   UNL     1       3.498  -1.060  -3.446  0.00  0.00    +0.017 C 
ATOM      7  C   UNL     1       3.767   0.247  -4.210  0.00  0.00    +0.001 C 
ATOM      8  C   UNL     1       3.908   1.396  -3.217  0.00  0.00    +0.000 C 
ATOM      9  C   UNL     1       5.344   1.951  -3.226  0.00  0.00    +0.001 C 
ATOM     10  C   UNL     1       6.344   0.795  -3.229  0.00  0.00    +0.017 C 
ATOM     11  C   UNL     1       6.360   0.139  -1.847  0.00  0.00    +0.109 C 
ENDBRANCH   1   4
BRANCH   1  15
ATOM     12  C   UNL     1       6.396  -3.483   2.589  0.00  0.00    +0.017 A 
ATOM     13  C   UNL     1       5.809  -4.005   1.452  0.00  0.00    +0.026 A 
ATOM     14  C   UNL     1       5.165  -3.162   0.556  0.00  0.00    +0.051 A 
ATOM     15  C   UNL     1       5.114  -1.796   0.804  0.00  0.00    +0.127 A 
ATOM     16  C   UNL     1       5.703  -1.280   1.942  0.00  0.00    +0.045 A 
ATOM     17  C   UNL     1       6.343  -2.123   2.834  0.00  0.00    +0.020 A 
ATOM     18 BR   UNL     1       7.149  -1.413   4.390  0.00  0.00    -0.050 Br
BRANCH  14  19
ATOM     19  N   UNL     1       4.570  -3.687  -0.595  0.00  0.00    -0.356 N 
ATOM     20  H   UNL     1       4.785  -4.587  -0.884  0.00  0.00    +0.142 HD
ATOM     21  H   UNL     1       3.943  -3.150  -1.104  0.00  0.00    +0.142 HD
ENDBRANCH  14  19
ENDBRANCH   1  15
TORSDOF 3
