REMARK  Name = ZINC13123365
REMARK  3 active torsions:
REMARK  status: ('A' for Active; 'I' for Inactive)
REMARK    1  A    between atoms: N_9  and  N_10
REMARK    2  A    between atoms: C_14  and  C_17
REMARK    3  A    between atoms: C_21  and  O_23
REMARK                            x       y       z     vdW  Elec       q    Type
REMARK                         _______ _______ _______ _____ _____    ______ ____
ROOT
ATOM      1  C   UNL     1       0.048   1.399   0.635  0.00  0.00    +0.017 A 
ATOM      2  C   UNL     1       1.194   2.114   0.359  0.00  0.00    +0.029 A 
ATOM      3  C   UNL     1       2.405   1.443   0.156  0.00  0.00    +0.077 A 
ATOM      4  C   UNL     1       2.424   0.035   0.239  0.00  0.00    +0.034 A 
ATOM      5  C   UNL     1       1.261  -0.669   0.517  0.00  0.00    +0.027 A 
ATOM      6  C   UNL     1       0.076   0.015   0.715  0.00  0.00    +0.019 A 
ATOM      7 BR   UNL     1      -1.511  -0.940   1.094  0.00  0.00    -0.050 Br
ATOM      8  C   UNL     1       3.827  -0.358  -0.020  0.00  0.00    +0.152 C 
ATOM      9  N   UNL     1       4.334  -1.571  -0.048  0.00  0.00    -0.175 NA
ATOM     10  C   UNL     1       4.526   0.920  -0.240  0.00  0.00    +0.241 C 
ATOM     11  N   UNL     1       3.656   1.891  -0.124  0.00  0.00    -0.211 NA
ENDROOT
BRANCH   9  12
ATOM     12  N   UNL     1       3.558  -2.597   0.051  0.00  0.00    -0.220 N 
ATOM     13  C   UNL     1       4.101  -3.875   0.143  0.00  0.00    +0.138 A 
ATOM     14  C   UNL     1       3.258  -4.977   0.243  0.00  0.00    +0.045 A 
ATOM     15  C   UNL     1       3.812  -6.242   0.334  0.00  0.00    +0.017 A 
ATOM     16  C   UNL     1       5.196  -6.361   0.321  0.00  0.00    +0.073 A 
ATOM     17  C   UNL     1       5.972  -5.223   0.219  0.00  0.00    +0.125 A 
ATOM     18  N   UNL     1       5.416  -4.031   0.129  0.00  0.00    -0.238 NA
ATOM     19  H   UNL     1       2.595  -2.478   0.060  0.00  0.00    +0.176 HD
BRANCH  16  20
ATOM     20  C   UNL     1       5.843  -7.718   0.418  0.00  0.00    +0.419 C 
ATOM     21  F   UNL     1       6.022  -8.243  -0.866  0.00  0.00    -0.166 F 
ATOM     22  F   UNL     1       7.085  -7.598   1.050  0.00  0.00    -0.166 F 
ATOM     23  F   UNL     1       5.023  -8.575   1.161  0.00  0.00    -0.166 F 
ENDBRANCH  16  20
ENDBRANCH   9  12
BRANCH  10  24
ATOM     24  O   UNL     1       5.845   1.065  -0.515  0.00  0.00    -0.491 OA
ATOM     25  H   UNL     1       6.124   1.984  -0.629  0.00  0.00    +0.294 HD
ENDBRANCH  10  24
TORSDOF 3
