REMARK  Name = ZINC05215860
REMARK  9 active torsions:
REMARK  status: ('A' for Active; 'I' for Inactive)
REMARK    1  A    between atoms: C_1  and  C_2
REMARK    2  A    between atoms: C_2  and  C_3
REMARK    3  A    between atoms: C_3  and  N_4
REMARK    4  A    between atoms: C_5  and  C_7
REMARK    5  A    between atoms: C_7  and  N_58
REMARK    6  A    between atoms: C_10  and  O_27
REMARK    7  A    between atoms: C_17  and  C_19
REMARK    8  A    between atoms: C_24  and  O_25
REMARK    9  A    between atoms: O_25  and  C_26
REMARK                            x       y       z     vdW  Elec       q    Type
REMARK                         _______ _______ _______ _____ _____    ______ ____
ROOT
ATOM      1  C   UNL     1       3.710   1.871   0.341  0.00  0.00    -0.075 C 
ATOM      2  C   UNL     1       4.048   2.283   1.776  0.00  0.00    +0.016 C 
ATOM      3  C   UNL     1       2.910   3.143   2.330  0.00  0.00    +0.066 C 
ATOM      4  C   UNL     1       3.252   3.612   3.745  0.00  0.00    +0.035 C 
ATOM      5  C   UNL     1       2.102   4.466   4.285  0.00  0.00    +0.003 C 
ATOM      6  C   UNL     1       1.893   5.680   3.378  0.00  0.00    +0.000 C 
ATOM      7  C   UNL     1       1.563   5.210   1.959  0.00  0.00    +0.005 C 
ATOM      8  C   UNL     1       2.719   4.364   1.426  0.00  0.00    +0.011 C 
ATOM      9  C   UNL     1       2.410   3.892   0.004  0.00  0.00    -0.028 C 
ATOM     10  N   UNL     1       3.550   3.086  -0.487  0.00  0.00    +0.390 N 
ATOM     11  H   UNL     1       4.407   3.648  -0.423  0.00  0.00    -0.080 HD
ENDROOT
BRANCH   9  12
ATOM     12  C   UNL     1       1.144   3.074   0.009  0.00  0.00    -0.019 A 
ATOM     13  C   UNL     1       1.181   1.740  -0.350  0.00  0.00    +0.005 A 
ATOM     14  C   UNL     1       0.020   0.990  -0.346  0.00  0.00    +0.000 A 
ATOM     15  C   UNL     1      -1.181   1.573   0.013  0.00  0.00    +0.004 A 
ATOM     16  C   UNL     1      -1.222   2.904   0.379  0.00  0.00    +0.046 A 
ATOM     17  C   UNL     1      -0.059   3.660   0.375  0.00  0.00    +0.122 A 
BRANCH  17  18
ATOM     18  O   UNL     1      -0.098   4.971   0.728  0.00  0.00    -0.495 OA
ATOM     19  C   UNL     1      -1.371   5.508   1.093  0.00  0.00    +0.277 C 
ENDBRANCH  17  18
ENDBRANCH   9  12
BRANCH   3  20
ATOM     20  O   UNL     1       1.705   2.376   2.360  0.00  0.00    -0.388 OA
ATOM     21  H   UNL     1       1.757   1.583   2.910  0.00  0.00    +0.210 HD
ENDBRANCH   3  20
BRANCH  10  22
ATOM     22  C   UNL     1       3.329   2.708  -1.898  0.00  0.00    +0.019 C 
BRANCH  22  24
ATOM     23  N   UNL     1       3.161   3.877  -4.071  0.00  0.00    -0.317 N 
ATOM     24  C   UNL     1       3.420   3.947  -2.751  0.00  0.00    +0.196 C 
ATOM     25  O   UNL     1       3.726   5.008  -2.248  0.00  0.00    -0.278 OA
ATOM     26  H   UNL     1       2.916   3.029  -4.473  0.00  0.00    +0.149 HD
BRANCH  23  27
ATOM     27  C   UNL     1       3.249   5.082  -4.900  0.00  0.00    +0.104 C 
BRANCH  27  29
ATOM     28  C   UNL     1       3.002   5.989  -7.215  0.00  0.00    +0.005 C 
ATOM     29  C   UNL     1       2.910   4.730  -6.350  0.00  0.00    +0.015 C 
ENDBRANCH  27  29
ENDBRANCH  23  27
ENDBRANCH  22  24
ENDBRANCH  10  22
TORSDOF 7
