REMARK  Name = ZINC60241526
REMARK  6 active torsions:
REMARK  status: ('A' for Active; 'I' for Inactive)
REMARK    1  A    between atoms: C_1  and  C_2
REMARK    2  A    between atoms: C_3  and  S_25
REMARK    3  A    between atoms: C_8  and  C_10
REMARK    4  A    between atoms: C_10  and  N_11
REMARK    5  A    between atoms: C_19  and  C_21
REMARK    6  A    between atoms: S_25  and  C_26
REMARK                            x       y       z     vdW  Elec       q    Type
REMARK                         _______ _______ _______ _____ _____    ______ ____
ROOT
ATOM      1  N   UNL     1       0.106  -6.516   2.749  0.00  0.00    -0.215 N 
ATOM      2  C   UNL     1      -1.002  -7.247   2.502  0.00  0.00    +0.247 C 
ATOM      3  O   UNL     1      -2.155  -6.896   2.629  0.00  0.00    -0.273 OA
ATOM      4  C   UNL     1      -0.501  -8.594   2.035  0.00  0.00    +0.115 C 
ATOM      5  C   UNL     1      -0.976  -8.873   0.613  0.00  0.00    +0.035 C 
ATOM      6  C   UNL     1      -0.433 -10.227   0.148  0.00  0.00    +0.003 C 
ATOM      7  C   UNL     1      -0.925 -11.325   1.094  0.00  0.00    +0.000 C 
ATOM      8  C   UNL     1      -0.421 -11.043   2.511  0.00  0.00    +0.006 C 
ATOM      9  C   UNL     1      -0.964  -9.692   2.985  0.00  0.00    +0.018 C 
ATOM     10  C   UNL     1      -0.444  -9.400   4.394  0.00  0.00    +0.010 C 
ATOM     11  N   UNL     1       0.962  -8.463   2.073  0.00  0.00    -0.285 N 
ATOM     12  C   UNL     1       1.221  -7.212   2.498  0.00  0.00    +0.310 C 
ATOM     13  O   UNL     1       2.343  -6.766   2.641  0.00  0.00    -0.252 OA
ATOM     14  H   UNL     1       1.612  -9.143   1.835  0.00  0.00    +0.151 HD
ENDROOT
BRANCH   1  15
ATOM     15  C   UNL     1       0.089  -5.131   3.227  0.00  0.00    +0.214 C 
BRANCH  15  23
ATOM     16  C   UNL     1      -0.018   1.503   0.010  0.00  0.00    +0.067 C 
ATOM     17  C   UNL     1       0.002  -0.004   0.002  0.00  0.00    +0.061 A 
ATOM     18  C   UNL     1       0.005  -0.683  -1.179  0.00  0.00    +0.069 A 
ATOM     19  S   UNL     1       0.032  -2.371  -0.590  0.00  0.00    -0.046 S 
ATOM     20  C   UNL     1       0.036  -1.994   1.158  0.00  0.00    +0.166 A 
ATOM     21  N   UNL     1       0.022  -0.674   1.139  0.00  0.00    -0.229 NA
ATOM     22  N   UNL     1       0.053  -2.861   2.247  0.00  0.00    -0.263 N 
ATOM     23  C   UNL     1       0.070  -4.193   2.048  0.00  0.00    +0.237 C 
ATOM     24  O   UNL     1       0.071  -4.638   0.919  0.00  0.00    -0.274 OA
ATOM     25  H   UNL     1       0.053  -2.505   3.150  0.00  0.00    +0.157 HD
BRANCH  18  26
ATOM     26  S   UNL     1      -0.013  -0.068  -2.830  0.00  0.00    -0.120 S 
ATOM     27  C   UNL     1       0.003  -1.564  -3.856  0.00  0.00    +0.090 C 
ENDBRANCH  18  26
ENDBRANCH  15  23
ENDBRANCH   1  15
TORSDOF 3
