REMARK  Name = ZINC09685874
REMARK  7 active torsions:
REMARK  status: ('A' for Active; 'I' for Inactive)
REMARK    1  A    between atoms: C_1  and  C_2
REMARK    2  A    between atoms: C_2  and  C_3
REMARK    3  A    between atoms: C_8  and  S_9
REMARK    4  A    between atoms: S_9  and  N_12
REMARK    5  A    between atoms: N_12  and  C_13
REMARK    6  A    between atoms: C_14  and  C_20
REMARK    7  A    between atoms: C_18  and  C_19
REMARK                            x       y       z     vdW  Elec       q    Type
REMARK                         _______ _______ _______ _____ _____    ______ ____
ROOT
ATOM      1  C   UNL     1       2.053  -1.166  -0.624  0.00  0.00    -0.020 A 
ATOM      2  C   UNL     1       3.246  -0.483  -0.540  0.00  0.00    +0.016 A 
ATOM      3  C   UNL     1       3.244   0.894  -0.336  0.00  0.00    +0.011 A 
ATOM      4  C   UNL     1       2.023   1.583  -0.215  0.00  0.00    +0.049 A 
ATOM      5  C   UNL     1       0.830   0.875  -0.302  0.00  0.00    +0.055 A 
ATOM      6  C   UNL     1       0.849  -0.488  -0.505  0.00  0.00    +0.114 A 
ATOM      7  N   UNL     1       2.310   2.922  -0.021  0.00  0.00    -0.357 N 
ATOM      8  H   UNL     1       1.643   3.618   0.089  0.00  0.00    +0.166 HD
ATOM      9  C   UNL     1       3.633   3.125  -0.007  0.00  0.00    +0.028 A 
ATOM     10  C   UNL     1       4.285   1.916  -0.200  0.00  0.00    +0.046 A 
ATOM     11  C   UNL     1       5.696   1.806  -0.241  0.00  0.00    +0.165 C 
ATOM     12  O   UNL     1       6.239   0.728  -0.373  0.00  0.00    -0.292 OA
ATOM     13  C   UNL     1       6.503   3.080  -0.115  0.00  0.00    +0.080 C 
ATOM     14  C   UNL     1       5.765   4.081   0.775  0.00  0.00    +0.014 C 
ATOM     15  C   UNL     1       4.392   4.418   0.181  0.00  0.00    +0.054 C 
ENDROOT
BRANCH   6  16
ATOM     16  S   UNL     1      -0.669  -1.376  -0.614  0.00  0.00    +0.073 S 
ATOM     17  O   UNL     1      -0.502  -2.561   0.153  0.00  0.00    -0.150 OA
ATOM     18  O   UNL     1      -1.707  -0.441  -0.354  0.00  0.00    -0.150 OA
BRANCH  16  19
ATOM     19  N   UNL     1      -0.845  -1.854  -2.189  0.00  0.00    -0.216 N 
ATOM     20  H   UNL     1      -0.585  -2.749  -2.457  0.00  0.00    +0.174 HD
BRANCH  19  21
ATOM     21  C   UNL     1      -1.367  -0.967  -3.134  0.00  0.00    +0.054 A 
ATOM     22  C   UNL     1      -0.548  -0.446  -4.128  0.00  0.00    -0.028 A 
ATOM     23  C   UNL     1      -1.069   0.427  -5.062  0.00  0.00    +0.005 A 
ATOM     24  C   UNL     1      -2.402   0.791  -5.004  0.00  0.00    +0.001 A 
ATOM     25  C   UNL     1      -3.219   0.278  -4.013  0.00  0.00    +0.005 A 
ATOM     26  C   UNL     1      -2.705  -0.599  -3.078  0.00  0.00    -0.028 A 
ATOM     27  C   UNL     1      -3.597  -1.157  -1.998  0.00  0.00    +0.046 C 
ATOM     28  C   UNL     1       0.906  -0.837  -4.188  0.00  0.00    +0.046 C 
ENDBRANCH  19  21
ENDBRANCH  16  19
ENDBRANCH   6  16
BRANCH   1  30
ATOM     29  C   UNL     1       1.985  -2.950  -2.345  0.00  0.00    +0.009 C 
ATOM     30  C   UNL     1       2.055  -2.657  -0.845  0.00  0.00    +0.034 C 
ENDBRANCH   1  30
TORSDOF 4
