REMARK  Name = ZINC65623021
REMARK  8 active torsions:
REMARK  status: ('A' for Active; 'I' for Inactive)
REMARK    1  A    between atoms: C_1  and  C_2
REMARK    2  A    between atoms: C_2  and  C_3
REMARK    3  A    between atoms: C_2  and  C_4
REMARK    4  A    between atoms: C_4  and  N_5
REMARK    5  A    between atoms: N_8  and  N_9
REMARK    6  A    between atoms: C_10  and  C_12
REMARK    7  A    between atoms: C_12  and  N_13
REMARK    8  A    between atoms: C_14  and  C_16
REMARK                            x       y       z     vdW  Elec       q    Type
REMARK                         _______ _______ _______ _____ _____    ______ ____
ROOT
ATOM      1  N   UNL     1      -1.339  -4.704  -0.356  0.00  0.00    -0.232 N 
ATOM      2  C   UNL     1      -1.323  -6.046  -0.474  0.00  0.00    +0.246 C 
ATOM      3  O   UNL     1      -2.366  -6.666  -0.487  0.00  0.00    -0.273 OA
ATOM      4  H   UNL     1      -0.505  -4.208  -0.346  0.00  0.00    +0.173 HD
ENDROOT
BRANCH   1   8
ATOM      5  N   UNL     1      -1.416  -1.993  -0.116  0.00  0.00    -0.298 N 
ATOM      6  C   UNL     1      -2.575  -2.682  -0.130  0.00  0.00    +0.316 C 
ATOM      7  O   UNL     1      -3.634  -2.092  -0.036  0.00  0.00    -0.251 OA
ATOM      8  N   UNL     1      -2.559  -4.024  -0.248  0.00  0.00    -0.218 N 
ATOM      9  H   UNL     1      -0.572  -2.463  -0.190  0.00  0.00    +0.150 HD
ATOM     10  H   UNL     1      -3.393  -4.520  -0.258  0.00  0.00    +0.174 HD
BRANCH   5  11
ATOM     11  C   UNL     1      -1.433  -0.534   0.013  0.00  0.00    +0.108 C 
BRANCH  11  13
ATOM     12  C   UNL     1      -0.019   1.526   0.010  0.00  0.00    +0.009 C 
ATOM     13  C   UNL     1       0.002  -0.004   0.002  0.00  0.00    -0.000 C 
ATOM     14  C   UNL     1       0.742  -0.511   1.242  0.00  0.00    +0.009 C 
ENDBRANCH  11  13
ENDBRANCH   5  11
ENDBRANCH   1   8
BRANCH   2  15
ATOM     15  C   UNL     1      -0.011  -6.777  -0.590  0.00  0.00    +0.202 C 
BRANCH  15  16
ATOM     16  N   UNL     1      -0.262  -8.216  -0.706  0.00  0.00    -0.303 N 
ATOM     17  C   UNL     1       0.772  -9.073  -0.822  0.00  0.00    +0.245 C 
ATOM     18  O   UNL     1       1.913  -8.652  -0.831  0.00  0.00    -0.270 OA
ATOM     19  H   UNL     1      -1.172  -8.552  -0.699  0.00  0.00    +0.150 HD
BRANCH  17  20
ATOM     20  C   UNL     1       0.519 -10.524  -0.939  0.00  0.00    +0.040 A 
ATOM     21  C   UNL     1      -0.790 -11.009  -0.935  0.00  0.00    +0.016 A 
ATOM     22  C   UNL     1      -1.022 -12.364  -1.045  0.00  0.00    +0.042 A 
ATOM     23  C   UNL     1       0.042 -13.245  -1.158  0.00  0.00    +0.158 A 
ATOM     24  C   UNL     1       1.346 -12.769  -1.162  0.00  0.00    +0.159 A 
ATOM     25  C   UNL     1       1.588 -11.414  -1.060  0.00  0.00    +0.054 A 
ATOM     26  F   UNL     1       2.379 -13.633  -1.273  0.00  0.00    -0.202 F 
ATOM     27  F   UNL     1      -0.191 -14.571  -1.265  0.00  0.00    -0.202 F 
ENDBRANCH  17  20
ENDBRANCH  15  16
ENDBRANCH   2  15
TORSDOF 6
