REMARK  Name = ZINC66121950
REMARK  7 active torsions:
REMARK  status: ('A' for Active; 'I' for Inactive)
REMARK    1  A    between atoms: C_1  and  C_2
REMARK    2  A    between atoms: C_2  and  C_4
REMARK    3  A    between atoms: C_2  and  N_12
REMARK    4  A    between atoms: N_12  and  C_13
REMARK    5  A    between atoms: C_13  and  N_15
REMARK    6  A    between atoms: N_15  and  N_16
REMARK    7  A    between atoms: C_17  and  C_19
REMARK                            x       y       z     vdW  Elec       q    Type
REMARK                         _______ _______ _______ _____ _____    ______ ____
ROOT
ATOM      1  C   UNL     1      -2.029  -0.655   1.181  0.00  0.00    +0.147 C 
ATOM      2  S   UNL     1      -1.256  -0.246   2.653  0.00  0.00    -0.017 S 
ENDROOT
BRANCH   1   3
ATOM      3  N   UNL     1      -1.372  -0.511   0.012  0.00  0.00    -0.319 N 
ATOM      4  H   UNL     1      -1.810  -0.743  -0.822  0.00  0.00    +0.148 HD
BRANCH   3   6
ATOM      5  C   UNL     1      -0.019   1.526   0.010  0.00  0.00    +0.033 C 
ATOM      6  C   UNL     1       0.002  -0.004   0.002  0.00  0.00    +0.101 C 
BRANCH   6   7
ATOM      7  C   UNL     1       0.707  -0.490  -1.238  0.00  0.00    -0.009 A 
ATOM      8  C   UNL     1      -0.023  -0.817  -2.365  0.00  0.00    +0.008 A 
ATOM      9  C   UNL     1       0.623  -1.263  -3.502  0.00  0.00    +0.020 A 
ATOM     10  C   UNL     1       2.002  -1.382  -3.514  0.00  0.00    +0.042 A 
ATOM     11  C   UNL     1       2.733  -1.054  -2.386  0.00  0.00    +0.040 A 
ATOM     12  C   UNL     1       2.086  -0.603  -1.250  0.00  0.00    +0.047 A 
ATOM     13 CL   UNL     1       3.004  -0.186   0.164  0.00  0.00    -0.083 Cl
ATOM     14 CL   UNL     1       2.813  -1.942  -4.942  0.00  0.00    -0.083 Cl
ENDBRANCH   6   7
ENDBRANCH   3   6
ENDBRANCH   1   3
BRANCH   1  15
ATOM     15  N   UNL     1      -3.293  -1.122   1.190  0.00  0.00    -0.246 N 
ATOM     16  H   UNL     1      -3.765  -1.225   2.031  0.00  0.00    +0.172 HD
BRANCH  15  17
ATOM     17  N   UNL     1      -3.925  -1.457  -0.014  0.00  0.00    -0.235 N 
ATOM     18  C   UNL     1      -5.190  -1.923  -0.005  0.00  0.00    +0.232 C 
ATOM     19  O   UNL     1      -5.780  -2.053   1.047  0.00  0.00    -0.274 OA
ATOM     20  H   UNL     1      -3.453  -1.353  -0.855  0.00  0.00    +0.173 HD
BRANCH  18  21
ATOM     21  C   UNL     1      -5.870  -2.284  -1.300  0.00  0.00    +0.080 C 
ATOM     22  C   UNL     1      -7.295  -2.775  -1.016  0.00  0.00    +0.017 C 
ATOM     23  C   UNL     1      -7.896  -3.300  -2.321  0.00  0.00    +0.027 C 
ATOM     24  C   UNL     1      -7.702  -2.296  -3.420  0.00  0.00    -0.031 C 
ATOM     25  C   UNL     1      -6.854  -1.319  -3.368  0.00  0.00    -0.030 C 
ATOM     26  C   UNL     1      -5.949  -1.049  -2.200  0.00  0.00    +0.039 C 
ENDBRANCH  18  21
ENDBRANCH  15  17
ENDBRANCH   1  15
TORSDOF 6
