REMARK  Name = ZINC09424799
REMARK  16 active torsions:
REMARK  status: ('A' for Active; 'I' for Inactive)
REMARK    1  A    between atoms: C_1  and  C_2
REMARK    2  A    between atoms: C_2  and  N_74
REMARK    3  A    between atoms: C_3  and  C_4
REMARK    4  A    between atoms: C_3  and  N_74
REMARK    5  A    between atoms: C_5  and  C_6
REMARK    6  A    between atoms: C_5  and  N_74
REMARK    7  A    between atoms: C_6  and  C_7
REMARK    8  A    between atoms: C_7  and  N_8
REMARK    9  A    between atoms: C_9  and  C_29
REMARK   10  A    between atoms: C_11  and  C_16
REMARK   11  A    between atoms: C_12  and  O_15
REMARK   12  A    between atoms: C_16  and  C_18
REMARK   13  A    between atoms: C_25  and  C_28
REMARK   14  A    between atoms: C_32  and  C_35
REMARK   15  A    between atoms: C_35  and  C_36
REMARK   16  A    between atoms: C_35  and  C_37
REMARK                            x       y       z     vdW  Elec       q    Type
REMARK                         _______ _______ _______ _____ _____    ______ ____
ROOT
ATOM      1  N   UNL     1       3.288   1.759  -0.168  0.00  0.00    -0.284 N 
ATOM      2  C   UNL     1       3.010   3.171   0.122  0.00  0.00    +0.144 C 
ATOM      3  C   UNL     1       1.506   3.316   0.100  0.00  0.00    +0.071 C 
ATOM      4  C   UNL     1       0.999   2.092  -0.177  0.00  0.00    +0.188 C 
ATOM      5  C   UNL     1       2.111   1.131  -0.337  0.00  0.00    +0.282 C 
ATOM      6  O   UNL     1       1.980  -0.051  -0.586  0.00  0.00    -0.267 OA
ENDROOT
BRANCH   2   7
ATOM      7  C   UNL     1       3.546   3.538   1.481  0.00  0.00    -0.022 A 
ATOM      8  C   UNL     1       3.352   2.687   2.553  0.00  0.00    +0.006 A 
ATOM      9  C   UNL     1       3.848   3.021   3.800  0.00  0.00    +0.004 A 
ATOM     10  C   UNL     1       4.529   4.211   3.976  0.00  0.00    -0.045 A 
ATOM     11  C   UNL     1       4.719   5.064   2.905  0.00  0.00    +0.004 A 
ATOM     12  C   UNL     1       4.227   4.728   1.657  0.00  0.00    +0.006 A 
BRANCH  10  13
ATOM     13  C   UNL     1       5.065   4.579   5.335  0.00  0.00    +0.013 C 
ATOM     14  C   UNL     1       3.924   4.560   6.355  0.00  0.00    +0.012 C 
ATOM     15  C   UNL     1       6.137   3.570   5.751  0.00  0.00    +0.012 C 
ENDBRANCH  10  13
ENDBRANCH   2   7
BRANCH   4  16
ATOM     16  O   UNL     1      -0.316   1.794  -0.286  0.00  0.00    -0.502 OA
ATOM     17  H   UNL     1      -0.422   0.822  -0.496  0.00  0.00    +0.292 HD
ENDBRANCH   4  16
BRANCH   3  18
ATOM     18  C   UNL     1       0.743   4.546   0.334  0.00  0.00    +0.195 C 
ATOM     19  O   UNL     1       0.010   4.632   1.302  0.00  0.00    -0.287 OA
BRANCH  18  20
ATOM     20  C   UNL     1       0.863   5.679  -0.604  0.00  0.00    +0.023 A 
ATOM     21  C   UNL     1       1.617   5.548  -1.774  0.00  0.00    +0.015 A 
ATOM     22  C   UNL     1       1.726   6.604  -2.647  0.00  0.00    +0.046 A 
ATOM     23  C   UNL     1       1.097   7.819  -2.370  0.00  0.00    +0.124 A 
ATOM     24  C   UNL     1       0.347   7.943  -1.204  0.00  0.00    -0.002 A 
ATOM     25  C   UNL     1       0.228   6.894  -0.327  0.00  0.00    +0.019 A 
ATOM     26  C   UNL     1      -0.219   9.350  -1.189  0.00  0.00    +0.083 C 
ATOM     27  C   UNL     1      -0.011   9.794  -2.656  0.00  0.00    +0.175 C 
ATOM     28  O   UNL     1       1.093   8.978  -3.082  0.00  0.00    -0.488 OA
ATOM     29  C   UNL     1      -1.257   9.500  -3.493  0.00  0.00    +0.052 C 
ENDBRANCH  18  20
ENDBRANCH   3  18
BRANCH   1  30
ATOM     30  C   UNL     1       4.614   1.142  -0.252  0.00  0.00    +0.107 C 
BRANCH  30  31
ATOM     31  C   UNL     1       4.968   0.507   1.094  0.00  0.00    +0.000 C 
BRANCH  31  32
ATOM     32  C   UNL     1       6.291  -0.251   0.970  0.00  0.00    -0.077 C 
BRANCH  32  33
ATOM     33  N   UNL     1       6.571  -0.929   2.252  0.00  0.00    +0.379 N 
ATOM     34  H   UNL     1       6.342  -0.292   3.024  0.00  0.00    -0.082 HD
BRANCH  33  36
ATOM     35  C   UNL     1       5.882  -2.702   3.791  0.00  0.00    -0.017 C 
ATOM     36  C   UNL     1       5.740  -2.146   2.372  0.00  0.00    -0.082 C 
ENDBRANCH  33  36
BRANCH  33  37
ATOM     37  C   UNL     1       8.003  -1.285   2.334  0.00  0.00    -0.082 C 
ATOM     38  C   UNL     1       8.803  -0.026   2.675  0.00  0.00    -0.017 C 
ENDBRANCH  33  37
ENDBRANCH  32  33
ENDBRANCH  31  32
ENDBRANCH  30  31
ENDBRANCH   1  30
TORSDOF 11
