REMARK  Name = ZINC63129289
REMARK  6 active torsions:
REMARK  status: ('A' for Active; 'I' for Inactive)
REMARK    1  A    between atoms: C_4  and  C_7
REMARK    2  A    between atoms: C_9  and  C_32
REMARK    3  A    between atoms: N_11  and  C_26
REMARK    4  A    between atoms: C_12  and  S_15
REMARK    5  A    between atoms: S_15  and  C_16
REMARK    6  A    between atoms: C_16  and  C_17
REMARK                            x       y       z     vdW  Elec       q    Type
REMARK                         _______ _______ _______ _____ _____    ______ ____
ROOT
ATOM      1  C   UNL     1       3.729  -0.698  -0.037  0.00  0.00    +0.111 C 
ATOM      2  C   UNL     1       4.056  -1.218  -1.454  0.00  0.00    +0.127 C 
ATOM      3  N   UNL     1       4.621  -2.566  -1.265  0.00  0.00    -0.297 N 
ATOM      4  C   UNL     1       4.654  -2.822   0.188  0.00  0.00    +0.203 C 
ATOM      5  N   UNL     1       3.604  -1.943   0.769  0.00  0.00    -0.281 NA
ATOM      6  H   UNL     1       3.782  -1.761   1.745  0.00  0.00    +0.125 HD
ENDROOT
BRANCH   1  10
ATOM      7  C   UNL     1       0.050   1.471  -0.043  0.00  0.00    +0.000 A 
ATOM      8  C   UNL     1       1.253   2.151  -0.020  0.00  0.00    +0.000 A 
ATOM      9  C   UNL     1       2.444   1.449  -0.018  0.00  0.00    +0.005 A 
ATOM     10  C   UNL     1       2.431   0.067  -0.038  0.00  0.00    -0.028 A 
ATOM     11  C   UNL     1       1.228  -0.613  -0.060  0.00  0.00    +0.005 A 
ATOM     12  C   UNL     1       0.037   0.089  -0.064  0.00  0.00    +0.000 A 
ENDBRANCH   1  10
BRANCH   3  13
ATOM     13  C   UNL     1       5.046  -3.437  -2.271  0.00  0.00    +0.032 A 
ATOM     14  C   UNL     1       5.684  -4.626  -1.939  0.00  0.00    +0.023 A 
ATOM     15  C   UNL     1       6.102  -5.485  -2.936  0.00  0.00    +0.002 A 
ATOM     16  C   UNL     1       5.886  -5.163  -4.264  0.00  0.00    +0.000 A 
ATOM     17  C   UNL     1       5.251  -3.981  -4.598  0.00  0.00    +0.002 A 
ATOM     18  C   UNL     1       4.825  -3.120  -3.605  0.00  0.00    +0.023 A 
ENDBRANCH   3  13
BRANCH   2  19
ATOM     19  C   UNL     1       5.065  -0.318  -2.119  0.00  0.00    -0.025 A 
ATOM     20  C   UNL     1       6.408  -0.443  -1.816  0.00  0.00    +0.005 A 
ATOM     21  C   UNL     1       7.334   0.383  -2.426  0.00  0.00    +0.000 A 
ATOM     22  C   UNL     1       6.917   1.334  -3.338  0.00  0.00    +0.000 A 
ATOM     23  C   UNL     1       5.574   1.459  -3.641  0.00  0.00    +0.000 A 
ATOM     24  C   UNL     1       4.649   0.630  -3.035  0.00  0.00    +0.005 A 
ENDBRANCH   2  19
BRANCH   4  25
ATOM     25  S   UNL     1       4.278  -4.564   0.527  0.00  0.00    -0.119 S 
BRANCH  25  26
ATOM     26  C   UNL     1       2.616  -4.797  -0.161  0.00  0.00    +0.119 C 
BRANCH  26  27
ATOM     27  C   UNL     1       2.171  -6.244   0.060  0.00  0.00    +0.184 C 
ATOM     28  N   UNL     1       2.215  -6.571   1.491  0.00  0.00    -0.363 N 
ATOM     29  C   UNL     1       3.058  -7.552   1.641  0.00  0.00    +0.060 A 
ATOM     30  C   UNL     1       3.519  -8.301   2.818  0.00  0.00    +0.027 A 
ATOM     31  C   UNL     1       4.422  -9.290   2.665  0.00  0.00    +0.002 A 
ATOM     32  C   UNL     1       4.953  -9.645   1.412  0.00  0.00    +0.002 A 
ATOM     33  C   UNL     1       4.598  -9.022   0.270  0.00  0.00    +0.027 A 
ATOM     34  C   UNL     1       3.619  -7.928   0.315  0.00  0.00    +0.060 A 
ATOM     35  N   UNL     1       3.102  -7.165  -0.604  0.00  0.00    -0.363 N 
ATOM     36  H   UNL     1       1.709  -6.137   2.195  0.00  0.00    +0.162 HD
ATOM     37  H   UNL     1       3.295  -7.199  -1.554  0.00  0.00    +0.162 HD
ENDBRANCH  26  27
ENDBRANCH  25  26
ENDBRANCH   4  25
TORSDOF 6
