REMARK  Name = ZINC45681513
REMARK  9 active torsions:
REMARK  status: ('A' for Active; 'I' for Inactive)
REMARK    1  A    between atoms: C_1  and  C_2
REMARK    2  A    between atoms: C_4  and  N_27
REMARK    3  A    between atoms: C_6  and  S_9
REMARK    4  A    between atoms: C_7  and  C_8
REMARK    5  A    between atoms: S_9  and  N_12
REMARK    6  A    between atoms: N_15  and  C_18
REMARK    7  A    between atoms: C_18  and  C_20
REMARK    8  A    between atoms: C_18  and  C_21
REMARK    9  A    between atoms: N_23  and  C_24
REMARK                            x       y       z     vdW  Elec       q    Type
REMARK                         _______ _______ _______ _____ _____    ______ ____
ROOT
ATOM      1  N   UNL     1       1.710  -2.515   3.885  0.00  0.00    -0.174 NA
ATOM      2  C   UNL     1       2.835  -3.374   3.486  0.00  0.00    +0.125 C 
ATOM      3  C   UNL     1       3.972  -2.483   2.975  0.00  0.00    +0.102 C 
ATOM      4  N   UNL     1       4.293  -1.473   3.992  0.00  0.00    -0.289 NA
ATOM      5  C   UNL     1       3.151  -0.580   4.235  0.00  0.00    +0.102 C 
ATOM      6  C   UNL     1       1.982  -1.390   4.793  0.00  0.00    +0.125 C 
ENDROOT
BRANCH   1   7
ATOM      7  S   UNL     1       0.180  -2.802   3.322  0.00  0.00    +0.061 S 
ATOM      8  O   UNL     1      -0.715  -2.342   4.326  0.00  0.00    -0.153 OA
ATOM      9  O   UNL     1       0.167  -4.141   2.845  0.00  0.00    -0.153 OA
BRANCH   7  15
ATOM     10  C   UNL     1       1.252  -1.423  -1.604  0.00  0.00    +0.044 C 
ATOM     11  C   UNL     1       0.468  -1.176  -0.341  0.00  0.00    -0.044 A 
ATOM     12  C   UNL     1      -0.441  -0.136  -0.283  0.00  0.00    +0.036 A 
ATOM     13  C   UNL     1      -1.160   0.090   0.875  0.00  0.00    +0.128 A 
ATOM     14  C   UNL     1      -0.970  -0.724   1.976  0.00  0.00    +0.061 A 
ATOM     15  C   UNL     1      -0.062  -1.765   1.919  0.00  0.00    +0.111 A 
ATOM     16  C   UNL     1       0.654  -1.994   0.758  0.00  0.00    -0.021 A 
ATOM     17  C   UNL     1       1.640  -3.131   0.693  0.00  0.00    +0.046 C 
BRANCH  13  18
ATOM     18  N   UNL     1      -2.132   1.204   0.937  0.00  0.00    +0.056 N 
ATOM     19  O   UNL     1      -2.298   1.916  -0.025  0.00  0.00    -0.126 OA
ATOM     20  O   UNL     1      -2.761   1.402   1.951  0.00  0.00    -0.126 OA
ENDBRANCH  13  18
ENDBRANCH   7  15
ENDBRANCH   1   7
BRANCH   4  21
ATOM     21  C   UNL     1       5.489  -0.708   3.616  0.00  0.00    +0.140 C 
ATOM     22  C   UNL     1       5.355  -0.232   2.167  0.00  0.00    +0.034 C 
BRANCH  21  23
ATOM     23  C   UNL     1       6.707  -1.584   3.746  0.00  0.00    +0.230 C 
ATOM     24  O   UNL     1       6.580  -2.775   3.939  0.00  0.00    -0.274 OA
ATOM     25  N   UNL     1       7.939  -1.046   3.647  0.00  0.00    -0.311 N 
ATOM     26  H   UNL     1       8.041  -0.093   3.493  0.00  0.00    +0.149 HD
BRANCH  25  27
ATOM     27  C   UNL     1       9.124  -1.898   3.774  0.00  0.00    +0.073 C 
ATOM     28  C   UNL     1      10.281  -1.376   4.628  0.00  0.00    +0.024 C 
ATOM     29  C   UNL     1      10.413  -1.419   3.104  0.00  0.00    +0.024 C 
ENDBRANCH  25  27
ENDBRANCH  21  23
ENDBRANCH   4  21
TORSDOF 6
