REMARK  Name = ZINC13555019
REMARK  6 active torsions:
REMARK  status: ('A' for Active; 'I' for Inactive)
REMARK    1  A    between atoms: C_1  and  S_2
REMARK    2  A    between atoms: S_2  and  C_3
REMARK    3  A    between atoms: C_8  and  C_26
REMARK    4  A    between atoms: C_14  and  C_19
REMARK    5  A    between atoms: C_24  and  O_25
REMARK    6  A    between atoms: C_29  and  O_32
REMARK                            x       y       z     vdW  Elec       q    Type
REMARK                         _______ _______ _______ _____ _____    ______ ____
ROOT
ATOM      1  C   UNL     1      -1.702  -0.454   0.016  0.00  0.00    +0.210 A 
ATOM      2  N   UNL     1      -2.733   0.404   0.025  0.00  0.00    -0.187 NA
ATOM      3  C   UNL     1      -3.854  -0.264   0.036  0.00  0.00    +0.219 A 
ATOM      4  N   UNL     1      -3.558  -1.587   0.029  0.00  0.00    -0.220 N 
ATOM      5  N   UNL     1      -2.167  -1.684   0.014  0.00  0.00    -0.141 NA
ATOM      6  C   UNL     1      -4.570  -2.636   0.026  0.00  0.00    +0.175 C 
ATOM      7  C   UNL     1      -5.921  -2.052   0.374  0.00  0.00    +0.041 C 
ATOM      8  C   UNL     1      -6.151  -0.722   0.373  0.00  0.00    +0.020 C 
ATOM      9  N   UNL     1      -5.165   0.182   0.055  0.00  0.00    -0.287 N 
ATOM     10  C   UNL     1      -7.509  -0.168   0.732  0.00  0.00    +0.060 C 
ATOM     11  C   UNL     1      -8.596  -1.163   0.321  0.00  0.00    +0.035 C 
ATOM     12  C   UNL     1      -8.332  -2.490   1.040  0.00  0.00    +0.088 C 
ATOM     13  C   UNL     1      -6.945  -2.960   0.702  0.00  0.00    +0.164 C 
ATOM     14  O   UNL     1      -6.702  -4.151   0.711  0.00  0.00    -0.292 OA
ATOM     15  H   UNL     1      -5.382   1.106  -0.149  0.00  0.00    +0.155 HD
ENDROOT
BRANCH  11  16
ATOM     16  C   UNL     1      -9.949  -0.630   0.718  0.00  0.00    -0.002 A 
ATOM     17  C   UNL     1     -10.224  -0.362   2.045  0.00  0.00    +0.007 A 
ATOM     18  C   UNL     1     -11.465   0.126   2.409  0.00  0.00    +0.001 A 
ATOM     19  C   UNL     1     -12.433   0.348   1.448  0.00  0.00    +0.004 A 
ATOM     20  C   UNL     1     -12.163   0.082   0.119  0.00  0.00    +0.046 A 
ATOM     21  C   UNL     1     -10.916  -0.403  -0.250  0.00  0.00    +0.120 A 
BRANCH  21  22
ATOM     22  O   UNL     1     -10.646  -0.660  -1.557  0.00  0.00    -0.506 OA
ATOM     23  H   UNL     1     -10.863  -1.560  -1.833  0.00  0.00    +0.292 HD
ENDBRANCH  21  22
ENDBRANCH  11  16
BRANCH   6  24
ATOM     24  C   UNL     1      -4.636  -3.264  -1.342  0.00  0.00    -0.018 A 
ATOM     25  C   UNL     1      -4.947  -2.487  -2.443  0.00  0.00    +0.009 A 
ATOM     26  C   UNL     1      -5.009  -3.061  -3.699  0.00  0.00    +0.046 A 
ATOM     27  C   UNL     1      -4.758  -4.416  -3.854  0.00  0.00    +0.117 A 
ATOM     28  C   UNL     1      -4.446  -5.193  -2.748  0.00  0.00    +0.046 A 
ATOM     29  C   UNL     1      -4.380  -4.614  -1.496  0.00  0.00    +0.009 A 
BRANCH  27  30
ATOM     30  O   UNL     1      -4.819  -4.982  -5.088  0.00  0.00    -0.507 OA
ATOM     31  H   UNL     1      -3.978  -4.974  -5.567  0.00  0.00    +0.292 HD
ENDBRANCH  27  30
ENDBRANCH   6  24
BRANCH   1  33
ATOM     32  C   UNL     1      -0.022   1.810   0.012  0.00  0.00    +0.093 C 
ATOM     33  S   UNL     1       0.002  -0.004   0.002  0.00  0.00    -0.088 S 
ENDBRANCH   1  33
TORSDOF 5
