REMARK  Name = ZINC63308316
REMARK  12 active torsions:
REMARK  status: ('A' for Active; 'I' for Inactive)
REMARK    1  A    between atoms: C_1  and  C_2
REMARK    2  A    between atoms: C_4  and  C_36
REMARK    3  A    between atoms: C_9  and  N_23
REMARK    4  A    between atoms: N_10  and  C_11
REMARK    5  A    between atoms: C_11  and  C_13
REMARK    6  A    between atoms: C_16  and  O_21
REMARK    7  A    between atoms: C_17  and  O_19
REMARK    8  A    between atoms: O_19  and  C_20
REMARK    9  A    between atoms: O_21  and  C_22
REMARK   10  A    between atoms: N_23  and  C_24
REMARK   11  A    between atoms: C_24  and  C_25
REMARK   12  A    between atoms: C_25  and  C_26
REMARK                            x       y       z     vdW  Elec       q    Type
REMARK                         _______ _______ _______ _____ _____    ______ ____
ROOT
ATOM      1  C   UNL     1      -0.385  -6.664   5.778  0.00  0.00    +0.066 C 
ATOM      2  C   UNL     1      -0.383  -6.130   4.369  0.00  0.00    +0.044 A 
ATOM      3  C   UNL     1      -0.364  -6.999   3.289  0.00  0.00    +0.046 A 
ATOM      4  C   UNL     1      -0.362  -6.467   2.010  0.00  0.00    +0.044 A 
ATOM      5  N   UNL     1      -0.378  -5.153   1.858  0.00  0.00    -0.217 NA
ATOM      6  C   UNL     1      -0.396  -4.350   2.911  0.00  0.00    +0.231 A 
ATOM      7  N   UNL     1      -0.403  -4.826   4.147  0.00  0.00    -0.217 NA
ATOM      8  N   UNL     1      -0.411  -2.975   2.715  0.00  0.00    -0.295 N 
ATOM      9  C   UNL     1      -0.314  -2.130   3.786  0.00  0.00    +0.218 C 
ATOM     10  N   UNL     1      -0.089  -2.618   4.995  0.00  0.00    -0.141 NA
ATOM     11  C   UNL     1      -0.342  -7.373   0.806  0.00  0.00    +0.066 C 
ATOM     12  H   UNL     1      -0.492  -2.614   1.818  0.00  0.00    +0.172 HD
ENDROOT
BRANCH  10  13
ATOM     13  C   UNL     1       0.097  -1.786   6.030  0.00  0.00    +0.270 C 
ATOM     14  O   UNL     1      -0.035  -0.585   5.877  0.00  0.00    -0.268 OA
BRANCH  13  15
ATOM     15  C   UNL     1       0.463  -2.327   7.357  0.00  0.00    +0.043 A 
ATOM     16  C   UNL     1       0.736  -3.688   7.507  0.00  0.00    +0.017 A 
ATOM     17  C   UNL     1       1.077  -4.190   8.744  0.00  0.00    +0.050 A 
ATOM     18  C   UNL     1       1.150  -3.346   9.844  0.00  0.00    +0.162 A 
ATOM     19  C   UNL     1       0.878  -1.986   9.701  0.00  0.00    +0.162 A 
ATOM     20  C   UNL     1       0.541  -1.476   8.461  0.00  0.00    +0.062 A 
BRANCH  19  21
ATOM     21  O   UNL     1       0.949  -1.161  10.779  0.00  0.00    -0.491 OA
ATOM     22  C   UNL     1       0.657   0.220  10.560  0.00  0.00    +0.277 C 
ENDBRANCH  19  21
BRANCH  18  23
ATOM     23  O   UNL     1       1.486  -3.845  11.061  0.00  0.00    -0.491 OA
ATOM     24  C   UNL     1       1.751  -5.248  11.136  0.00  0.00    +0.277 C 
ENDBRANCH  18  23
ENDBRANCH  13  15
ENDBRANCH  10  13
BRANCH   9  25
ATOM     25  N   UNL     1      -0.449  -0.785   3.608  0.00  0.00    -0.252 NA
BRANCH  25  26
ATOM     26  C   UNL     1      -0.808  -0.253   2.291  0.00  0.00    +0.149 C 
BRANCH  26  27
ATOM     27  C   UNL     1      -0.774   1.276   2.332  0.00  0.00    +0.056 C 
BRANCH  27  28
ATOM     28  C   UNL     1      -1.260   1.825   1.015  0.00  0.00    -0.040 C 
ATOM     29  C   UNL     1      -2.516   2.230   0.717  0.00  0.00    +0.000 A 
ATOM     30  C   UNL     1      -3.757   2.278   1.499  0.00  0.00    +0.030 A 
ATOM     31  C   UNL     1      -4.884   2.745   0.913  0.00  0.00    +0.042 A 
ATOM     32  C   UNL     1      -4.895   3.182  -0.420  0.00  0.00    +0.022 A 
ATOM     33  C   UNL     1      -3.794   3.168  -1.201  0.00  0.00    +0.027 A 
ATOM     34  C   UNL     1      -2.554   2.698  -0.687  0.00  0.00    +0.043 A 
ATOM     35  N   UNL     1      -1.369   2.586  -1.235  0.00  0.00    -0.380 N 
ATOM     36  C   UNL     1      -0.441   2.040  -0.238  0.00  0.00    +0.144 C 
ATOM     37 CL   UNL     1      -6.354   2.803   1.835  0.00  0.00    -0.084 Cl
ATOM     38  H   UNL     1      -1.141   2.828  -2.147  0.00  0.00    +0.160 HD
ENDBRANCH  27  28
ENDBRANCH  26  27
ENDBRANCH  25  26
ENDBRANCH   9  25
TORSDOF 8
