REMARK  Name = ZINC13071561
REMARK  6 active torsions:
REMARK  status: ('A' for Active; 'I' for Inactive)
REMARK    1  A    between atoms: C_1  and  C_2
REMARK    2  A    between atoms: C_2  and  C_3
REMARK    3  A    between atoms: C_6  and  N_9
REMARK    4  A    between atoms: N_21  and  C_24
REMARK    5  A    between atoms: C_24  and  N_59
REMARK    6  A    between atoms: C_29  and  C_31
REMARK                            x       y       z     vdW  Elec       q    Type
REMARK                         _______ _______ _______ _____ _____    ______ ____
ROOT
ATOM      1  N   UNL     1       4.770   1.849  -3.986  0.00  0.00    -0.245 N 
ATOM      2  C   UNL     1       5.450   1.014  -4.797  0.00  0.00    +0.268 A 
ATOM      3  O   UNL     1       5.591   1.278  -5.976  0.00  0.00    -0.267 OA
ATOM      4  C   UNL     1       6.019  -0.224  -4.234  0.00  0.00    +0.064 A 
ATOM      5  C   UNL     1       6.729  -1.120  -5.031  0.00  0.00    +0.015 A 
ATOM      6  C   UNL     1       7.247  -2.268  -4.470  0.00  0.00    +0.001 A 
ATOM      7  C   UNL     1       7.064  -2.534  -3.123  0.00  0.00    +0.002 A 
ATOM      8  C   UNL     1       6.362  -1.654  -2.322  0.00  0.00    +0.027 A 
ATOM      9  C   UNL     1       5.834  -0.494  -2.870  0.00  0.00    +0.064 A 
ATOM     10  N   UNL     1       5.121   0.409  -2.084  0.00  0.00    -0.256 N 
ATOM     11  C   UNL     1       4.601   1.558  -2.638  0.00  0.00    +0.243 A 
ATOM     12  N   UNL     1       3.985   2.225  -1.700  0.00  0.00    -0.133 NA
ATOM     13  N   UNL     1       4.100   1.505  -0.504  0.00  0.00    -0.255 N 
ATOM     14  C   UNL     1       4.811   0.391  -0.770  0.00  0.00    +0.182 A 
ATOM     15  S   UNL     1       5.240  -0.827   0.353  0.00  0.00    -0.011 S 
ENDROOT
BRANCH   1  19
ATOM     16  C   UNL     1       3.149   5.356  -5.545  0.00  0.00    -0.047 A 
ATOM     17  C   UNL     1       4.198   5.421  -4.646  0.00  0.00    +0.005 A 
ATOM     18  C   UNL     1       4.737   4.260  -4.127  0.00  0.00    +0.026 A 
ATOM     19  C   UNL     1       4.225   3.027  -4.510  0.00  0.00    +0.053 A 
ATOM     20  C   UNL     1       3.176   2.965  -5.417  0.00  0.00    +0.026 A 
ATOM     21  C   UNL     1       2.637   4.130  -5.928  0.00  0.00    +0.005 A 
BRANCH  16  23
ATOM     22  C   UNL     1       3.304   7.003  -7.392  0.00  0.00    +0.009 C 
ATOM     23  C   UNL     1       2.563   6.625  -6.109  0.00  0.00    +0.032 C 
ENDBRANCH  16  23
ENDBRANCH   1  19
BRANCH  13  24
ATOM     24  C   UNL     1       3.553   1.894   0.798  0.00  0.00    +0.073 C 
BRANCH  24  30
ATOM     25  C   UNL     1       2.231  -0.099   1.178  0.00  0.00    -0.075 C 
ATOM     26  C   UNL     1       0.816  -0.605   1.466  0.00  0.00    -0.019 C 
ATOM     27  C   UNL     1      -0.087  -0.286   0.271  0.00  0.00    -0.003 C 
ATOM     28  C   UNL     1      -0.069   1.224   0.016  0.00  0.00    -0.006 C 
ATOM     29  C   UNL     1       1.372   1.677  -0.230  0.00  0.00    +0.022 C 
ATOM     30  N   UNL     1       2.184   1.364   0.965  0.00  0.00    +0.400 N 
ATOM     31  H   UNL     1       1.753   1.806   1.786  0.00  0.00    -0.078 HD
BRANCH  29  32
ATOM     32  C   UNL     1       1.398   3.166  -0.462  0.00  0.00    +0.197 C 
ATOM     33  O   UNL     1       1.555   3.923   0.472  0.00  0.00    -0.278 OA
ATOM     34  N   UNL     1       1.246   3.656  -1.708  0.00  0.00    -0.331 N 
ATOM     35  H   UNL     1       1.121   3.050  -2.456  0.00  0.00    +0.145 HD
ATOM     36  H   UNL     1       1.263   4.614  -1.858  0.00  0.00    +0.145 HD
ENDBRANCH  29  32
ENDBRANCH  24  30
ENDBRANCH  13  24
TORSDOF 5
