REMARK  Name = ZINC64737029
REMARK  10 active torsions:
REMARK  status: ('A' for Active; 'I' for Inactive)
REMARK    1  A    between atoms: C_1  and  C_2
REMARK    2  A    between atoms: N_6  and  C_7
REMARK    3  A    between atoms: C_7  and  C_8
REMARK    4  A    between atoms: C_8  and  C_9
REMARK    5  A    between atoms: C_8  and  C_10
REMARK    6  A    between atoms: C_10  and  N_11
REMARK    7  A    between atoms: C_12  and  C_14
REMARK    8  A    between atoms: C_14  and  S_15
REMARK    9  A    between atoms: S_15  and  C_16
REMARK   10  A    between atoms: C_16  and  C_17
REMARK                            x       y       z     vdW  Elec       q    Type
REMARK                         _______ _______ _______ _____ _____    ______ ____
ROOT
ATOM      1  N   UNL     1      -2.756   0.839   4.764  0.00  0.00    -0.314 N 
ATOM      2  C   UNL     1      -2.988   1.373   5.979  0.00  0.00    +0.223 C 
ATOM      3  O   UNL     1      -2.066   1.559   6.745  0.00  0.00    -0.275 OA
ATOM      4  H   UNL     1      -3.494   0.689   4.151  0.00  0.00    +0.149 HD
ENDROOT
BRANCH   1   5
ATOM      5  C   UNL     1      -1.391   0.484   4.367  0.00  0.00    +0.109 C 
BRANCH   5   6
ATOM      6  C   UNL     1      -1.406  -0.098   2.953  0.00  0.00    +0.023 C 
ATOM      7  C   UNL     1      -2.183  -1.416   2.951  0.00  0.00    +0.011 C 
BRANCH   6   8
ATOM      8  C   UNL     1       0.030  -0.353   2.491  0.00  0.00    +0.127 C 
BRANCH   8  14
ATOM      9  C   UNL     1      -0.018   1.503   0.010  0.00  0.00    +0.084 C 
ATOM     10  C   UNL     1       0.002  -0.004   0.002  0.00  0.00    +0.084 A 
ATOM     11  N   UNL     1       0.008  -0.759  -1.063  0.00  0.00    -0.350 N 
ATOM     12  C   UNL     1       0.028  -2.047  -0.691  0.00  0.00    +0.101 A 
ATOM     13  C   UNL     1       0.034  -2.093   0.655  0.00  0.00    +0.104 A 
ATOM     14  N   UNL     1       0.023  -0.797   1.095  0.00  0.00    -0.336 N 
ATOM     15  H   UNL     1      -0.000  -0.438  -1.978  0.00  0.00    +0.166 HD
ENDBRANCH   8  14
ENDBRANCH   6   8
ENDBRANCH   5   6
ENDBRANCH   1   5
BRANCH   2  16
ATOM     16  C   UNL     1      -4.392   1.738   6.387  0.00  0.00    +0.165 C 
BRANCH  16  17
ATOM     17  S   UNL     1      -4.375   2.428   8.064  0.00  0.00    -0.145 S 
BRANCH  17  18
ATOM     18  C   UNL     1      -6.116   2.810   8.400  0.00  0.00    +0.125 C 
BRANCH  18  19
ATOM     19  C   UNL     1      -6.244   3.398   9.781  0.00  0.00    +0.059 A 
ATOM     20  C   UNL     1      -6.466   4.748   9.951  0.00  0.00    +0.094 A 
ATOM     21  C   UNL     1      -6.582   5.274  11.238  0.00  0.00    +0.259 A 
ATOM     22  O   UNL     1      -6.779   6.469  11.395  0.00  0.00    -0.267 OA
ATOM     23  N   UNL     1      -6.476   4.450  12.323  0.00  0.00    -0.262 N 
ATOM     24  C   UNL     1      -6.568   4.816  13.645  0.00  0.00    +0.104 A 
ATOM     25  C   UNL     1      -6.447   3.914  14.618  0.00  0.00    +0.067 A 
ATOM     26  S   UNL     1      -6.182   2.410  13.692  0.00  0.00    -0.058 S 
ATOM     27  C   UNL     1      -6.256   3.124  12.064  0.00  0.00    +0.180 A 
ATOM     28  N   UNL     1      -6.151   2.623  10.858  0.00  0.00    -0.227 NA
ENDBRANCH  18  19
ENDBRANCH  17  18
ENDBRANCH  16  17
ENDBRANCH   2  16
TORSDOF 8
