REMARK  Name = ZINC12701322
REMARK  11 active torsions:
REMARK  status: ('A' for Active; 'I' for Inactive)
REMARK    1  A    between atoms: C_1  and  N_57
REMARK    2  A    between atoms: C_2  and  C_3
REMARK    3  A    between atoms: C_2  and  N_57
REMARK    4  A    between atoms: C_3  and  C_5
REMARK    5  A    between atoms: C_3  and  O_18
REMARK    6  A    between atoms: C_5  and  O_6
REMARK    7  A    between atoms: O_6  and  C_7
REMARK    8  A    between atoms: C_11  and  C_13
REMARK    9  A    between atoms: C_13  and  N_59
REMARK   10  A    between atoms: C_14  and  N_59
REMARK   11  A    between atoms: C_19  and  N_57
REMARK                            x       y       z     vdW  Elec       q    Type
REMARK                         _______ _______ _______ _____ _____    ______ ____
ROOT
ATOM      1  O   UNL     1      -1.202   2.047   0.019  0.00  0.00    -0.489 OA
ENDROOT
BRANCH   1   2
ATOM      2  C   UNL     1      -0.017   1.383   0.010  0.00  0.00    +0.121 A 
ATOM      3  C   UNL     1       1.177   2.091   0.002  0.00  0.00    +0.045 A 
ATOM      4  C   UNL     1       2.380   1.413  -0.013  0.00  0.00    +0.004 A 
ATOM      5  C   UNL     1       2.396   0.030  -0.021  0.00  0.00    +0.002 A 
ATOM      6  C   UNL     1       1.208  -0.677  -0.013  0.00  0.00    -0.061 A 
ATOM      7  C   UNL     1       0.002  -0.004   0.002  0.00  0.00    +0.047 A 
BRANCH   6   8
ATOM      8  C   UNL     1       1.230  -2.184  -0.022  0.00  0.00    -0.046 C 
BRANCH   8   9
ATOM      9  N   UNL     1       1.223  -2.660  -1.418  0.00  0.00    +0.384 N 
ATOM     10  H   UNL     1       2.052  -2.296  -1.903  0.00  0.00    -0.085 HD
ATOM     11  H   UNL     1       0.376  -2.320  -1.888  0.00  0.00    -0.085 HD
BRANCH   9  12
ATOM     12  C   UNL     1       1.244  -4.134  -1.457  0.00  0.00    -0.071 C 
ATOM     13  C   UNL     1       2.592  -4.717  -1.913  0.00  0.00    -0.016 C 
ATOM     14  C   UNL     1       1.784  -5.749  -2.718  0.00  0.00    -0.003 C 
ATOM     15  C   UNL     1       0.644  -4.717  -2.748  0.00  0.00    -0.016 C 
ENDBRANCH   9  12
ENDBRANCH   8   9
ENDBRANCH   6   8
ENDBRANCH   1   2
BRANCH   1  16
ATOM     16  C   UNL     1      -1.145   3.475   0.026  0.00  0.00    +0.258 C 
BRANCH  16  17
ATOM     17  C   UNL     1      -2.566   4.042   0.036  0.00  0.00    +0.135 C 
BRANCH  17  18
ATOM     18  O   UNL     1      -3.226   3.696  -1.184  0.00  0.00    -0.390 OA
ATOM     19  H   UNL     1      -2.788   4.036  -1.977  0.00  0.00    +0.210 HD
ENDBRANCH  17  18
BRANCH  17  20
ATOM     20  C   UNL     1      -2.507   5.565   0.170  0.00  0.00    -0.044 C 
BRANCH  20  22
ATOM     21  C   UNL     1      -4.489   5.661   1.558  0.00  0.00    -0.096 C 
ATOM     22  N   UNL     1      -3.885   6.088   0.278  0.00  0.00    +0.381 N 
ATOM     23  H   UNL     1      -4.446   5.714  -0.496  0.00  0.00    -0.082 HD
BRANCH  22  24
ATOM     24  C   UNL     1      -3.873   7.564   0.193  0.00  0.00    -0.069 C 
ATOM     25  C   UNL     1      -3.109   8.164   1.374  0.00  0.00    -0.015 C 
ATOM     26  C   UNL     1      -3.113   9.690   1.263  0.00  0.00    -0.002 C 
ATOM     27  C   UNL     1      -4.556  10.198   1.277  0.00  0.00    -0.000 C 
ATOM     28  C   UNL     1      -5.321   9.598   0.095  0.00  0.00    -0.002 C 
ATOM     29  C   UNL     1      -5.316   8.072   0.207  0.00  0.00    -0.015 C 
ENDBRANCH  22  24
ENDBRANCH  20  22
ENDBRANCH  17  20
ENDBRANCH  16  17
ENDBRANCH   1  16
TORSDOF 10
