REMARK  Name = ZINC15417255
REMARK  8 active torsions:
REMARK  status: ('A' for Active; 'I' for Inactive)
REMARK    1  A    between atoms: C_1  and  C_2
REMARK    2  A    between atoms: C_4  and  S_24
REMARK    3  A    between atoms: C_6  and  N_9
REMARK    4  A    between atoms: C_7  and  C_8
REMARK    5  A    between atoms: C_10  and  C_12
REMARK    6  A    between atoms: C_12  and  N_13
REMARK    7  A    between atoms: C_21  and  C_23
REMARK    8  A    between atoms: S_24  and  N_27
REMARK                            x       y       z     vdW  Elec       q    Type
REMARK                         _______ _______ _______ _____ _____    ______ ____
ROOT
ATOM      1  N   UNL     1       0.052  -2.797   2.393  0.00  0.00    -0.287 N 
ATOM      2  C   UNL     1      -0.031  -4.143   2.385  0.00  0.00    +0.201 C 
ATOM      3  O   UNL     1      -0.028  -4.745   1.333  0.00  0.00    -0.278 OA
ATOM      4  H   UNL     1       0.130  -2.321   3.234  0.00  0.00    +0.155 HD
ENDROOT
BRANCH   1  10
ATOM      5  C   UNL     1       1.206   1.236  -0.172  0.00  0.00    +0.044 C 
ATOM      6  C   UNL     1       0.577  -0.131  -0.084  0.00  0.00    -0.044 A 
ATOM      7  C   UNL     1      -0.027  -0.686  -1.198  0.00  0.00    +0.032 A 
ATOM      8  C   UNL     1      -0.605  -1.940  -1.122  0.00  0.00    +0.107 A 
ATOM      9  C   UNL     1      -0.580  -2.642   0.067  0.00  0.00    +0.052 A 
ATOM     10  C   UNL     1       0.026  -2.088   1.187  0.00  0.00    +0.038 A 
ATOM     11  C   UNL     1       0.610  -0.831   1.106  0.00  0.00    -0.026 A 
ATOM     12  C   UNL     1       1.274  -0.228   2.317  0.00  0.00    +0.046 C 
BRANCH   8  13
ATOM     13  S   UNL     1      -1.374  -2.642  -2.544  0.00  0.00    +0.056 S 
ATOM     14  O   UNL     1      -2.317  -3.591  -2.067  0.00  0.00    -0.153 OA
ATOM     15  O   UNL     1      -1.743  -1.556  -3.383  0.00  0.00    -0.153 OA
BRANCH  13  16
ATOM     16  N   UNL     1      -0.212  -3.496  -3.357  0.00  0.00    -0.204 NA
ATOM     17  H   UNL     1       0.695  -3.530  -3.014  0.00  0.00    +0.144 HD
ATOM     18  H   UNL     1      -0.438  -3.962  -4.177  0.00  0.00    +0.144 HD
ENDBRANCH  13  16
ENDBRANCH   8  13
ENDBRANCH   1  10
BRANCH   2  19
ATOM     19  C   UNL     1      -0.129  -4.898   3.686  0.00  0.00    +0.020 C 
BRANCH  19  20
ATOM     20  N   UNL     1      -0.208  -6.339   3.410  0.00  0.00    +0.392 N 
ATOM     21  C   UNL     1      -1.452  -6.629   2.685  0.00  0.00    -0.055 C 
ATOM     22  C   UNL     1      -1.404  -8.053   2.117  0.00  0.00    +0.103 C 
ATOM     23  N   UNL     1      -1.029  -8.964   3.206  0.00  0.00    -0.354 N 
ATOM     24  C   UNL     1      -1.153 -10.314   3.252  0.00  0.00    +0.086 A 
ATOM     25  C   UNL     1      -0.687 -10.739   4.447  0.00  0.00    +0.019 A 
ATOM     26  C   UNL     1      -0.258  -9.602   5.163  0.00  0.00    +0.021 A 
ATOM     27  C   UNL     1      -0.475  -8.533   4.383  0.00  0.00    +0.005 A 
ATOM     28  C   UNL     1      -0.182  -7.083   4.681  0.00  0.00    -0.023 C 
ATOM     29  C   UNL     1       1.201  -6.957   5.324  0.00  0.00    -0.007 C 
ATOM     30  H   UNL     1       0.580  -6.615   2.843  0.00  0.00    -0.080 HD
ENDBRANCH  19  20
ENDBRANCH   2  19
TORSDOF 5
