REMARK  Name = ZINC16461834
REMARK  7 active torsions:
REMARK  status: ('A' for Active; 'I' for Inactive)
REMARK    1  A    between atoms: C_3  and  C_6
REMARK    2  A    between atoms: C_9  and  S_19
REMARK    3  A    between atoms: N_10  and  C_11
REMARK    4  A    between atoms: S_19  and  C_20
REMARK    5  A    between atoms: C_20  and  C_21
REMARK    6  A    between atoms: C_23  and  C_26
REMARK    7  A    between atoms: N_28  and  C_29
REMARK                            x       y       z     vdW  Elec       q    Type
REMARK                         _______ _______ _______ _____ _____    ______ ____
ROOT
ATOM      1  C   UNL     1       1.214   1.747  -0.000  0.00  0.00    +0.205 A 
ATOM      2  N   UNL     1      -0.015   1.281   0.009  0.00  0.00    -0.125 NA
ATOM      3  N   UNL     1       0.002  -0.004   0.002  0.00  0.00    -0.122 NA
ATOM      4  C   UNL     1       1.241  -0.441  -0.012  0.00  0.00    +0.197 A 
ATOM      5  N   UNL     1       2.059   0.657  -0.014  0.00  0.00    -0.266 N 
ENDROOT
BRANCH   5   6
ATOM      6  C   UNL     1       3.461   0.670  -0.027  0.00  0.00    +0.070 A 
ATOM      7  C   UNL     1       4.145   0.678  -1.235  0.00  0.00    +0.047 A 
ATOM      8  C   UNL     1       5.527   0.696  -1.245  0.00  0.00    +0.043 A 
ATOM      9  C   UNL     1       6.229   0.696  -0.052  0.00  0.00    +0.021 A 
ATOM     10  C   UNL     1       5.551   0.683   1.152  0.00  0.00    +0.023 A 
ATOM     11  C   UNL     1       4.168   0.670   1.168  0.00  0.00    +0.065 A 
ATOM     12 CL   UNL     1       3.317   0.652   2.681  0.00  0.00    -0.081 Cl
ATOM     13 CL   UNL     1       6.383   0.713  -2.755  0.00  0.00    -0.083 Cl
ENDBRANCH   5   6
BRANCH   1  16
ATOM     14  C   UNL     1       1.598   5.380   0.182  0.00  0.00    +0.042 A 
ATOM     15  C   UNL     1       0.806   4.221   0.298  0.00  0.00    +0.053 A 
ATOM     16  C   UNL     1       1.613   3.163   0.004  0.00  0.00    +0.172 A 
ATOM     17  O   UNL     1       2.839   3.641  -0.289  0.00  0.00    -0.460 OA
ATOM     18  C   UNL     1       2.833   4.980  -0.182  0.00  0.00    +0.196 A 
ENDBRANCH   1  16
BRANCH   4  19
ATOM     19  S   UNL     1       1.755  -2.127  -0.027  0.00  0.00    -0.079 S 
BRANCH  19  20
ATOM     20  C   UNL     1       0.141  -2.947  -0.016  0.00  0.00    +0.140 C 
BRANCH  20  21
ATOM     21  C   UNL     1       0.337  -4.441  -0.027  0.00  0.00    +0.089 A 
ATOM     22  N   UNL     1       0.459  -5.255   0.989  0.00  0.00    -0.239 NA
ATOM     23  C   UNL     1       0.624  -6.562   0.779  0.00  0.00    +0.133 A 
ATOM     24  C   UNL     1       0.669  -6.995  -0.522  0.00  0.00    +0.080 A 
ATOM     25  S   UNL     1       0.465  -5.506  -1.389  0.00  0.00    -0.079 S 
BRANCH  23  26
ATOM     26  C   UNL     1       0.758  -7.505   1.903  0.00  0.00    +0.263 C 
ATOM     27  O   UNL     1       0.912  -8.692   1.685  0.00  0.00    -0.269 OA
ATOM     28  N   UNL     1       0.710  -7.053   3.171  0.00  0.00    -0.307 N 
ATOM     29  H   UNL     1       0.587  -6.107   3.345  0.00  0.00    +0.149 HD
BRANCH  28  30
ATOM     30  C   UNL     1       0.843  -7.991   4.289  0.00  0.00    +0.073 C 
ATOM     31  C   UNL     1      -0.115  -7.824   5.470  0.00  0.00    +0.024 C 
ATOM     32  C   UNL     1       1.359  -7.437   5.618  0.00  0.00    +0.024 C 
ENDBRANCH  28  30
ENDBRANCH  23  26
ENDBRANCH  20  21
ENDBRANCH  19  20
ENDBRANCH   4  19
TORSDOF 7
