REMARK  Name = ZINC34905276
REMARK  9 active torsions:
REMARK  status: ('A' for Active; 'I' for Inactive)
REMARK    1  A    between atoms: C_1  and  C_2
REMARK    2  A    between atoms: C_5  and  O_8
REMARK    3  A    between atoms: O_8  and  C_9
REMARK    4  A    between atoms: C_9  and  C_10
REMARK    5  A    between atoms: C_12  and  C_15
REMARK    6  A    between atoms: N_17  and  C_18
REMARK    7  A    between atoms: C_24  and  N_26
REMARK    8  A    between atoms: C_27  and  C_29
REMARK    9  A    between atoms: C_32  and  N_35
REMARK                            x       y       z     vdW  Elec       q    Type
REMARK                         _______ _______ _______ _____ _____    ______ ____
ROOT
ATOM      1  C   UNL     1       4.408  -9.844   0.544  0.00  0.00    +0.093 C 
ATOM      2  C   UNL     1       4.708 -10.073  -0.939  0.00  0.00    +0.024 C 
ATOM      3  C   UNL     1       5.863 -11.067  -1.078  0.00  0.00    +0.002 C 
ATOM      4  C   UNL     1       7.106 -10.504  -0.387  0.00  0.00    +0.002 C 
ATOM      5  C   UNL     1       6.807 -10.275   1.095  0.00  0.00    +0.024 C 
ATOM      6  C   UNL     1       5.652  -9.281   1.235  0.00  0.00    +0.093 C 
ENDROOT
BRANCH   1   9
ATOM      7  C   UNL     1       2.028  -9.327   0.620  0.00  0.00    +0.263 C 
ATOM      8  O   UNL     1       1.796 -10.510   0.457  0.00  0.00    -0.269 OA
ATOM      9  N   UNL     1       3.303  -8.892   0.677  0.00  0.00    -0.305 N 
ATOM     10  H   UNL     1       3.488  -7.949   0.807  0.00  0.00    +0.149 HD
BRANCH   7  13
ATOM     11  C   UNL     1       0.090  -6.277   1.043  0.00  0.00    +0.116 A 
ATOM     12  N   UNL     1       1.127  -7.062   0.933  0.00  0.00    -0.236 NA
ATOM     13  C   UNL     1       0.917  -8.370   0.754  0.00  0.00    +0.133 A 
ATOM     14  C   UNL     1      -0.392  -8.768   0.702  0.00  0.00    +0.080 A 
ATOM     15  S   UNL     1      -1.219  -7.320   0.909  0.00  0.00    -0.076 S 
BRANCH  11  16
ATOM     16  C   UNL     1       0.072  -4.785   1.249  0.00  0.00    +0.291 C 
BRANCH  16  17
ATOM     17  O   UNL     1       0.057  -4.129  -0.021  0.00  0.00    -0.485 OA
BRANCH  17  22
ATOM     18  C   UNL     1      -0.018   1.503   0.010  0.00  0.00    +0.044 C 
ATOM     19  C   UNL     1       0.002  -0.004   0.002  0.00  0.00    -0.050 A 
ATOM     20  C   UNL     1       0.006  -0.688  -1.200  0.00  0.00    +0.007 A 
ATOM     21  C   UNL     1       0.024  -2.069  -1.210  0.00  0.00    +0.046 A 
ATOM     22  C   UNL     1       0.039  -2.770  -0.013  0.00  0.00    +0.121 A 
ATOM     23  C   UNL     1       0.036  -2.082   1.191  0.00  0.00    +0.046 A 
ATOM     24  C   UNL     1       0.023  -0.701   1.196  0.00  0.00    +0.007 A 
ENDBRANCH  17  22
ENDBRANCH  16  17
ENDBRANCH  11  16
ENDBRANCH   7  13
ENDBRANCH   1   9
BRANCH   6  25
ATOM     25  N   UNL     1       6.024  -8.009   0.610  0.00  0.00    -0.307 N 
ATOM     26  C   UNL     1       6.725  -7.094   1.308  0.00  0.00    +0.244 C 
ATOM     27  O   UNL     1       7.049  -7.324   2.457  0.00  0.00    -0.270 OA
ATOM     28  H   UNL     1       5.766  -7.825  -0.307  0.00  0.00    +0.149 HD
BRANCH  26  29
ATOM     29  C   UNL     1       7.101  -5.811   0.677  0.00  0.00    +0.037 A 
ATOM     30  C   UNL     1       6.726  -5.542  -0.640  0.00  0.00    +0.015 A 
ATOM     31  C   UNL     1       7.079  -4.342  -1.222  0.00  0.00    +0.033 A 
ATOM     32  C   UNL     1       7.804  -3.407  -0.504  0.00  0.00    +0.126 A 
ATOM     33  C   UNL     1       8.179  -3.669   0.801  0.00  0.00    +0.033 A 
ATOM     34  C   UNL     1       7.827  -4.862   1.398  0.00  0.00    +0.015 A 
BRANCH  32  35
ATOM     35  N   UNL     1       8.180  -2.123  -1.136  0.00  0.00    +0.056 N 
ATOM     36  O   UNL     1       7.854  -1.892  -2.277  0.00  0.00    -0.126 OA
ATOM     37  O   UNL     1       8.813  -1.304  -0.511  0.00  0.00    -0.126 OA
ENDBRANCH  32  35
ENDBRANCH  26  29
ENDBRANCH   6  25
TORSDOF 8
