REMARK  Name = ZINC27229159
REMARK  7 active torsions:
REMARK  status: ('A' for Active; 'I' for Inactive)
REMARK    1  A    between atoms: C_1  and  C_2
REMARK    2  A    between atoms: C_2  and  O_3
REMARK    3  A    between atoms: O_3  and  C_4
REMARK    4  A    between atoms: C_6  and  C_11
REMARK    5  A    between atoms: C_9  and  O_10
REMARK    6  A    between atoms: N_17  and  C_18
REMARK    7  A    between atoms: C_22  and  C_24
REMARK                            x       y       z     vdW  Elec       q    Type
REMARK                         _______ _______ _______ _____ _____    ______ ____
ROOT
ATOM      1  C   UNL     1       2.034   4.032   0.004  0.00  0.00    +0.028 C 
ATOM      2  C   UNL     1       1.064   3.126  -0.280  0.00  0.00    +0.078 C 
ATOM      3  C   UNL     1       1.192   1.714  -0.689  0.00  0.00    +0.256 C 
ATOM      4  O   UNL     1       2.281   1.186  -0.819  0.00  0.00    -0.269 OA
ATOM      5  N   UNL     1       0.071   1.049  -0.906  0.00  0.00    -0.260 N 
ATOM      6  C   UNL     1      -1.153   1.666  -0.758  0.00  0.00    +0.166 C 
ATOM      7  N   UNL     1      -2.351   1.158  -0.938  0.00  0.00    -0.226 NA
ATOM      8  S   UNL     1      -0.712   3.323  -0.260  0.00  0.00    -0.049 S 
ATOM      9  H   UNL     1       0.108  -0.008  -1.209  0.00  0.00    +0.157 HD
ENDROOT
BRANCH   7  10
ATOM     10  C   UNL     1      -3.460   1.935  -0.740  0.00  0.00    +0.067 A 
ATOM     11  C   UNL     1      -3.553   2.751   0.390  0.00  0.00    +0.029 A 
ATOM     12  C   UNL     1      -4.671   3.536   0.581  0.00  0.00    +0.022 A 
ATOM     13  C   UNL     1      -5.705   3.508  -0.339  0.00  0.00    +0.053 A 
ATOM     14  C   UNL     1      -5.622   2.697  -1.459  0.00  0.00    +0.075 A 
ATOM     15  C   UNL     1      -4.507   1.911  -1.664  0.00  0.00    +0.041 A 
ATOM     16 CL   UNL     1      -7.112   4.494  -0.089  0.00  0.00    -0.083 Cl
BRANCH  14  17
ATOM     17  C   UNL     1      -6.753   2.672  -2.455  0.00  0.00    +0.419 C 
ATOM     18  F   UNL     1      -6.442   1.786  -3.491  0.00  0.00    -0.166 F 
ATOM     19  F   UNL     1      -7.926   2.253  -1.818  0.00  0.00    -0.166 F 
ATOM     20  F   UNL     1      -6.940   3.956  -2.979  0.00  0.00    -0.166 F 
ENDBRANCH  14  17
ENDBRANCH   7  10
BRANCH   1  23
ATOM     21  C   UNL     1       5.770   4.005  -0.321  0.00  0.00    +0.162 A 
ATOM     22  C   UNL     1       4.455   4.415  -0.413  0.00  0.00    +0.057 A 
ATOM     23  C   UNL     1       3.435   3.603   0.098  0.00  0.00    -0.020 A 
ATOM     24  C   UNL     1       3.756   2.382   0.704  0.00  0.00    +0.012 A 
ATOM     25  C   UNL     1       5.071   1.980   0.788  0.00  0.00    +0.050 A 
ATOM     26  C   UNL     1       6.081   2.786   0.280  0.00  0.00    +0.158 A 
BRANCH  26  27
ATOM     27  O   UNL     1       7.376   2.386   0.370  0.00  0.00    -0.503 OA
ATOM     28  H   UNL     1       7.623   1.425   0.844  0.00  0.00    +0.292 HD
ENDBRANCH  26  27
BRANCH  21  29
ATOM     29  O   UNL     1       6.763   4.792  -0.816  0.00  0.00    -0.489 OA
BRANCH  29  31
ATOM     30  C   UNL     1       7.617   6.769  -1.912  0.00  0.00    +0.048 C 
ATOM     31  C   UNL     1       6.373   6.028  -1.417  0.00  0.00    +0.226 C 
ENDBRANCH  29  31
ENDBRANCH  21  29
ENDBRANCH   1  23
TORSDOF 6
