REMARK  Name = ZINC06848297
REMARK  7 active torsions:
REMARK  status: ('A' for Active; 'I' for Inactive)
REMARK    1  A    between atoms: C_1  and  C_2
REMARK    2  A    between atoms: C_8  and  C_12
REMARK    3  A    between atoms: C_8  and  O_28
REMARK    4  A    between atoms: C_13  and  C_27
REMARK    5  A    between atoms: N_15  and  C_18
REMARK    6  A    between atoms: C_16  and  N_17
REMARK    7  A    between atoms: C_21  and  N_24
REMARK                            x       y       z     vdW  Elec       q    Type
REMARK                         _______ _______ _______ _____ _____    ______ ____
ROOT
ATOM      1  C   UNL     1      -1.403  -0.550   0.013  0.00  0.00    +0.060 A 
ATOM      2  C   UNL     1      -1.801  -1.806  -0.455  0.00  0.00    +0.069 A 
ATOM      3  N   UNL     1      -3.093  -1.923  -0.281  0.00  0.00    -0.170 NA
ATOM      4  N   UNL     1      -3.569  -0.743   0.306  0.00  0.00    -0.218 N 
ATOM      5  C   UNL     1      -2.508   0.090   0.484  0.00  0.00    +0.127 A 
ATOM      6  C   UNL     1      -0.896  -2.849  -1.058  0.00  0.00    +0.068 C 
ENDROOT
BRANCH   1  14
ATOM      7  C   UNL     1       1.246  -0.843  -4.925  0.00  0.00    +0.044 C 
ATOM      8  C   UNL     1       1.454  -0.982  -3.439  0.00  0.00    -0.050 A 
ATOM      9  C   UNL     1       2.528  -1.705  -2.954  0.00  0.00    +0.005 A 
ATOM     10  C   UNL     1       2.725  -1.837  -1.595  0.00  0.00    +0.024 A 
ATOM     11  C   UNL     1       1.839  -1.240  -0.700  0.00  0.00    +0.040 A 
ATOM     12  C   UNL     1       0.760  -0.517  -1.201  0.00  0.00    +0.019 A 
ATOM     13  C   UNL     1       0.570  -0.386  -2.555  0.00  0.00    +0.012 A 
ATOM     14  C   UNL     1       0.002  -0.004   0.002  0.00  0.00    +0.199 C 
ATOM     15  C   UNL     1       0.785  -0.530   1.186  0.00  0.00    +0.258 C 
ATOM     16  O   UNL     1       0.524  -0.354   2.358  0.00  0.00    -0.272 OA
ATOM     17  N   UNL     1       1.822  -1.229   0.696  0.00  0.00    -0.282 N 
ATOM     18  H   UNL     1       2.484  -1.674   1.248  0.00  0.00    +0.155 HD
BRANCH  14  19
ATOM     19  O   UNL     1      -0.017   1.425   0.010  0.00  0.00    -0.371 OA
ATOM     20  H   UNL     1       0.861   1.830   0.004  0.00  0.00    +0.212 HD
ENDBRANCH  14  19
ENDBRANCH   1  14
BRANCH   4  21
ATOM     21  C   UNL     1      -4.900  -0.472   0.653  0.00  0.00    +0.068 A 
ATOM     22  C   UNL     1      -5.184   0.277   1.787  0.00  0.00    +0.030 A 
ATOM     23  C   UNL     1      -6.496   0.546   2.124  0.00  0.00    +0.035 A 
ATOM     24  C   UNL     1      -7.526   0.062   1.339  0.00  0.00    +0.126 A 
ATOM     25  C   UNL     1      -7.246  -0.689   0.212  0.00  0.00    +0.035 A 
ATOM     26  C   UNL     1      -5.936  -0.957  -0.133  0.00  0.00    +0.030 A 
BRANCH  24  27
ATOM     27  N   UNL     1      -8.932   0.348   1.706  0.00  0.00    +0.056 N 
ATOM     28  O   UNL     1      -9.840  -0.078   1.015  0.00  0.00    -0.126 OA
ATOM     29  O   UNL     1      -9.180   1.009   2.698  0.00  0.00    -0.126 OA
ENDBRANCH  24  27
ENDBRANCH   4  21
BRANCH   5  30
ATOM     30  N   UNL     1      -2.546   1.364   1.044  0.00  0.00    -0.343 N 
ATOM     31  H   UNL     1      -1.730   1.882   1.126  0.00  0.00    +0.144 HD
ATOM     32  H   UNL     1      -3.388   1.733   1.352  0.00  0.00    +0.144 HD
ENDBRANCH   5  30
TORSDOF 5
