REMARK  Name = ZINC36055664
REMARK  14 active torsions:
REMARK  status: ('A' for Active; 'I' for Inactive)
REMARK    1  A    between atoms: C_1  and  C_2
REMARK    2  A    between atoms: C_2  and  C_3
REMARK    3  A    between atoms: C_3  and  C_4
REMARK    4  A    between atoms: C_4  and  O_34
REMARK    5  A    between atoms: C_5  and  C_33
REMARK    6  A    between atoms: C_7  and  C_24
REMARK    7  A    between atoms: C_10  and  C_15
REMARK    8  A    between atoms: C_12  and  C_14
REMARK    9  A    between atoms: C_18  and  N_21
REMARK   10  A    between atoms: N_21  and  C_22
REMARK   11  A    between atoms: N_21  and  C_23
REMARK   12  A    between atoms: C_27  and  N_30
REMARK   13  A    between atoms: N_30  and  C_31
REMARK   14  A    between atoms: N_30  and  C_32
REMARK                            x       y       z     vdW  Elec       q    Type
REMARK                         _______ _______ _______ _____ _____    ______ ____
ROOT
ATOM      1  C   UNL     1       0.485  -1.922   0.846  0.00  0.00    +0.069 C 
ATOM      2  C   UNL     1      -0.818  -2.688   0.680  0.00  0.00    +0.008 C 
ATOM      3  C   UNL     1      -0.706  -4.137   1.134  0.00  0.00    -0.034 C 
ATOM      4  N   UNL     1      -0.164  -4.223   2.492  0.00  0.00    +0.389 N 
ATOM      5  C   UNL     1       1.201  -3.693   2.507  0.00  0.00    -0.034 C 
ATOM      6  C   UNL     1       1.218  -2.214   2.146  0.00  0.00    +0.008 C 
ATOM      7  C   UNL     1       0.672  -1.369   3.296  0.00  0.00    +0.009 C 
ATOM      8  C   UNL     1      -1.972  -1.985   1.393  0.00  0.00    +0.009 C 
ATOM      9  H   UNL     1      -0.747  -3.731   3.143  0.00  0.00    -0.084 HD
ATOM     10  H   UNL     1      -0.136  -5.201   2.769  0.00  0.00    -0.084 HD
ENDROOT
BRANCH   5  11
ATOM     11  C   UNL     1       1.791  -3.882   3.881  0.00  0.00    -0.061 A 
ATOM     12  C   UNL     1       1.009  -3.676   5.003  0.00  0.00    +0.004 A 
ATOM     13  C   UNL     1       1.546  -3.848   6.263  0.00  0.00    +0.023 A 
ATOM     14  C   UNL     1       2.875  -4.229   6.404  0.00  0.00    +0.029 A 
ATOM     15  C   UNL     1       3.658  -4.434   5.275  0.00  0.00    +0.023 A 
ATOM     16  C   UNL     1       3.113  -4.266   4.018  0.00  0.00    +0.004 A 
BRANCH  14  17
ATOM     17  N   UNL     1       3.422  -4.403   7.677  0.00  0.00    -0.336 N 
ATOM     18  C   UNL     1       2.594  -4.185   8.866  0.00  0.00    +0.129 C 
ATOM     19  C   UNL     1       4.823  -4.804   7.823  0.00  0.00    +0.129 C 
ENDBRANCH  14  17
ENDBRANCH   5  11
BRANCH   3  20
ATOM     20  C   UNL     1      -2.068  -4.781   1.101  0.00  0.00    -0.061 A 
ATOM     21  C   UNL     1      -2.962  -4.558   2.132  0.00  0.00    +0.004 A 
ATOM     22  C   UNL     1      -4.211  -5.146   2.105  0.00  0.00    +0.023 A 
ATOM     23  C   UNL     1      -4.569  -5.964   1.041  0.00  0.00    +0.029 A 
ATOM     24  C   UNL     1      -3.669  -6.186   0.006  0.00  0.00    +0.023 A 
ATOM     25  C   UNL     1      -2.423  -5.590   0.037  0.00  0.00    +0.004 A 
BRANCH  23  26
ATOM     26  N   UNL     1      -5.831  -6.561   1.010  0.00  0.00    -0.336 N 
ATOM     27  C   UNL     1      -6.742  -6.408   2.148  0.00  0.00    +0.129 C 
ATOM     28  C   UNL     1      -6.245  -7.341  -0.159  0.00  0.00    +0.129 C 
ENDBRANCH  23  26
ENDBRANCH   3  20
BRANCH   1  29
ATOM     29  O   UNL     1       1.353  -2.248  -0.255  0.00  0.00    -0.388 OA
ATOM     30  H   UNL     1       0.975  -2.057  -1.124  0.00  0.00    +0.210 HD
ENDBRANCH   1  29
BRANCH   1  31
ATOM     31  C   UNL     1       0.187  -0.414   0.773  0.00  0.00    +0.035 C 
BRANCH  31  33
ATOM     32  C   UNL     1       1.211   1.859   0.606  0.00  0.00    +0.004 C 
ATOM     33  C   UNL     1       1.502   0.368   0.785  0.00  0.00    -0.001 C 
ENDBRANCH  31  33
ENDBRANCH   1  31
TORSDOF 7
