REMARK  Name = ZINC09353064
REMARK  13 active torsions:
REMARK  status: ('A' for Active; 'I' for Inactive)
REMARK    1  A    between atoms: C_1  and  N_61
REMARK    2  A    between atoms: C_2  and  N_61
REMARK    3  A    between atoms: C_3  and  C_4
REMARK    4  A    between atoms: C_3  and  N_61
REMARK    5  A    between atoms: C_4  and  C_5
REMARK    6  A    between atoms: C_5  and  N_6
REMARK    7  A    between atoms: C_7  and  C_26
REMARK    8  A    between atoms: C_10  and  C_11
REMARK    9  A    between atoms: C_10  and  O_21
REMARK   10  A    between atoms: C_14  and  O_17
REMARK   11  A    between atoms: O_17  and  C_18
REMARK   12  A    between atoms: C_18  and  C_19
REMARK   13  A    between atoms: C_30  and  N_32
REMARK                            x       y       z     vdW  Elec       q    Type
REMARK                         _______ _______ _______ _____ _____    ______ ____
ROOT
ATOM      1  N   UNL     1      -1.525   5.201  -0.624  0.00  0.00    -0.284 N 
ATOM      2  C   UNL     1      -0.269   5.065   0.121  0.00  0.00    +0.145 C 
ATOM      3  C   UNL     1      -0.539   5.573   1.518  0.00  0.00    +0.071 C 
ATOM      4  C   UNL     1       0.359   5.633   2.567  0.00  0.00    +0.133 C 
ATOM      5  C   UNL     1      -1.884   5.969   1.537  0.00  0.00    +0.249 C 
ATOM      6  O   UNL     1      -2.478   6.435   2.493  0.00  0.00    -0.282 OA
ATOM      7  C   UNL     1      -2.460   5.722   0.188  0.00  0.00    +0.288 C 
ATOM      8  O   UNL     1      -3.607   5.956  -0.133  0.00  0.00    -0.266 OA
ENDROOT
BRANCH   4   9
ATOM      9  C   UNL     1      -0.023   6.292   3.825  0.00  0.00    +0.017 A 
ATOM     10  C   UNL     1      -0.555   7.587   3.808  0.00  0.00    +0.015 A 
ATOM     11  C   UNL     1      -0.915   8.196   4.987  0.00  0.00    +0.046 A 
ATOM     12  C   UNL     1      -0.743   7.532   6.197  0.00  0.00    +0.121 A 
ATOM     13  C   UNL     1      -0.210   6.247   6.221  0.00  0.00    +0.046 A 
ATOM     14  C   UNL     1       0.148   5.627   5.046  0.00  0.00    +0.015 A 
BRANCH  12  15
ATOM     15  O   UNL     1      -1.095   8.139   7.358  0.00  0.00    -0.488 OA
BRANCH  15  16
ATOM     16  C   UNL     1      -1.636   9.459   7.262  0.00  0.00    +0.256 C 
BRANCH  16  17
ATOM     17  C   UNL     1      -1.967   9.967   8.642  0.00  0.00    +0.006 C 
ATOM     18  C   UNL     1      -1.632  11.186   8.988  0.00  0.00    +0.007 C 
ENDBRANCH  16  17
ENDBRANCH  15  16
ENDBRANCH  12  15
ENDBRANCH   4   9
BRANCH   2  19
ATOM     19  C   UNL     1       0.148   3.618   0.169  0.00  0.00    -0.020 A 
ATOM     20  C   UNL     1      -0.801   2.631   0.357  0.00  0.00    +0.006 A 
ATOM     21  C   UNL     1      -0.418   1.303   0.397  0.00  0.00    +0.003 A 
ATOM     22  C   UNL     1       0.915   0.963   0.256  0.00  0.00    +0.033 A 
ATOM     23  C   UNL     1       1.863   1.950   0.067  0.00  0.00    +0.127 A 
ATOM     24  C   UNL     1       1.480   3.278   0.023  0.00  0.00    +0.038 A 
BRANCH  23  25
ATOM     25  N   UNL     1       3.290   1.586  -0.089  0.00  0.00    +0.056 N 
ATOM     26  O   UNL     1       3.627   0.417  -0.051  0.00  0.00    -0.126 OA
ATOM     27  O   UNL     1       4.125   2.456  -0.256  0.00  0.00    -0.126 OA
ENDBRANCH  23  25
ENDBRANCH   2  19
BRANCH   4  28
ATOM     28  O   UNL     1       1.588   5.088   2.436  0.00  0.00    -0.506 OA
ATOM     29  H   UNL     1       2.103   5.221   3.282  0.00  0.00    +0.292 HD
ENDBRANCH   4  28
BRANCH   1  30
ATOM     30  C   UNL     1      -1.727   4.829  -2.026  0.00  0.00    +0.107 C 
BRANCH  30  31
ATOM     31  C   UNL     1      -2.183   3.371  -2.107  0.00  0.00    +0.000 C 
BRANCH  31  32
ATOM     32  C   UNL     1      -2.394   2.982  -3.572  0.00  0.00    -0.078 C 
BRANCH  32  35
ATOM     33  C   UNL     1      -4.161   1.413  -3.047  0.00  0.00    -0.097 C 
ATOM     34  C   UNL     1      -2.816   1.102  -5.037  0.00  0.00    -0.097 C 
ATOM     35  N   UNL     1      -2.813   1.566  -3.634  0.00  0.00    +0.376 N 
ATOM     36  H   UNL     1      -2.148   0.998  -3.096  0.00  0.00    -0.083 HD
ENDBRANCH  32  35
ENDBRANCH  31  32
ENDBRANCH  30  31
ENDBRANCH   1  30
TORSDOF 11
