REMARK  Name = ZINC49512470
REMARK  6 active torsions:
REMARK  status: ('A' for Active; 'I' for Inactive)
REMARK    1  A    between atoms: C_6  and  N_7
REMARK    2  A    between atoms: N_10  and  C_13
REMARK    3  A    between atoms: C_13  and  C_14
REMARK    4  A    between atoms: C_14  and  N_15
REMARK    5  A    between atoms: N_15  and  S_16
REMARK    6  A    between atoms: S_16  and  C_19
REMARK                            x       y       z     vdW  Elec       q    Type
REMARK                         _______ _______ _______ _____ _____    ______ ____
ROOT
ATOM      1  N   UNL     1      -1.198  -0.721   0.010  0.00  0.00    -0.333 N 
ATOM      2  C   UNL     1      -2.491  -0.029   0.130  0.00  0.00    +0.086 C 
ATOM      3  C   UNL     1      -3.299  -0.701   1.246  0.00  0.00    -0.060 C 
ATOM      4  N   UNL     1      -3.404  -2.140   0.974  0.00  0.00    +0.383 N 
ATOM      5  C   UNL     1      -2.072  -2.757   1.024  0.00  0.00    -0.060 C 
ATOM      6  C   UNL     1      -1.204  -2.187  -0.108  0.00  0.00    +0.086 C 
ATOM      7  H   UNL     1      -3.804  -2.280   0.058  0.00  0.00    -0.082 HD
ENDROOT
BRANCH   1  13
ATOM      8  C   UNL     1       1.216  -0.679   0.001  0.00  0.00    +0.024 A 
ATOM      9  C   UNL     1       2.400   0.031  -0.008  0.00  0.00    +0.022 A 
ATOM     10  C   UNL     1       2.378   1.415  -0.014  0.00  0.00    +0.041 A 
ATOM     11  C   UNL     1       1.170   2.090  -0.013  0.00  0.00    +0.022 A 
ATOM     12  C   UNL     1      -0.017   1.385  -0.005  0.00  0.00    +0.024 A 
ATOM     13  C   UNL     1       0.002  -0.004   0.002  0.00  0.00    +0.030 A 
ATOM     14 CL   UNL     1       3.869   2.305  -0.025  0.00  0.00    -0.084 Cl
ENDBRANCH   1  13
BRANCH   4  15
ATOM     15  C   UNL     1      -4.269  -2.765   1.983  0.00  0.00    -0.062 C 
BRANCH  15  16
ATOM     16  C   UNL     1      -4.481  -4.239   1.631  0.00  0.00    +0.087 C 
BRANCH  16  17
ATOM     17  N   UNL     1      -5.345  -4.862   2.637  0.00  0.00    -0.191 NA
ATOM     18  H   UNL     1      -5.505  -4.415   3.483  0.00  0.00    +0.148 HD
BRANCH  17  19
ATOM     19  S   UNL     1      -6.046  -6.330   2.331  0.00  0.00    +0.065 S 
ATOM     20  O   UNL     1      -6.790  -6.675   3.492  0.00  0.00    -0.153 OA
ATOM     21  O   UNL     1      -6.642  -6.236   1.045  0.00  0.00    -0.153 OA
BRANCH  19  22
ATOM     22  C   UNL     1      -4.746  -7.512   2.198  0.00  0.00    +0.143 A 
ATOM     23  C   UNL     1      -4.182  -8.273   3.167  0.00  0.00    +0.037 A 
ATOM     24  C   UNL     1      -3.162  -9.143   2.828  0.00  0.00    +0.025 A 
ATOM     25  C   UNL     1      -2.756  -9.207   1.536  0.00  0.00    +0.057 A 
ATOM     26  S   UNL     1      -3.834  -8.021   0.750  0.00  0.00    -0.062 S 
ATOM     27 BR   UNL     1      -1.403 -10.281   0.764  0.00  0.00    -0.043 Br
ENDBRANCH  19  22
ENDBRANCH  17  19
ENDBRANCH  16  17
ENDBRANCH  15  16
ENDBRANCH   4  15
TORSDOF 6
