REMARK  Name = ZINC16611710
REMARK  9 active torsions:
REMARK  status: ('A' for Active; 'I' for Inactive)
REMARK    1  A    between atoms: C_1  and  C_2
REMARK    2  A    between atoms: C_2  and  C_3
REMARK    3  A    between atoms: C_3  and  N_4
REMARK    4  A    between atoms: C_17  and  S_19
REMARK    5  A    between atoms: S_19  and  C_20
REMARK    6  A    between atoms: C_20  and  C_21
REMARK    7  A    between atoms: C_25  and  C_34
REMARK    8  A    between atoms: C_30  and  C_32
REMARK    9  A    between atoms: C_30  and  C_33
REMARK                            x       y       z     vdW  Elec       q    Type
REMARK                         _______ _______ _______ _____ _____    ______ ____
ROOT
ATOM      1  N   UNL     1      -0.746   5.185  -2.071  0.00  0.00    -0.299 N 
ATOM      2  C   UNL     1      -0.519   3.859  -2.143  0.00  0.00    +0.302 C 
ATOM      3  O   UNL     1       0.023   3.388  -3.124  0.00  0.00    -0.253 OA
ATOM      4  N   UNL     1      -0.893   3.055  -1.128  0.00  0.00    -0.283 N 
ATOM      5  C   UNL     1      -0.759   1.594  -1.234  0.00  0.00    +0.128 C 
ATOM      6  C   UNL     1      -0.015   1.082   0.004  0.00  0.00    +0.125 C 
ATOM      7  N   UNL     1      -0.699   1.557   1.214  0.00  0.00    -0.312 N 
ATOM      8  C   UNL     1      -0.674   3.023   1.299  0.00  0.00    +0.125 C 
ATOM      9  C   UNL     1      -1.445   3.615   0.115  0.00  0.00    +0.128 C 
ATOM     10  C   UNL     1      -0.152   0.984   2.351  0.00  0.00    +0.127 A 
ATOM     11  C   UNL     1      -0.655   1.299   3.614  0.00  0.00    +0.083 A 
ATOM     12  C   UNL     1      -0.079   0.702   4.721  0.00  0.00    +0.135 A 
ATOM     13  N   UNL     1       0.927  -0.145   4.551  0.00  0.00    -0.210 NA
ATOM     14  C   UNL     1       1.383  -0.425   3.339  0.00  0.00    +0.192 A 
ATOM     15  N   UNL     1       0.855   0.122   2.253  0.00  0.00    -0.207 NA
ATOM     16 CL   UNL     1      -0.666   1.058   6.315  0.00  0.00    -0.062 Cl
ATOM     17  H   UNL     1      -1.112   5.571  -1.260  0.00  0.00    +0.150 HD
ENDROOT
BRANCH   1  18
ATOM     18  C   UNL     1      -0.440   6.045  -3.217  0.00  0.00    +0.105 C 
BRANCH  18  20
ATOM     19  C   UNL     1      -0.468   8.392  -4.072  0.00  0.00    +0.005 C 
ATOM     20  C   UNL     1      -0.788   7.495  -2.875  0.00  0.00    +0.015 C 
ENDBRANCH  18  20
ENDBRANCH   1  18
BRANCH  14  21
ATOM     21  S   UNL     1       2.722  -1.558   3.165  0.00  0.00    -0.077 S 
BRANCH  21  22
ATOM     22  C   UNL     1       3.013  -1.969   4.904  0.00  0.00    +0.173 C 
BRANCH  22  23
ATOM     23  C   UNL     1       4.150  -2.953   5.003  0.00  0.00    +0.226 C 
ATOM     24  O   UNL     1       4.708  -3.339   3.998  0.00  0.00    -0.275 OA
ATOM     25  N   UNL     1       4.546  -3.405   6.211  0.00  0.00    -0.297 N 
ATOM     26  C   UNL     1       3.948  -3.039   7.505  0.00  0.00    +0.114 C 
ATOM     27  C   UNL     1       4.796  -3.740   8.590  0.00  0.00    -0.014 C 
ATOM     28  C   UNL     1       5.301  -5.002   7.838  0.00  0.00    +0.030 C 
ATOM     29  C   UNL     1       5.637  -4.364   6.464  0.00  0.00    +0.077 C 
ATOM     30  C   UNL     1       6.957  -3.611   6.648  0.00  0.00    +0.029 C 
ATOM     31  C   UNL     1       6.874  -2.525   7.711  0.00  0.00    -0.033 C 
ATOM     32  C   UNL     1       6.015  -2.878   8.913  0.00  0.00    +0.014 C 
ATOM     33  C   UNL     1       8.316  -2.302   8.237  0.00  0.00    +0.011 C 
ATOM     34  C   UNL     1       6.429  -1.198   7.091  0.00  0.00    +0.011 C 
ATOM     35  C   UNL     1       3.971  -4.094   9.837  0.00  0.00    +0.013 C 
ENDBRANCH  22  23
ENDBRANCH  21  22
ENDBRANCH  14  21
TORSDOF 5
