REMARK  Name = ZINC41350589
REMARK  7 active torsions:
REMARK  status: ('A' for Active; 'I' for Inactive)
REMARK    1  A    between atoms: C_1  and  C_2
REMARK    2  A    between atoms: C_2  and  C_4
REMARK    3  A    between atoms: C_2  and  O_21
REMARK    4  A    between atoms: N_6  and  C_7
REMARK    5  A    between atoms: C_7  and  C_8
REMARK    6  A    between atoms: C_10  and  N_18
REMARK    7  A    between atoms: O_21  and  C_22
REMARK                            x       y       z     vdW  Elec       q    Type
REMARK                         _______ _______ _______ _____ _____    ______ ____
ROOT
ATOM      1  C   UNL     1       0.731  -0.503   1.223  0.00  0.00    +0.254 C 
ATOM      2  O   UNL     1       0.135  -1.137   2.068  0.00  0.00    -0.272 OA
ATOM      3  N   UNL     1       2.045  -0.246   1.375  0.00  0.00    -0.308 N 
ATOM      4  H   UNL     1       2.522   0.261   0.699  0.00  0.00    +0.149 HD
ENDROOT
BRANCH   1   6
ATOM      5  C   UNL     1      -0.019   1.526   0.010  0.00  0.00    +0.062 C 
ATOM      6  C   UNL     1       0.002  -0.004   0.002  0.00  0.00    +0.256 C 
BRANCH   6   7
ATOM      7  O   UNL     1      -1.339  -0.499   0.012  0.00  0.00    -0.474 OA
BRANCH   7   8
ATOM      8  C   UNL     1      -1.930  -0.706  -1.196  0.00  0.00    +0.198 A 
ATOM      9  C   UNL     1      -2.642   0.317  -1.805  0.00  0.00    +0.206 A 
ATOM     10  C   UNL     1      -3.243   0.105  -3.035  0.00  0.00    +0.200 A 
ATOM     11  C   UNL     1      -3.133  -1.128  -3.657  0.00  0.00    +0.199 A 
ATOM     12  C   UNL     1      -2.422  -2.151  -3.050  0.00  0.00    +0.200 A 
ATOM     13  C   UNL     1      -1.815  -1.939  -1.822  0.00  0.00    +0.206 A 
ATOM     14  F   UNL     1      -1.118  -2.935  -1.233  0.00  0.00    -0.198 F 
ATOM     15  F   UNL     1      -2.316  -3.353  -3.657  0.00  0.00    -0.199 F 
ATOM     16  F   UNL     1      -3.720  -1.334  -4.857  0.00  0.00    -0.199 F 
ATOM     17  F   UNL     1      -3.938   1.101  -3.628  0.00  0.00    -0.199 F 
ATOM     18  F   UNL     1      -2.750   1.520  -1.198  0.00  0.00    -0.198 F 
ENDBRANCH   7   8
ENDBRANCH   6   7
ENDBRANCH   1   6
BRANCH   3  19
ATOM     19  C   UNL     1       2.754  -0.731   2.562  0.00  0.00    +0.143 C 
BRANCH  19  20
ATOM     20  C   UNL     1       4.199  -0.312   2.490  0.00  0.00    +0.014 A 
ATOM     21  C   UNL     1       5.159  -1.212   2.069  0.00  0.00    +0.041 A 
ATOM     22  C   UNL     1       6.486  -0.829   2.004  0.00  0.00    +0.127 A 
ATOM     23  C   UNL     1       6.855   0.455   2.361  0.00  0.00    +0.042 A 
ATOM     24  C   UNL     1       5.899   1.358   2.784  0.00  0.00    +0.022 A 
ATOM     25  C   UNL     1       4.566   0.979   2.842  0.00  0.00    +0.134 A 
ATOM     26  O   UNL     1       3.613   1.863   3.242  0.00  0.00    -0.466 OA
ATOM     27  C   UNL     1       4.065   3.035   3.926  0.00  0.00    +0.394 C 
ATOM     28  O   UNL     1       5.156   3.602   3.191  0.00  0.00    -0.339 OA
ATOM     29  C   UNL     1       6.313   2.754   3.175  0.00  0.00    +0.202 C 
BRANCH  22  30
ATOM     30  N   UNL     1       7.512  -1.794   1.551  0.00  0.00    +0.056 N 
ATOM     31  O   UNL     1       7.191  -2.917   1.238  0.00  0.00    -0.126 OA
ATOM     32  O   UNL     1       8.673  -1.460   1.493  0.00  0.00    -0.126 OA
ENDBRANCH  22  30
ENDBRANCH  19  20
ENDBRANCH   3  19
TORSDOF 6
