REMARK  Name = ZINC43314118
REMARK  7 active torsions:
REMARK  status: ('A' for Active; 'I' for Inactive)
REMARK    1  A    between atoms: C_1  and  C_2
REMARK    2  A    between atoms: C_6  and  C_9
REMARK    3  A    between atoms: C_7  and  C_8
REMARK    4  A    between atoms: C_9  and  N_10
REMARK    5  A    between atoms: N_10  and  C_11
REMARK    6  A    between atoms: C_14  and  S_18
REMARK    7  A    between atoms: S_18  and  N_21
REMARK                            x       y       z     vdW  Elec       q    Type
REMARK                         _______ _______ _______ _____ _____    ______ ____
ROOT
ATOM      1  C   UNL     1      -1.540  -3.560   4.248  0.00  0.00    +0.042 A 
ATOM      2  C   UNL     1      -0.489  -4.156   4.933  0.00  0.00    +0.026 A 
ATOM      3  C   UNL     1      -0.726  -4.805   6.129  0.00  0.00    +0.030 A 
ATOM      4  C   UNL     1      -2.009  -4.863   6.644  0.00  0.00    +0.106 A 
ATOM      5  C   UNL     1      -3.057  -4.271   5.965  0.00  0.00    +0.045 A 
ATOM      6  C   UNL     1      -2.826  -3.615   4.770  0.00  0.00    +0.041 A 
ATOM      7 BR   UNL     1      -4.260  -2.799   3.845  0.00  0.00    -0.048 Br
ENDROOT
BRANCH   4   8
ATOM      8  S   UNL     1      -2.306  -5.693   8.169  0.00  0.00    +0.056 S 
ATOM      9  O   UNL     1      -3.675  -6.077   8.162  0.00  0.00    -0.153 OA
ATOM     10  O   UNL     1      -1.252  -6.632   8.333  0.00  0.00    -0.153 OA
BRANCH   8  11
ATOM     11  N   UNL     1      -2.135  -4.574   9.377  0.00  0.00    -0.204 NA
ATOM     12  H   UNL     1      -1.909  -3.656   9.160  0.00  0.00    +0.144 HD
ATOM     13  H   UNL     1      -2.260  -4.836  10.303  0.00  0.00    +0.144 HD
ENDBRANCH   8  11
ENDBRANCH   4   8
BRANCH   1  14
ATOM     14  N   UNL     1      -1.303  -2.901   3.038  0.00  0.00    -0.339 N 
ATOM     15  H   UNL     1      -2.037  -2.482   2.562  0.00  0.00    +0.146 HD
BRANCH  14  16
ATOM     16  C   UNL     1       0.054  -2.845   2.489  0.00  0.00    +0.137 C 
BRANCH  16  22
ATOM     17  C   UNL     1      -0.018   1.503   0.010  0.00  0.00    +0.044 C 
ATOM     18  C   UNL     1       0.002  -0.004   0.002  0.00  0.00    -0.047 A 
ATOM     19  C   UNL     1       0.006  -0.689  -1.199  0.00  0.00    +0.003 A 
ATOM     20  C   UNL     1       0.025  -2.071  -1.207  0.00  0.00    +0.001 A 
ATOM     21  C   UNL     1       0.040  -2.768  -0.013  0.00  0.00    +0.005 A 
ATOM     22  C   UNL     1       0.037  -2.084   1.188  0.00  0.00    -0.027 A 
ATOM     23  C   UNL     1       0.023  -0.702   1.195  0.00  0.00    -0.043 A 
ATOM     24  C   UNL     1       0.025   0.045   2.504  0.00  0.00    +0.044 C 
ENDBRANCH  16  22
ENDBRANCH  14  16
ENDBRANCH   1  14
TORSDOF 5
