REMARK  Name = ZINC11954841
REMARK  5 active torsions:
REMARK  status: ('A' for Active; 'I' for Inactive)
REMARK    1  A    between atoms: C_3  and  O_25
REMARK    2  A    between atoms: C_6  and  C_7
REMARK    3  A    between atoms: C_7  and  N_52
REMARK    4  A    between atoms: C_16  and  C_17
REMARK    5  A    between atoms: C_16  and  N_54
REMARK                            x       y       z     vdW  Elec       q    Type
REMARK                         _______ _______ _______ _____ _____    ______ ____
ROOT
ATOM      1  C   UNL     1       0.002  -0.004   0.002  0.00  0.00    -0.078 C 
ATOM      2  C   UNL     1      -0.019   1.537   0.011  0.00  0.00    -0.015 C 
ATOM      3  C   UNL     1       1.462   1.955  -0.001  0.00  0.00    -0.061 C 
ATOM      4  C   UNL     1       2.197   0.707   0.530  0.00  0.00    -0.073 C 
ATOM      5  C   UNL     1       1.692   3.140   0.928  0.00  0.00    +0.001 C 
ATOM      6  C   UNL     1       3.169   3.545   0.874  0.00  0.00    -0.018 C 
ATOM      7  C   UNL     1       3.554   3.851  -0.575  0.00  0.00    -0.078 C 
ATOM      8  C   UNL     1       1.918   2.275  -1.419  0.00  0.00    -0.073 C 
ATOM      9  N   UNL     1       1.413  -0.392  -0.057  0.00  0.00    +0.383 N 
ATOM     10  H   UNL     1       1.692  -0.533  -1.035  0.00  0.00    -0.081 HD
ATOM     11  N   UNL     1       3.352   2.638  -1.395  0.00  0.00    +0.383 N 
ATOM     12  H   UNL     1       3.885   1.863  -0.982  0.00  0.00    -0.081 HD
ENDROOT
BRANCH   9  13
ATOM     13  C   UNL     1       1.639  -1.657   0.705  0.00  0.00    -0.043 C 
BRANCH  13  19
ATOM     14  C   UNL     1      -0.325  -3.145   0.266  0.00  0.00    +0.005 A 
ATOM     15  C   UNL     1      -0.927  -4.197  -0.398  0.00  0.00    +0.045 A 
ATOM     16  C   UNL     1      -0.211  -4.923  -1.339  0.00  0.00    +0.117 A 
ATOM     17  C   UNL     1       1.106  -4.586  -1.615  0.00  0.00    +0.045 A 
ATOM     18  C   UNL     1       1.702  -3.530  -0.954  0.00  0.00    +0.005 A 
ATOM     19  C   UNL     1       0.986  -2.808  -0.016  0.00  0.00    -0.064 A 
BRANCH  16  20
ATOM     20  O   UNL     1      -0.799  -5.961  -1.988  0.00  0.00    -0.507 OA
ATOM     21  H   UNL     1      -0.696  -6.813  -1.543  0.00  0.00    +0.292 HD
ENDBRANCH  16  20
ENDBRANCH  13  19
ENDBRANCH   9  13
BRANCH  11  22
ATOM     22  C   UNL     1       3.836   2.872  -2.771  0.00  0.00    -0.043 C 
BRANCH  22  23
ATOM     23  C   UNL     1       3.012   3.937  -3.448  0.00  0.00    -0.061 A 
ATOM     24  C   UNL     1       1.886   3.585  -4.169  0.00  0.00    +0.005 A 
ATOM     25  C   UNL     1       1.126   4.561  -4.786  0.00  0.00    +0.041 A 
ATOM     26  C   UNL     1       1.498   5.890  -4.692  0.00  0.00    +0.158 A 
ATOM     27  C   UNL     1       2.631   6.243  -3.974  0.00  0.00    +0.159 A 
ATOM     28  C   UNL     1       3.386   5.264  -3.353  0.00  0.00    +0.043 A 
ATOM     29  F   UNL     1       2.996   7.540  -3.882  0.00  0.00    -0.202 F 
ATOM     30  F   UNL     1       0.759   6.844  -5.301  0.00  0.00    -0.202 F 
ENDBRANCH  22  23
ENDBRANCH  11  22
TORSDOF 5
