REMARK  Name = ZINC67536222
REMARK  7 active torsions:
REMARK  status: ('A' for Active; 'I' for Inactive)
REMARK    1  A    between atoms: C_1  and  C_2
REMARK    2  A    between atoms: C_2  and  C_4
REMARK    3  A    between atoms: C_2  and  N_12
REMARK    4  A    between atoms: C_7  and  C_10
REMARK    5  A    between atoms: N_15  and  C_16
REMARK    6  A    between atoms: C_16  and  C_17
REMARK    7  A    between atoms: C_21  and  N_23
REMARK                            x       y       z     vdW  Elec       q    Type
REMARK                         _______ _______ _______ _____ _____    ______ ____
ROOT
ATOM      1  N   UNL     1      -1.372  -0.511   0.012  0.00  0.00    -0.293 N 
ATOM      2  C   UNL     1      -2.029  -0.655   1.181  0.00  0.00    +0.300 C 
ATOM      3  O   UNL     1      -1.480  -0.364   2.226  0.00  0.00    -0.253 OA
ATOM      4  N   UNL     1      -3.293  -1.122   1.190  0.00  0.00    -0.295 N 
ATOM      5  H   UNL     1      -1.810  -0.743  -0.822  0.00  0.00    +0.151 HD
ATOM      6  H   UNL     1      -3.731  -1.354   0.356  0.00  0.00    +0.151 HD
ENDROOT
BRANCH   1   8
ATOM      7  C   UNL     1      -0.019   1.526   0.010  0.00  0.00    +0.033 C 
ATOM      8  C   UNL     1       0.002  -0.004   0.002  0.00  0.00    +0.102 C 
BRANCH   8   9
ATOM      9  C   UNL     1       0.707  -0.490  -1.238  0.00  0.00    -0.027 A 
ATOM     10  C   UNL     1       0.034  -0.520  -2.446  0.00  0.00    +0.007 A 
ATOM     11  C   UNL     1       0.674  -0.964  -3.585  0.00  0.00    +0.019 A 
ATOM     12  C   UNL     1       2.004  -1.383  -3.517  0.00  0.00    +0.052 A 
ATOM     13  C   UNL     1       2.678  -1.349  -2.294  0.00  0.00    +0.019 A 
ATOM     14  C   UNL     1       2.027  -0.899  -1.164  0.00  0.00    +0.007 A 
BRANCH  12  15
ATOM     15  C   UNL     1       2.674  -1.845  -4.695  0.00  0.00    +0.099 C 
ATOM     16  N   UNL     1       3.206  -2.212  -5.629  0.00  0.00    -0.191 NA
ENDBRANCH  12  15
ENDBRANCH   8   9
ENDBRANCH   1   8
BRANCH   4  17
ATOM     17  C   UNL     1      -4.006  -1.278   2.460  0.00  0.00    +0.141 C 
BRANCH  17  18
ATOM     18  C   UNL     1      -5.391  -1.812   2.196  0.00  0.00    -0.028 A 
ATOM     19  C   UNL     1      -6.439  -0.938   1.975  0.00  0.00    +0.005 A 
ATOM     20  C   UNL     1      -7.708  -1.427   1.733  0.00  0.00    +0.003 A 
ATOM     21  C   UNL     1      -7.930  -2.792   1.712  0.00  0.00    +0.033 A 
ATOM     22  C   UNL     1      -6.883  -3.666   1.932  0.00  0.00    +0.127 A 
ATOM     23  C   UNL     1      -5.612  -3.176   2.170  0.00  0.00    +0.038 A 
BRANCH  22  24
ATOM     24  N   UNL     1      -7.121  -5.127   1.909  0.00  0.00    +0.056 N 
ATOM     25  O   UNL     1      -8.232  -5.555   1.698  0.00  0.00    -0.126 OA
ATOM     26  O   UNL     1      -6.205  -5.892   2.102  0.00  0.00    -0.126 OA
ENDBRANCH  22  24
ENDBRANCH  17  18
ENDBRANCH   4  17
TORSDOF 6
