REMARK  Name = ZINC19370471
REMARK  15 active torsions:
REMARK  status: ('A' for Active; 'I' for Inactive)
REMARK    1  A    between atoms: C_1  and  N_2
REMARK    2  A    between atoms: N_2  and  C_3
REMARK    3  A    between atoms: N_2  and  C_4
REMARK    4  A    between atoms: C_7  and  C_10
REMARK    5  A    between atoms: C_10  and  C_12
REMARK    6  A    between atoms: C_10  and  N_14
REMARK    7  A    between atoms: N_14  and  C_15
REMARK    8  A    between atoms: C_15  and  C_16
REMARK    9  A    between atoms: C_16  and  N_17
REMARK   10  A    between atoms: N_17  and  C_18
REMARK   11  A    between atoms: C_18  and  C_20
REMARK   12  A    between atoms: C_18  and  C_22
REMARK   13  A    between atoms: C_25  and  N_28
REMARK   14  A    between atoms: N_28  and  C_29
REMARK   15  A    between atoms: N_28  and  C_30
REMARK                            x       y       z     vdW  Elec       q    Type
REMARK                         _______ _______ _______ _____ _____    ______ ____
ROOT
ATOM      1  C   UNL     1      -6.842  -3.199  -1.340  0.00  0.00    +0.097 C 
ENDROOT
BRANCH   1   2
ATOM      2  N   UNL     1      -5.840  -2.244  -0.849  0.00  0.00    -0.297 NA
ATOM      3  H   UNL     1      -6.280  -1.465  -0.383  0.00  0.00    +0.123 HD
BRANCH   2   4
ATOM      4  C   UNL     1      -4.870  -2.906   0.034  0.00  0.00    +0.188 C 
BRANCH   4   8
ATOM      5  C   UNL     1      -1.198  -0.719   0.010  0.00  0.00    +0.029 A 
ATOM      6  C   UNL     1      -1.181  -2.108   0.008  0.00  0.00    +0.023 A 
ATOM      7  C   UNL     1      -2.369  -2.812   0.016  0.00  0.00    +0.008 A 
ATOM      8  C   UNL     1      -3.575  -2.135   0.025  0.00  0.00    -0.016 A 
ATOM      9  C   UNL     1      -3.596  -0.752   0.027  0.00  0.00    +0.008 A 
ATOM     10  C   UNL     1      -2.411  -0.042   0.025  0.00  0.00    +0.023 A 
BRANCH   5  12
ATOM     11  C   UNL     1      -0.018   1.461   0.010  0.00  0.00    +0.129 C 
ATOM     12  N   UNL     1       0.002  -0.004   0.002  0.00  0.00    -0.336 N 
ATOM     13  C   UNL     1       1.281  -0.719  -0.014  0.00  0.00    +0.129 C 
ENDBRANCH   5  12
ENDBRANCH   4   8
BRANCH   4  14
ATOM     14  C   UNL     1      -5.405  -2.952   1.404  0.00  0.00    +0.086 C 
ATOM     15  N   UNL     1      -5.818  -2.987   2.462  0.00  0.00    -0.195 NA
ENDBRANCH   4  14
ENDBRANCH   2   4
ENDBRANCH   1   2
BRANCH   1  16
ATOM     16  C   UNL     1      -7.833  -2.474  -2.254  0.00  0.00    +0.097 C 
BRANCH  16  17
ATOM     17  N   UNL     1      -8.835  -3.429  -2.744  0.00  0.00    -0.297 NA
ATOM     18  H   UNL     1      -8.395  -4.208  -3.211  0.00  0.00    +0.123 HD
BRANCH  17  19
ATOM     19  C   UNL     1      -9.805  -2.767  -3.627  0.00  0.00    +0.188 C 
BRANCH  19  20
ATOM     20  C   UNL     1     -10.404  -3.782  -4.566  0.00  0.00    -0.016 A 
ATOM     21  C   UNL     1     -10.729  -5.044  -4.103  0.00  0.00    +0.008 A 
ATOM     22  C   UNL     1     -11.278  -5.976  -4.961  0.00  0.00    +0.023 A 
ATOM     23  C   UNL     1     -11.504  -5.645  -6.291  0.00  0.00    +0.029 A 
ATOM     24  C   UNL     1     -11.175  -4.377  -6.754  0.00  0.00    +0.023 A 
ATOM     25  C   UNL     1     -10.632  -3.448  -5.889  0.00  0.00    +0.008 A 
BRANCH  23  26
ATOM     26  N   UNL     1     -12.058  -6.586  -7.162  0.00  0.00    -0.336 N 
ATOM     27  C   UNL     1     -12.403  -7.923  -6.673  0.00  0.00    +0.129 C 
ATOM     28  C   UNL     1     -12.295  -6.235  -8.565  0.00  0.00    +0.129 C 
ENDBRANCH  23  26
ENDBRANCH  19  20
BRANCH  19  29
ATOM     29  C   UNL     1     -10.873  -2.160  -2.815  0.00  0.00    +0.086 C 
ATOM     30  N   UNL     1     -11.697  -1.692  -2.189  0.00  0.00    -0.195 NA
ENDBRANCH  19  29
ENDBRANCH  17  19
ENDBRANCH  16  17
ENDBRANCH   1  16
TORSDOF 11
