REMARK  Name = ZINC07077901
REMARK  6 active torsions:
REMARK  status: ('A' for Active; 'I' for Inactive)
REMARK    1  A    between atoms: C_1  and  C_2
REMARK    2  A    between atoms: C_4  and  C_8
REMARK    3  A    between atoms: N_6  and  C_7
REMARK    4  A    between atoms: C_11  and  C_16
REMARK    5  A    between atoms: C_11  and  O_20
REMARK    6  A    between atoms: C_13  and  C_15
REMARK                            x       y       z     vdW  Elec       q    Type
REMARK                         _______ _______ _______ _____ _____    ______ ____
ROOT
ATOM      1  C   UNL     1      -2.874   3.010   1.300  0.00  0.00    +0.290 C 
ATOM      2  O   UNL     1      -2.873   3.010   2.516  0.00  0.00    -0.266 OA
ATOM      3  N   UNL     1      -1.906   2.359   0.625  0.00  0.00    -0.147 N 
ATOM      4  C   UNL     1      -0.789   1.610   1.233  0.00  0.00    +0.257 C 
ATOM      5  C   UNL     1      -0.013   1.086   0.008  0.00  0.00    +0.118 C 
ATOM      6  C   UNL     1      -0.797   1.613  -1.173  0.00  0.00    +0.039 C 
ATOM      7  N   UNL     1      -1.794   2.283  -0.761  0.00  0.00    -0.183 NA
ATOM      8  C   UNL     1      -0.447   1.378  -2.620  0.00  0.00    +0.062 C 
ENDROOT
BRANCH   1  12
ATOM      9  C   UNL     1      -6.973   5.761   0.150  0.00  0.00    +0.066 C 
ATOM     10  C   UNL     1      -5.723   4.923   0.080  0.00  0.00    +0.051 A 
ATOM     11  C   UNL     1      -5.016   4.442   1.130  0.00  0.00    +0.071 A 
ATOM     12  C   UNL     1      -3.936   3.723   0.564  0.00  0.00    +0.163 A 
ATOM     13  N   UNL     1      -4.061   3.806  -0.746  0.00  0.00    -0.165 NA
ATOM     14  N   UNL     1      -5.098   4.502  -1.048  0.00  0.00    -0.270 N 
ATOM     15  C   UNL     1      -5.541   4.798  -2.413  0.00  0.00    +0.172 C 
ATOM     16 BR   UNL     1      -5.390   4.685   2.968  0.00  0.00    -0.046 Br
ENDBRANCH   1  12
BRANCH   4  17
ATOM     17  C   UNL     1      -1.313   0.448   2.078  0.00  0.00    +0.438 C 
ATOM     18  F   UNL     1      -0.237  -0.328   2.522  0.00  0.00    -0.166 F 
ATOM     19  F   UNL     1      -2.012   0.951   3.181  0.00  0.00    -0.166 F 
ATOM     20  F   UNL     1      -2.170  -0.343   1.304  0.00  0.00    -0.166 F 
ENDBRANCH   4  17
BRANCH   4  21
ATOM     21  O   UNL     1       0.033   2.476   2.018  0.00  0.00    -0.363 OA
ATOM     22  H   UNL     1      -0.407   2.833   2.801  0.00  0.00    +0.212 HD
ENDBRANCH   4  21
TORSDOF 3
