REMARK  Name = ZINC39466533
REMARK  4 active torsions:
REMARK  status: ('A' for Active; 'I' for Inactive)
REMARK    1  A    between atoms: C_4  and  C_7
REMARK    2  A    between atoms: C_7  and  P_8
REMARK    3  A    between atoms: C_17  and  C_26
REMARK    4  A    between atoms: C_31  and  O_32
REMARK                            x       y       z     vdW  Elec       q    Type
REMARK                         _______ _______ _______ _____ _____    ______ ____
ROOT
ATOM      1  P   UNL     1       4.260  -1.012   1.674  0.00  0.00    +0.262 P 
ATOM      2  O   UNL     1       4.479   0.271   2.378  0.00  0.00    -0.274 OA
ATOM      3  N   UNL     1       5.640  -1.916   1.680  0.00  0.00    -0.291 NA
ATOM      4  N   UNL     1       5.522  -3.273   1.463  0.00  0.00    +0.397 N 
ATOM      5  C   UNL     1       6.872  -3.832   1.636  0.00  0.00    -0.046 C 
ATOM      6  C   UNL     1       6.873  -5.337   1.399  0.00  0.00    +0.006 C 
ATOM      7  C   UNL     1       6.420  -5.650  -0.001  0.00  0.00    -0.004 C 
ATOM      8  C   UNL     1       5.930  -6.855  -0.280  0.00  0.00    +0.045 C 
ATOM      9  C   UNL     1       5.851  -7.873   0.792  0.00  0.00    -0.000 C 
ATOM     10  C   UNL     1       5.846  -7.482   2.076  0.00  0.00    -0.013 C 
ATOM     11  C   UNL     1       5.921  -6.008   2.394  0.00  0.00    +0.016 C 
ATOM     12  C   UNL     1       4.533  -5.388   2.234  0.00  0.00    -0.003 C 
ATOM     13  C   UNL     1       4.596  -3.869   2.428  0.00  0.00    -0.020 C 
ATOM     14  C   UNL     1       3.170  -3.332   2.244  0.00  0.00    +0.156 C 
ATOM     15  O   UNL     1       3.159  -1.911   2.468  0.00  0.00    -0.319 OA
ATOM     16 CL   UNL     1       5.389  -7.230  -1.886  0.00  0.00    -0.083 Cl
ATOM     17  H   UNL     1       6.506  -1.507   1.831  0.00  0.00    +0.111 HD
ATOM     18  H   UNL     1       5.189  -3.439   0.525  0.00  0.00    -0.055 HD
ENDROOT
BRANCH   9  19
ATOM     19  C   UNL     1       5.776  -9.313   0.449  0.00  0.00    +0.025 A 
ATOM     20  C   UNL     1       4.567  -9.998   0.561  0.00  0.00    +0.012 A 
ATOM     21  C   UNL     1       4.502 -11.338   0.241  0.00  0.00    +0.001 A 
ATOM     22  C   UNL     1       5.634 -12.007  -0.192  0.00  0.00    +0.004 A 
ATOM     23  C   UNL     1       6.838 -11.338  -0.307  0.00  0.00    +0.046 A 
ATOM     24  C   UNL     1       6.916  -9.990   0.006  0.00  0.00    +0.125 A 
BRANCH  24  25
ATOM     25  O   UNL     1       8.098  -9.330  -0.112  0.00  0.00    -0.506 OA
ATOM     26  H   UNL     1       8.640  -9.348   0.688  0.00  0.00    +0.292 HD
ENDBRANCH  24  25
ENDBRANCH   9  19
BRANCH   1  27
ATOM     27  C   UNL     1       3.711  -0.707  -0.038  0.00  0.00    +0.147 C 
BRANCH  27  31
ATOM     28  C   UNL     1      -0.017   1.378   0.010  0.00  0.00    +0.000 A 
ATOM     29  C   UNL     1       1.171   2.086   0.002  0.00  0.00    +0.000 A 
ATOM     30  C   UNL     1       2.377   1.411  -0.013  0.00  0.00    +0.004 A 
ATOM     31  C   UNL     1       2.396   0.029  -0.020  0.00  0.00    -0.037 A 
ATOM     32  C   UNL     1       1.208  -0.679  -0.012  0.00  0.00    +0.004 A 
ATOM     33  C   UNL     1       0.002  -0.004   0.002  0.00  0.00    +0.000 A 
ENDBRANCH  27  31
ENDBRANCH   1  27
TORSDOF 4
