REMARK  Name = ZINC38670277
REMARK  10 active torsions:
REMARK  status: ('A' for Active; 'I' for Inactive)
REMARK    1  A    between atoms: C_1  and  N_2
REMARK    2  A    between atoms: C_10  and  C_12
REMARK    3  A    between atoms: C_12  and  C_14
REMARK    4  A    between atoms: C_12  and  N_33
REMARK    5  A    between atoms: C_14  and  N_15
REMARK    6  A    between atoms: C_16  and  C_18
REMARK    7  A    between atoms: C_21  and  S_24
REMARK    8  A    between atoms: S_24  and  N_27
REMARK    9  A    between atoms: N_33  and  C_34
REMARK   10  A    between atoms: N_33  and  C_35
REMARK                            x       y       z     vdW  Elec       q    Type
REMARK                         _______ _______ _______ _____ _____    ______ ____
ROOT
ATOM      1  N   UNL     1       6.790  -4.186  -1.581  0.00  0.00    -0.313 N 
ATOM      2  C   UNL     1       7.318  -4.814  -2.651  0.00  0.00    +0.244 C 
ATOM      3  O   UNL     1       6.725  -4.812  -3.711  0.00  0.00    -0.270 OA
ATOM      4  H   UNL     1       7.263  -4.188  -0.735  0.00  0.00    +0.149 HD
ENDROOT
BRANCH   2   5
ATOM      5  C   UNL     1       8.619  -5.506  -2.533  0.00  0.00    +0.037 A 
ATOM      6  C   UNL     1       9.301  -5.515  -1.315  0.00  0.00    +0.015 A 
ATOM      7  C   UNL     1      10.514  -6.163  -1.212  0.00  0.00    +0.029 A 
ATOM      8  C   UNL     1      11.056  -6.802  -2.313  0.00  0.00    +0.106 A 
ATOM      9  C   UNL     1      10.387  -6.796  -3.523  0.00  0.00    +0.029 A 
ATOM     10  C   UNL     1       9.169  -6.157  -3.638  0.00  0.00    +0.015 A 
BRANCH   8  11
ATOM     11  S   UNL     1      12.607  -7.627  -2.172  0.00  0.00    +0.061 S 
ATOM     12  O   UNL     1      13.158  -7.681  -3.481  0.00  0.00    -0.153 OA
ATOM     13  O   UNL     1      13.291  -7.024  -1.083  0.00  0.00    -0.153 OA
BRANCH  11  14
ATOM     14  N   UNL     1      12.292  -9.190  -1.727  0.00  0.00    -0.177 NA
ATOM     15  C   UNL     1      12.211  -9.562  -0.308  0.00  0.00    +0.109 C 
ATOM     16  C   UNL     1      10.877 -10.273  -0.060  0.00  0.00    +0.017 C 
ATOM     17  C   UNL     1      10.744 -11.451  -1.027  0.00  0.00    +0.003 C 
ATOM     18  C   UNL     1      10.755 -10.935  -2.467  0.00  0.00    +0.017 C 
ATOM     19  C   UNL     1      12.082 -10.230  -2.743  0.00  0.00    +0.109 C 
ENDBRANCH  11  14
ENDBRANCH   8  11
ENDBRANCH   2   5
BRANCH   1  20
ATOM     20  C   UNL     1       5.500  -3.501  -1.698  0.00  0.00    +0.094 C 
BRANCH  20  21
ATOM     21  C   UNL     1       5.069  -2.989  -0.322  0.00  0.00    -0.021 C 
BRANCH  21  31
ATOM     22  C   UNL     1       2.804  -7.947   3.265  0.00  0.00    +0.129 C 
ATOM     23  N   UNL     1       4.153  -7.391   3.135  0.00  0.00    -0.333 N 
ATOM     24  C   UNL     1       5.275  -7.970   3.888  0.00  0.00    +0.105 C 
ATOM     25  C   UNL     1       6.086  -6.812   4.484  0.00  0.00    +0.024 C 
ATOM     26  C   UNL     1       6.667  -5.978   3.343  0.00  0.00    +0.038 C 
ATOM     27  C   UNL     1       5.587  -5.598   2.364  0.00  0.00    -0.026 A 
ATOM     28  C   UNL     1       4.396  -6.305   2.288  0.00  0.00    +0.033 A 
ATOM     29  C   UNL     1       3.423  -5.934   1.366  0.00  0.00    +0.023 A 
ATOM     30  C   UNL     1       3.642  -4.863   0.523  0.00  0.00    +0.004 A 
ATOM     31  C   UNL     1       4.830  -4.159   0.597  0.00  0.00    -0.059 A 
ATOM     32  C   UNL     1       5.797  -4.520   1.521  0.00  0.00    +0.007 A 
ENDBRANCH  21  31
BRANCH  21  33
ATOM     33  N   UNL     1       3.830  -2.211  -0.456  0.00  0.00    +0.382 N 
ATOM     34  C   UNL     1       3.440  -1.682   0.858  0.00  0.00    -0.096 C 
ATOM     35  C   UNL     1       4.050  -1.096  -1.387  0.00  0.00    -0.096 C 
ATOM     36  H   UNL     1       3.096  -2.805  -0.810  0.00  0.00    -0.082 HD
ENDBRANCH  21  33
ENDBRANCH  20  21
ENDBRANCH   1  20
TORSDOF 7
