REMARK  Name = ZINC21224663
REMARK  11 active torsions:
REMARK  status: ('A' for Active; 'I' for Inactive)
REMARK    1  A    between atoms: C_1  and  C_2
REMARK    2  A    between atoms: C_2  and  O_3
REMARK    3  A    between atoms: O_3  and  C_4
REMARK    4  A    between atoms: C_6  and  C_12
REMARK    5  A    between atoms: C_9  and  O_10
REMARK    6  A    between atoms: C_23  and  C_26
REMARK    7  A    between atoms: C_29  and  O_32
REMARK    8  A    between atoms: O_32  and  C_33
REMARK    9  A    between atoms: C_33  and  C_34
REMARK   10  A    between atoms: C_34  and  C_35
REMARK   11  A    between atoms: C_34  and  C_36
REMARK                            x       y       z     vdW  Elec       q    Type
REMARK                         _______ _______ _______ _____ _____    ______ ____
ROOT
ATOM      1  C   UNL     1       3.826  -1.475   9.430  0.00  0.00    +0.063 C 
ATOM      2  C   UNL     1       5.286  -1.018   9.468  0.00  0.00    +0.109 C 
ATOM      3  C   UNL     1       5.359   0.432   9.066  0.00  0.00    +0.218 C 
ATOM      4  O   UNL     1       6.193   1.157   9.566  0.00  0.00    -0.275 OA
ATOM      5  N   UNL     1       4.502   0.924   8.155  0.00  0.00    -0.289 N 
ATOM      6  C   UNL     1       3.566   0.121   7.554  0.00  0.00    +0.018 C 
ATOM      7  C   UNL     1       3.200  -1.046   8.125  0.00  0.00    +0.020 C 
ATOM      8  C   UNL     1       2.237  -1.880   7.532  0.00  0.00    +0.162 C 
ATOM      9  O   UNL     1       1.944  -2.930   8.068  0.00  0.00    -0.292 OA
ATOM     10  C   UNL     1       1.564  -1.492   6.242  0.00  0.00    +0.088 C 
ATOM     11  C   UNL     1       1.527   0.036   6.140  0.00  0.00    +0.032 C 
ATOM     12  C   UNL     1       2.958   0.568   6.249  0.00  0.00    +0.059 C 
ATOM     13  H   UNL     1       4.545   1.988   7.878  0.00  0.00    +0.155 HD
ENDROOT
BRANCH   1  16
ATOM     14  C   UNL     1       1.777  -1.085  12.580  0.00  0.00    +0.163 A 
ATOM     15  C   UNL     1       2.469  -1.656  11.524  0.00  0.00    +0.053 A 
ATOM     16  C   UNL     1       3.075  -0.851  10.578  0.00  0.00    -0.034 A 
ATOM     17  C   UNL     1       2.997   0.525  10.684  0.00  0.00    +0.028 A 
ATOM     18  C   UNL     1       2.303   1.102  11.733  0.00  0.00    +0.086 A 
ATOM     19  C   UNL     1       1.693   0.300  12.685  0.00  0.00    +0.177 A 
ATOM     20 CL   UNL     1       2.201   2.831  11.859  0.00  0.00    -0.080 Cl
BRANCH  19  21
ATOM     21  O   UNL     1       1.014   0.866  13.719  0.00  0.00    -0.502 OA
ATOM     22  H   UNL     1       0.949   1.960  13.801  0.00  0.00    +0.292 HD
ENDBRANCH  19  21
BRANCH  14  23
ATOM     23  O   UNL     1       1.180  -1.876  13.512  0.00  0.00    -0.489 OA
BRANCH  23  25
ATOM     24  C   UNL     1       0.577  -4.008  14.476  0.00  0.00    +0.048 C 
ATOM     25  C   UNL     1       1.307  -3.289  13.340  0.00  0.00    +0.226 C 
ENDBRANCH  23  25
ENDBRANCH  14  23
ENDBRANCH   1  16
BRANCH  11  26
ATOM     26  C   UNL     1       0.936   0.440   4.814  0.00  0.00    -0.043 A 
ATOM     27  C   UNL     1      -0.203   1.223   4.776  0.00  0.00    +0.007 A 
ATOM     28  C   UNL     1      -0.747   1.595   3.561  0.00  0.00    +0.046 A 
ATOM     29  C   UNL     1      -0.149   1.182   2.380  0.00  0.00    +0.121 A 
ATOM     30  C   UNL     1       0.991   0.392   2.421  0.00  0.00    +0.046 A 
ATOM     31  C   UNL     1       1.534   0.028   3.638  0.00  0.00    +0.007 A 
BRANCH  29  32
ATOM     32  O   UNL     1      -0.682   1.547   1.184  0.00  0.00    -0.492 OA
BRANCH  32  33
ATOM     33  C   UNL     1      -0.013   1.086   0.008  0.00  0.00    +0.232 C 
BRANCH  33  34
ATOM     34  C   UNL     1      -0.753   1.593  -1.232  0.00  0.00    +0.020 C 
ATOM     35  C   UNL     1      -0.666   3.119  -1.289  0.00  0.00    +0.010 C 
ATOM     36  C   UNL     1      -0.111   0.998  -2.487  0.00  0.00    +0.010 C 
ENDBRANCH  33  34
ENDBRANCH  32  33
ENDBRANCH  29  32
ENDBRANCH  11  26
TORSDOF 8
