REMARK  Name = ZINC42270600
REMARK  4 active torsions:
REMARK  status: ('A' for Active; 'I' for Inactive)
REMARK    1  A    between atoms: C_1  and  C_2
REMARK    2  A    between atoms: C_3  and  N_21
REMARK    3  A    between atoms: C_5  and  C_9
REMARK    4  A    between atoms: C_16  and  C_18
REMARK                            x       y       z     vdW  Elec       q    Type
REMARK                         _______ _______ _______ _____ _____    ______ ____
ROOT
ATOM      1  C   UNL     1      -1.538  -5.145   0.137  0.00  0.00    +0.247 C 
ATOM      2  O   UNL     1      -1.279  -5.663  -0.931  0.00  0.00    -0.270 OA
ATOM      3  N   UNL     1      -0.764  -5.393   1.212  0.00  0.00    -0.286 N 
ATOM      4  C   UNL     1      -0.979  -4.669   2.473  0.00  0.00    +0.109 C 
ATOM      5  C   UNL     1       0.345  -4.035   2.909  0.00  0.00    +0.019 C 
ATOM      6  C   UNL     1       1.425  -5.117   2.982  0.00  0.00    +0.004 C 
ATOM      7  C   UNL     1       1.620  -5.739   1.598  0.00  0.00    +0.032 C 
ATOM      8  C   UNL     1       0.306  -6.397   1.148  0.00  0.00    +0.162 C 
ENDROOT
BRANCH   1  13
ATOM      9  C   UNL     1      -6.080  -1.633   0.616  0.00  0.00    +0.048 C 
ATOM     10  C   UNL     1      -4.892  -2.551   0.490  0.00  0.00    +0.005 A 
ATOM     11  C   UNL     1      -4.341  -2.802  -0.761  0.00  0.00    +0.031 A 
ATOM     12  C   UNL     1      -3.248  -3.647  -0.880  0.00  0.00    +0.036 A 
ATOM     13  C   UNL     1      -2.704  -4.243   0.258  0.00  0.00    +0.041 A 
ATOM     14  C   UNL     1      -3.263  -3.986   1.510  0.00  0.00    +0.051 A 
ATOM     15  C   UNL     1      -4.350  -3.138   1.620  0.00  0.00    +0.129 A 
ATOM     16  F   UNL     1      -4.887  -2.885   2.834  0.00  0.00    -0.205 F 
BRANCH  11  17
ATOM     17  N   UNL     1      -4.888  -2.204  -1.899  0.00  0.00    -0.358 N 
ATOM     18  H   UNL     1      -5.653  -1.613  -1.815  0.00  0.00    +0.142 HD
ATOM     19  H   UNL     1      -4.503  -2.379  -2.772  0.00  0.00    +0.142 HD
ENDBRANCH  11  17
ENDBRANCH   1  13
BRANCH   8  20
ATOM     20  C   UNL     1       0.447  -6.896  -0.267  0.00  0.00    +0.231 C 
ATOM     21  O   UNL     1       0.887  -6.163  -1.127  0.00  0.00    -0.274 OA
ATOM     22  N   UNL     1       0.085  -8.156  -0.576  0.00  0.00    -0.328 N 
ATOM     23  H   UNL     1      -0.267  -8.743   0.112  0.00  0.00    +0.145 HD
ATOM     24  H   UNL     1       0.175  -8.477  -1.487  0.00  0.00    +0.145 HD
ENDBRANCH   8  20
TORSDOF 3
