REMARK  Name = ZINC21863454
REMARK  9 active torsions:
REMARK  status: ('A' for Active; 'I' for Inactive)
REMARK    1  A    between atoms: C_1  and  C_2
REMARK    2  A    between atoms: C_5  and  N_8
REMARK    3  A    between atoms: C_9  and  C_11
REMARK    4  A    between atoms: C_11  and  C_30
REMARK    5  A    between atoms: C_14  and  C_25
REMARK    6  A    between atoms: N_20  and  C_21
REMARK    7  A    between atoms: C_21  and  C_22
REMARK    8  A    between atoms: C_22  and  O_23
REMARK    9  A    between atoms: O_23  and  C_24
REMARK                            x       y       z     vdW  Elec       q    Type
REMARK                         _______ _______ _______ _____ _____    ______ ____
ROOT
ATOM      1  C   UNL     1      -0.642   1.619   4.423  0.00  0.00    +0.129 C 
ATOM      2  C   UNL     1       0.595   0.816   4.838  0.00  0.00    +0.157 C 
ATOM      3  N   UNL     1       1.559   1.719   5.473  0.00  0.00    -0.331 N 
ATOM      4  C   UNL     1       2.490   1.470   6.427  0.00  0.00    +0.085 A 
ATOM      5  C   UNL     1       3.183   2.646   6.672  0.00  0.00    +0.032 A 
ATOM      6  C   UNL     1       2.647   3.637   5.848  0.00  0.00    +0.033 A 
ATOM      7  C   UNL     1       1.639   3.063   5.124  0.00  0.00    +0.105 A 
ATOM      8  C   UNL     1       0.739   3.630   4.114  0.00  0.00    +0.264 C 
ATOM      9  O   UNL     1       0.912   4.743   3.654  0.00  0.00    -0.268 OA
ATOM     10  N   UNL     1      -0.295   2.849   3.722  0.00  0.00    -0.278 N 
ATOM     11  C   UNL     1      -1.451   1.973   5.673  0.00  0.00    +0.043 C 
ENDROOT
BRANCH   4  12
ATOM     12  C   UNL     1       2.726   0.178   7.085  0.00  0.00    +0.151 A 
ATOM     13  C   UNL     1       3.599  -0.053   8.107  0.00  0.00    +0.051 A 
ATOM     14  C   UNL     1       3.497  -1.419   8.426  0.00  0.00    +0.042 A 
ATOM     15  C   UNL     1       2.583  -1.954   7.589  0.00  0.00    +0.196 A 
ATOM     16  O   UNL     1       2.120  -0.987   6.782  0.00  0.00    -0.461 OA
ENDBRANCH   4  12
BRANCH   1  18
ATOM     17  N   UNL     1      -1.064  -0.451   3.136  0.00  0.00    -0.311 N 
ATOM     18  C   UNL     1      -1.496   0.767   3.520  0.00  0.00    +0.238 C 
ATOM     19  O   UNL     1      -2.572   1.177   3.138  0.00  0.00    -0.273 OA
ATOM     20  H   UNL     1      -0.131  -0.860   3.551  0.00  0.00    +0.149 HD
BRANCH  17  25
ATOM     21  C   UNL     1      -3.739  -4.601   0.229  0.00  0.00    +0.007 C 
ATOM     22  C   UNL     1      -2.931  -3.786   1.241  0.00  0.00    -0.014 C 
ATOM     23  C   UNL     1      -1.750  -3.119   0.533  0.00  0.00    +0.005 C 
ATOM     24  C   UNL     1      -0.942  -2.305   1.546  0.00  0.00    +0.022 C 
ATOM     25  C   UNL     1      -1.838  -1.231   2.167  0.00  0.00    +0.073 C 
ATOM     26  C   UNL     1      -3.019  -1.898   2.875  0.00  0.00    +0.022 C 
ATOM     27  C   UNL     1      -3.826  -2.712   1.862  0.00  0.00    +0.005 C 
ENDBRANCH  17  25
ENDBRANCH   1  18
BRANCH  10  28
ATOM     28  C   UNL     1      -1.092   3.255   2.562  0.00  0.00    +0.137 C 
BRANCH  28  29
ATOM     29  C   UNL     1      -0.388   2.811   1.278  0.00  0.00    +0.178 C 
BRANCH  29  30
ATOM     30  O   UNL     1      -0.351   1.383   1.226  0.00  0.00    -0.381 OA
ATOM     31  C   UNL     1       0.383   0.861   0.116  0.00  0.00    +0.194 C 
ENDBRANCH  29  30
ENDBRANCH  28  29
ENDBRANCH  10  28
TORSDOF 6
