REMARK  Name = ZINC36725651
REMARK  10 active torsions:
REMARK  status: ('A' for Active; 'I' for Inactive)
REMARK    1  A    between atoms: C_1  and  S_2
REMARK    2  A    between atoms: S_2  and  C_3
REMARK    3  A    between atoms: C_3  and  C_4
REMARK    4  A    between atoms: C_4  and  C_5
REMARK    5  A    between atoms: C_5  and  C_7
REMARK    6  A    between atoms: C_5  and  N_17
REMARK    7  A    between atoms: C_18  and  C_20
REMARK    8  A    between atoms: C_21  and  C_22
REMARK    9  A    between atoms: N_24  and  C_33
REMARK   10  A    between atoms: C_26  and  C_27
REMARK                            x       y       z     vdW  Elec       q    Type
REMARK                         _______ _______ _______ _____ _____    ______ ____
ROOT
ATOM      1  N   UNL     1       0.985  -1.897   4.078  0.00  0.00    -0.302 N 
ATOM      2  C   UNL     1       1.097  -0.632   4.529  0.00  0.00    +0.237 C 
ATOM      3  O   UNL     1       1.839   0.152   3.966  0.00  0.00    -0.271 OA
ATOM      4  H   UNL     1       0.394  -2.522   4.526  0.00  0.00    +0.150 HD
ENDROOT
BRANCH   2   5
ATOM      5  C   UNL     1       0.350  -0.215   5.660  0.00  0.00    +0.068 C 
ATOM      6  C   UNL     1       0.462   1.054   6.112  0.00  0.00    +0.016 C 
BRANCH   6   7
ATOM      7  C   UNL     1      -0.311   1.486   7.283  0.00  0.00    +0.021 A 
ATOM      8  C   UNL     1      -1.185   0.717   8.029  0.00  0.00    +0.123 A 
ATOM      9  N   UNL     1      -1.681   1.493   9.010  0.00  0.00    -0.239 N 
ATOM     10  N   UNL     1      -1.136   2.777   8.915  0.00  0.00    -0.166 NA
ATOM     11  C   UNL     1      -0.305   2.818   7.898  0.00  0.00    +0.102 A 
BRANCH  11  12
ATOM     12  C   UNL     1       0.486   3.991   7.454  0.00  0.00    +0.021 A 
ATOM     13  C   UNL     1      -0.035   5.284   7.566  0.00  0.00    +0.013 A 
ATOM     14  C   UNL     1       0.743   6.344   7.136  0.00  0.00    +0.020 A 
ATOM     15  C   UNL     1       2.000   6.095   6.615  0.00  0.00    +0.111 A 
ATOM     16  N   UNL     1       2.465   4.864   6.522  0.00  0.00    -0.263 NA
ATOM     17  C   UNL     1       1.764   3.823   6.923  0.00  0.00    +0.120 A 
ENDBRANCH  11  12
BRANCH   9  18
ATOM     18  C   UNL     1      -2.603   1.078   9.979  0.00  0.00    +0.065 A 
ATOM     19  C   UNL     1      -3.073  -0.229   9.977  0.00  0.00    +0.028 A 
ATOM     20  C   UNL     1      -3.983  -0.636  10.933  0.00  0.00    +0.002 A 
ATOM     21  C   UNL     1      -4.426   0.257  11.892  0.00  0.00    +0.000 A 
ATOM     22  C   UNL     1      -3.960   1.559  11.896  0.00  0.00    +0.002 A 
ATOM     23  C   UNL     1      -3.046   1.970  10.946  0.00  0.00    +0.028 A 
ENDBRANCH   9  18
ENDBRANCH   6   7
ENDBRANCH   2   5
BRANCH   1  24
ATOM     24  C   UNL     1       1.757  -2.329   2.909  0.00  0.00    +0.140 C 
BRANCH  24  25
ATOM     25  C   UNL     1       1.957  -3.821   2.963  0.00  0.00    +0.129 A 
ATOM     26  N   UNL     1       3.159  -4.441   3.109  0.00  0.00    -0.340 N 
ATOM     27  H   UNL     1       4.023  -4.008   3.195  0.00  0.00    +0.167 HD
ATOM     28  C   UNL     1       2.922  -5.801   3.111  0.00  0.00    +0.066 A 
ATOM     29  C   UNL     1       3.732  -6.923   3.224  0.00  0.00    +0.028 A 
ATOM     30  C   UNL     1       3.166  -8.180   3.188  0.00  0.00    +0.002 A 
ATOM     31  C   UNL     1       1.794  -8.329   3.040  0.00  0.00    +0.002 A 
ATOM     32  C   UNL     1       0.982  -7.237   2.927  0.00  0.00    +0.030 A 
ATOM     33  C   UNL     1       1.534  -5.953   2.961  0.00  0.00    +0.089 A 
ATOM     34  N   UNL     1       1.006  -4.705   2.882  0.00  0.00    -0.231 NA
ENDBRANCH  24  25
BRANCH  24  35
ATOM     35  C   UNL     1       0.997  -1.962   1.633  0.00  0.00    +0.041 C 
BRANCH  35  36
ATOM     36  C   UNL     1       0.902  -0.439   1.516  0.00  0.00    +0.071 C 
BRANCH  36  38
ATOM     37  C   UNL     1      -0.022   1.810   0.012  0.00  0.00    +0.084 C 
ATOM     38  S   UNL     1       0.002  -0.004   0.002  0.00  0.00    -0.164 S 
ENDBRANCH  36  38
ENDBRANCH  35  36
ENDBRANCH  24  35
ENDBRANCH   1  24
TORSDOF 9
