REMARK  Name = ZINC39775605
REMARK  8 active torsions:
REMARK  status: ('A' for Active; 'I' for Inactive)
REMARK    1  A    between atoms: C_1  and  C_2
REMARK    2  A    between atoms: C_2  and  C_3
REMARK    3  A    between atoms: C_3  and  C_5
REMARK    4  A    between atoms: C_3  and  S_6
REMARK    5  A    between atoms: S_6  and  C_7
REMARK    6  A    between atoms: C_13  and  C_27
REMARK    7  A    between atoms: C_18  and  C_22
REMARK    8  A    between atoms: C_18  and  C_23
REMARK                            x       y       z     vdW  Elec       q    Type
REMARK                         _______ _______ _______ _____ _____    ______ ____
ROOT
ATOM      1  C   UNL     1       3.102  -0.498  -2.760  0.00  0.00    +0.182 C 
ATOM      2  N   UNL     1       2.288  -1.092  -3.624  0.00  0.00    -0.154 NA
ATOM      3  C   UNL     1       2.731  -1.575  -4.776  0.00  0.00    +0.250 C 
ATOM      4  O   UNL     1       1.944  -2.067  -5.561  0.00  0.00    -0.273 OA
ATOM      5  C   UNL     1       4.185  -1.525  -5.125  0.00  0.00    +0.157 C 
ATOM      6  C   UNL     1       4.414  -1.000  -6.539  0.00  0.00    +0.075 C 
ATOM      7  C   UNL     1       5.904  -0.808  -6.736  0.00  0.00    +0.025 C 
ATOM      8  C   UNL     1       6.696  -0.421  -5.651  0.00  0.00    +0.051 C 
ATOM      9  C   UNL     1       8.177  -0.187  -5.842  0.00  0.00    +0.062 C 
ATOM     10  C   UNL     1       8.692  -1.114  -6.946  0.00  0.00    -0.023 C 
ATOM     11  C   UNL     1       7.903  -0.837  -8.229  0.00  0.00    +0.086 C 
ATOM     12  C   UNL     1       6.434  -1.019  -7.962  0.00  0.00    +0.162 C 
ATOM     13  O   UNL     1       5.627  -1.402  -8.968  0.00  0.00    -0.292 OA
ATOM     14  C   UNL     1       8.495  -2.572  -6.527  0.00  0.00    +0.011 C 
ATOM     15  C   UNL     1      10.179  -0.844  -7.190  0.00  0.00    +0.011 C 
ATOM     16  N   UNL     1       6.181  -0.280  -4.445  0.00  0.00    -0.236 NA
ATOM     17  C   UNL     1       4.949  -0.671  -4.152  0.00  0.00    +0.145 C 
ATOM     18  N   UNL     1       4.386  -0.265  -3.031  0.00  0.00    -0.208 NA
ENDROOT
BRANCH   6  19
ATOM     19  C   UNL     1       3.891  -1.994  -7.543  0.00  0.00    -0.021 A 
ATOM     20  C   UNL     1       2.896  -1.632  -8.437  0.00  0.00    +0.007 A 
ATOM     21  C   UNL     1       2.446  -2.580  -9.343  0.00  0.00    +0.020 A 
ATOM     22  C   UNL     1       3.000  -3.846  -9.324  0.00  0.00    +0.111 A 
ATOM     23  N   UNL     1       3.945  -4.156  -8.458  0.00  0.00    -0.263 NA
ATOM     24  C   UNL     1       4.402  -3.278  -7.586  0.00  0.00    +0.115 A 
ENDBRANCH   6  19
BRANCH   1  25
ATOM     25  S   UNL     1       2.460   0.006  -1.198  0.00  0.00    -0.085 S 
BRANCH  25  26
ATOM     26  C   UNL     1       0.718  -0.497  -1.257  0.00  0.00    +0.051 C 
ATOM     27  C   UNL     1       0.630  -2.023  -1.329  0.00  0.00    +0.019 C 
BRANCH  26  29
ATOM     28  C   UNL     1      -0.019   1.526   0.010  0.00  0.00    +0.005 C 
ATOM     29  C   UNL     1       0.002  -0.004   0.002  0.00  0.00    +0.011 C 
ENDBRANCH  26  29
ENDBRANCH  25  26
ENDBRANCH   1  25
TORSDOF 4
