REMARK  Name = ZINC03044044
REMARK  8 active torsions:
REMARK  status: ('A' for Active; 'I' for Inactive)
REMARK    1  A    between atoms: C_1  and  C_2
REMARK    2  A    between atoms: C_2  and  C_3
REMARK    3  A    between atoms: C_8  and  N_9
REMARK    4  A    between atoms: N_9  and  C_10
REMARK    5  A    between atoms: C_10  and  N_12
REMARK    6  A    between atoms: N_12  and  N_13
REMARK    7  A    between atoms: N_21  and  C_24
REMARK    8  A    between atoms: C_24  and  C_25
REMARK                            x       y       z     vdW  Elec       q    Type
REMARK                         _______ _______ _______ _____ _____    ______ ____
ROOT
ATOM      1  N   UNL     1      -3.996   0.094   2.553  0.00  0.00    -0.175 NA
ATOM      2  C   UNL     1      -5.291   0.296   2.598  0.00  0.00    +0.153 C 
ATOM      3  C   UNL     1      -6.168   0.775   1.503  0.00  0.00    +0.029 A 
ATOM      4  C   UNL     1      -5.929   1.138   0.182  0.00  0.00    +0.027 A 
ATOM      5  C   UNL     1      -6.979   1.555  -0.613  0.00  0.00    +0.019 A 
ATOM      6  C   UNL     1      -8.262   1.611  -0.095  0.00  0.00    +0.017 A 
ATOM      7  C   UNL     1      -8.508   1.253   1.215  0.00  0.00    +0.025 A 
ATOM      8  C   UNL     1      -7.464   0.830   2.030  0.00  0.00    +0.046 A 
ATOM      9  N   UNL     1      -7.438   0.421   3.359  0.00  0.00    -0.261 N 
ATOM     10  C   UNL     1      -6.194   0.090   3.747  0.00  0.00    +0.272 C 
ATOM     11  O   UNL     1      -5.869  -0.307   4.850  0.00  0.00    -0.268 OA
ATOM     12 BR   UNL     1      -6.662   2.050  -2.411  0.00  0.00    -0.050 Br
ENDROOT
BRANCH   1  13
ATOM     13  N   UNL     1      -3.320  -0.370   3.689  0.00  0.00    -0.217 N 
ATOM     14  H   UNL     1      -3.810  -0.543   4.508  0.00  0.00    +0.176 HD
BRANCH  13  15
ATOM     15  C   UNL     1      -1.989  -0.578   3.644  0.00  0.00    +0.154 C 
ATOM     16  S   UNL     1      -1.163  -1.146   5.032  0.00  0.00    -0.017 S 
BRANCH  15  17
ATOM     17  N   UNL     1      -1.308  -0.339   2.506  0.00  0.00    -0.295 N 
ATOM     18  H   UNL     1      -1.764   0.042   1.739  0.00  0.00    +0.154 HD
BRANCH  17  24
ATOM     19  C   UNL     1       0.554  -1.339   1.340  0.00  0.00    -0.026 A 
ATOM     20  C   UNL     1       1.903  -1.629   1.266  0.00  0.00    +0.005 A 
ATOM     21  C   UNL     1       2.755  -1.227   2.278  0.00  0.00    +0.000 A 
ATOM     22  C   UNL     1       2.260  -0.534   3.368  0.00  0.00    +0.002 A 
ATOM     23  C   UNL     1       0.913  -0.242   3.449  0.00  0.00    +0.023 A 
ATOM     24  C   UNL     1       0.056  -0.639   2.430  0.00  0.00    +0.036 A 
BRANCH  19  26
ATOM     25  C   UNL     1      -0.550  -0.635  -0.766  0.00  0.00    +0.009 C 
ATOM     26  C   UNL     1      -0.373  -1.778   0.236  0.00  0.00    +0.033 C 
ENDBRANCH  19  26
ENDBRANCH  17  24
ENDBRANCH  15  17
ENDBRANCH  13  15
ENDBRANCH   1  13
BRANCH   9  27
ATOM     27  C   UNL     1      -8.617   0.354   4.226  0.00  0.00    +0.152 C 
BRANCH  27  28
ATOM     28  C   UNL     1      -9.245  -1.012   4.114  0.00  0.00    +0.005 A 
ATOM     29  C   UNL     1     -10.350  -1.201   3.306  0.00  0.00    +0.008 A 
ATOM     30  C   UNL     1     -10.926  -2.453   3.204  0.00  0.00    +0.000 A 
ATOM     31  C   UNL     1     -10.397  -3.518   3.909  0.00  0.00    +0.003 A 
ATOM     32  C   UNL     1      -9.292  -3.332   4.717  0.00  0.00    +0.038 A 
ATOM     33  C   UNL     1      -8.711  -2.079   4.816  0.00  0.00    +0.128 A 
ATOM     34  F   UNL     1      -7.627  -1.897   5.602  0.00  0.00    -0.205 F 
ENDBRANCH  27  28
ENDBRANCH   9  27
TORSDOF 7
