REMARK  Name = ZINC08867993
REMARK  9 active torsions:
REMARK  status: ('A' for Active; 'I' for Inactive)
REMARK    1  A    between atoms: C_1  and  C_2
REMARK    2  A    between atoms: C_3  and  C_14
REMARK    3  A    between atoms: C_14  and  C_15
REMARK    4  A    between atoms: C_15  and  N_61
REMARK    5  A    between atoms: C_16  and  C_22
REMARK    6  A    between atoms: C_16  and  N_61
REMARK    7  A    between atoms: N_26  and  C_27
REMARK    8  A    between atoms: C_30  and  O_33
REMARK    9  A    between atoms: O_33  and  C_34
REMARK                            x       y       z     vdW  Elec       q    Type
REMARK                         _______ _______ _______ _____ _____    ______ ____
ROOT
ATOM      1  C   UNL     1      -0.575   1.811  -4.484  0.00  0.00    -0.005 C 
ATOM      2  C   UNL     1      -1.886   1.310  -5.095  0.00  0.00    -0.005 C 
ATOM      3  C   UNL     1      -1.667  -0.074  -5.708  0.00  0.00    -0.001 C 
ATOM      4  C   UNL     1      -0.598   0.015  -6.799  0.00  0.00    -0.000 C 
ATOM      5  C   UNL     1       0.713   0.515  -6.189  0.00  0.00    -0.001 C 
ATOM      6  C   UNL     1       0.494   1.899  -5.575  0.00  0.00    -0.005 C 
ENDROOT
BRANCH   1   7
ATOM      7  C   UNL     1      -0.791   3.174  -3.880  0.00  0.00    +0.146 A 
ATOM      8  N   UNL     1      -1.942   3.767  -3.696  0.00  0.00    -0.114 NA
ATOM      9  N   UNL     1      -1.775   4.921  -3.156  0.00  0.00    -0.023 NA
ATOM     10  N   UNL     1      -0.520   5.147  -2.967  0.00  0.00    -0.039 NA
ATOM     11  N   UNL     1       0.169   4.013  -3.434  0.00  0.00    -0.199 N 
BRANCH  11  12
ATOM     12  C   UNL     1       1.556   3.799  -3.436  0.00  0.00    +0.069 A 
ATOM     13  C   UNL     1       2.073   2.598  -2.971  0.00  0.00    +0.031 A 
ATOM     14  C   UNL     1       3.438   2.386  -2.979  0.00  0.00    +0.048 A 
ATOM     15  C   UNL     1       4.292   3.377  -3.439  0.00  0.00    +0.120 A 
ATOM     16  C   UNL     1       3.775   4.580  -3.898  0.00  0.00    +0.048 A 
ATOM     17  C   UNL     1       2.410   4.791  -3.897  0.00  0.00    +0.031 A 
BRANCH  15  18
ATOM     18  O   UNL     1       5.635   3.170  -3.441  0.00  0.00    -0.495 OA
ATOM     19  C   UNL     1       6.092   1.871  -3.059  0.00  0.00    +0.277 C 
ENDBRANCH  15  18
ENDBRANCH  11  12
ENDBRANCH   1   7
BRANCH   1  20
ATOM     20  N   UNL     1      -0.124   0.871  -3.440  0.00  0.00    +0.388 N 
ATOM     21  H   UNL     1       0.029  -0.053  -3.860  0.00  0.00    -0.084 HD
ATOM     22  H   UNL     1       0.755   1.213  -3.034  0.00  0.00    -0.084 HD
BRANCH  20  23
ATOM     23  C   UNL     1      -1.141   0.761  -2.377  0.00  0.00    -0.076 C 
BRANCH  23  24
ATOM     24  C   UNL     1      -0.604  -0.138  -1.261  0.00  0.00    +0.018 C 
BRANCH  24  27
ATOM     25  C   UNL     1      -2.788  -2.318  -0.932  0.00  0.00    +0.063 C 
ATOM     26  C   UNL     1      -2.565  -1.157   0.002  0.00  0.00    +0.017 A 
ATOM     27  C   UNL     1      -1.617  -0.218  -0.149  0.00  0.00    -0.020 A 
ATOM     28  C   UNL     1      -1.752   0.711   0.976  0.00  0.00    +0.023 A 
ATOM     29  C   UNL     1      -1.075   1.870   1.364  0.00  0.00    +0.050 A 
ATOM     30  C   UNL     1      -1.458   2.532   2.498  0.00  0.00    +0.022 A 
ATOM     31  C   UNL     1      -2.516   2.064   3.264  0.00  0.00    +0.023 A 
ATOM     32  C   UNL     1      -3.200   0.925   2.897  0.00  0.00    +0.065 A 
ATOM     33  C   UNL     1      -2.828   0.235   1.746  0.00  0.00    +0.067 A 
ATOM     34  N   UNL     1      -3.298  -0.902   1.129  0.00  0.00    -0.357 N 
ATOM     35  H   UNL     1      -4.038  -1.443   1.446  0.00  0.00    +0.166 HD
ATOM     36 CL   UNL     1      -4.521   0.352   3.866  0.00  0.00    -0.081 Cl
ATOM     37 CL   UNL     1       0.250   2.465   0.414  0.00  0.00    -0.083 Cl
ENDBRANCH  24  27
ENDBRANCH  23  24
ENDBRANCH  20  23
ENDBRANCH   1  20
TORSDOF 7
