REMARK  Name = ZINC12372456
REMARK  4 active torsions:
REMARK  status: ('A' for Active; 'I' for Inactive)
REMARK    1  A    between atoms: C_1  and  C_2
REMARK    2  A    between atoms: C_3  and  N_9
REMARK    3  A    between atoms: C_27  and  C_30
REMARK    4  A    between atoms: C_28  and  N_29
REMARK                            x       y       z     vdW  Elec       q    Type
REMARK                         _______ _______ _______ _____ _____    ______ ____
ROOT
ATOM      1  N   UNL     1      -4.901   3.063   0.050  0.00  0.00    -0.260 N 
ATOM      2  C   UNL     1      -4.400   3.538  -1.133  0.00  0.00    +0.025 C 
ATOM      3  C   UNL     1      -3.159   4.069  -1.192  0.00  0.00    +0.037 C 
ATOM      4  C   UNL     1      -2.644   4.574  -2.398  0.00  0.00    +0.162 C 
ATOM      5  O   UNL     1      -1.522   5.040  -2.418  0.00  0.00    -0.292 OA
ATOM      6  C   UNL     1      -3.455   4.551  -3.664  0.00  0.00    +0.080 C 
ATOM      7  C   UNL     1      -4.943   4.612  -3.305  0.00  0.00    +0.014 C 
ATOM      8  C   UNL     1      -5.265   3.449  -2.366  0.00  0.00    +0.052 C 
ATOM      9  C   UNL     1      -2.292   4.138   0.038  0.00  0.00    +0.141 C 
ATOM     10  C   UNL     1      -1.197   3.118  -0.034  0.00  0.00    -0.002 A 
ATOM     11  C   UNL     1      -1.236   1.741  -0.090  0.00  0.00    +0.007 A 
ATOM     12  C   UNL     1      -0.015   1.078  -0.147  0.00  0.00    +0.000 A 
ATOM     13  C   UNL     1       1.179   1.770  -0.157  0.00  0.00    +0.002 A 
ATOM     14  C   UNL     1       1.226   3.154  -0.106  0.00  0.00    +0.023 A 
ATOM     15  C   UNL     1       0.007   3.832  -0.044  0.00  0.00    +0.038 A 
ATOM     16  N   UNL     1      -0.240   5.192   0.015  0.00  0.00    -0.284 N 
ATOM     17  C   UNL     1      -1.560   5.465   0.067  0.00  0.00    +0.238 C 
ATOM     18  O   UNL     1      -2.066   6.566   0.125  0.00  0.00    -0.274 OA
ATOM     19  C   UNL     1      -3.097   3.972   1.291  0.00  0.00    +0.089 C 
ATOM     20  C   UNL     1      -4.350   3.446   1.252  0.00  0.00    +0.108 C 
ATOM     21  H   UNL     1       0.454   5.869   0.020  0.00  0.00    +0.155 HD
ENDROOT
BRANCH   1  24
ATOM     22  C   UNL     1      -7.524   4.144   0.273  0.00  0.00    +0.047 C 
ATOM     23  C   UNL     1      -7.281   2.663   0.143  0.00  0.00    -0.010 A 
ATOM     24  C   UNL     1      -5.984   2.177   0.037  0.00  0.00    +0.044 A 
ATOM     25  C   UNL     1      -5.765   0.811  -0.077  0.00  0.00    +0.024 A 
ATOM     26  C   UNL     1      -6.836  -0.061  -0.090  0.00  0.00    +0.003 A 
ATOM     27  C   UNL     1      -8.126   0.424   0.010  0.00  0.00    +0.020 A 
ATOM     28  C   UNL     1      -8.349   1.786   0.123  0.00  0.00    +0.046 A 
ATOM     29 CL   UNL     1      -9.971   2.392   0.248  0.00  0.00    -0.083 Cl
ENDBRANCH   1  24
BRANCH  20  30
ATOM     30  N   UNL     1      -5.069   3.299   2.414  0.00  0.00    -0.345 N 
ATOM     31  H   UNL     1      -4.681   3.569   3.261  0.00  0.00    +0.144 HD
ATOM     32  H   UNL     1      -5.963   2.924   2.387  0.00  0.00    +0.144 HD
ENDBRANCH  20  30
BRANCH  19  33
ATOM     33  C   UNL     1      -2.539   4.372   2.547  0.00  0.00    +0.100 C 
ATOM     34  N   UNL     1      -2.095   4.689   3.544  0.00  0.00    -0.191 NA
ENDBRANCH  19  33
TORSDOF 3
