REMARK  Name = ZINC63513869
REMARK  9 active torsions:
REMARK  status: ('A' for Active; 'I' for Inactive)
REMARK    1  A    between atoms: C_1  and  C_2
REMARK    2  A    between atoms: C_5  and  C_8
REMARK    3  A    between atoms: N_10  and  C_11
REMARK    4  A    between atoms: C_11  and  C_12
REMARK    5  A    between atoms: C_11  and  C_16
REMARK    6  A    between atoms: C_11  and  N_20
REMARK    7  A    between atoms: N_20  and  C_21
REMARK    8  A    between atoms: C_21  and  C_22
REMARK    9  A    between atoms: C_22  and  C_23
REMARK                            x       y       z     vdW  Elec       q    Type
REMARK                         _______ _______ _______ _____ _____    ______ ____
ROOT
ATOM      1  C   UNL     1       0.140  -6.398   1.211  0.00  0.00    +0.279 C 
ENDROOT
BRANCH   1   4
ATOM      2  C   UNL     1      -0.516  -4.054   1.108  0.00  0.00    +0.246 C 
ATOM      3  O   UNL     1      -1.223  -4.238   2.080  0.00  0.00    -0.270 OA
ATOM      4  N   UNL     1       0.174  -5.080   0.573  0.00  0.00    -0.279 N 
ATOM      5  H   UNL     1       0.694  -4.945  -0.235  0.00  0.00    +0.151 HD
BRANCH   2  10
ATOM      6  C   UNL     1      -0.122   1.200  -1.206  0.00  0.00    +0.044 C 
ATOM      7  C   UNL     1      -0.225  -0.176  -0.600  0.00  0.00    -0.050 A 
ATOM      8  C   UNL     1      -1.030  -0.383   0.506  0.00  0.00    +0.004 A 
ATOM      9  C   UNL     1      -1.129  -1.640   1.066  0.00  0.00    +0.013 A 
ATOM     10  C   UNL     1      -0.415  -2.704   0.513  0.00  0.00    +0.037 A 
ATOM     11  C   UNL     1       0.395  -2.489  -0.602  0.00  0.00    +0.013 A 
ATOM     12  C   UNL     1       0.481  -1.228  -1.156  0.00  0.00    +0.004 A 
ENDBRANCH   2  10
ENDBRANCH   1   4
BRANCH   1  13
ATOM     13  C   UNL     1      -1.230  -7.041   0.981  0.00  0.00    +0.433 C 
ATOM     14  F   UNL     1      -1.521  -7.039  -0.388  0.00  0.00    -0.167 F 
ATOM     15  F   UNL     1      -1.212  -8.357   1.453  0.00  0.00    -0.167 F 
ATOM     16  F   UNL     1      -2.207  -6.312   1.667  0.00  0.00    -0.167 F 
ENDBRANCH   1  13
BRANCH   1  17
ATOM     17  C   UNL     1       1.228  -7.287   0.604  0.00  0.00    +0.433 C 
ATOM     18  F   UNL     1       2.487  -6.784   0.951  0.00  0.00    -0.167 F 
ATOM     19  F   UNL     1       1.095  -8.589   1.097  0.00  0.00    -0.167 F 
ATOM     20  F   UNL     1       1.098  -7.299  -0.788  0.00  0.00    -0.167 F 
ENDBRANCH   1  17
BRANCH   1  21
ATOM     21  N   UNL     1       0.376  -6.251   2.653  0.00  0.00    -0.281 NA
ATOM     22  H   UNL     1       1.167  -5.650   2.831  0.00  0.00    +0.124 HD
BRANCH  21  23
ATOM     23  C   UNL     1       0.554  -7.560   3.294  0.00  0.00    +0.088 C 
BRANCH  23  24
ATOM     24  C   UNL     1       0.639  -7.378   4.811  0.00  0.00    +0.048 C 
BRANCH  24  25
ATOM     25  C   UNL     1       0.822  -8.722   5.468  0.00  0.00    -0.040 C 
ATOM     26  C   UNL     1       1.990  -9.293   5.840  0.00  0.00    -0.001 A 
ATOM     27  C   UNL     1       3.387  -8.851   5.746  0.00  0.00    +0.010 A 
ATOM     28  C   UNL     1       4.364  -9.660   6.215  0.00  0.00    +0.001 A 
ATOM     29  C   UNL     1       4.077 -10.907   6.787  0.00  0.00    +0.002 A 
ATOM     30  C   UNL     1       2.819 -11.382   6.908  0.00  0.00    +0.026 A 
ATOM     31  C   UNL     1       1.714 -10.614   6.449  0.00  0.00    +0.043 A 
ATOM     32  N   UNL     1       0.424 -10.850   6.453  0.00  0.00    -0.380 N 
ATOM     33  C   UNL     1      -0.264  -9.702   5.852  0.00  0.00    +0.144 C 
ATOM     34  H   UNL     1      -0.004 -11.649   6.799  0.00  0.00    +0.160 HD
ENDBRANCH  24  25
ENDBRANCH  23  24
ENDBRANCH  21  23
ENDBRANCH   1  21
TORSDOF 8
