REMARK  Name = ZINC46841723
REMARK  9 active torsions:
REMARK  status: ('A' for Active; 'I' for Inactive)
REMARK    1  A    between atoms: C_1  and  C_2
REMARK    2  A    between atoms: C_7  and  C_10
REMARK    3  A    between atoms: C_14  and  C_17
REMARK    4  A    between atoms: C_17  and  N_18
REMARK    5  A    between atoms: C_19  and  C_21
REMARK    6  A    between atoms: C_24  and  S_26
REMARK    7  A    between atoms: S_26  and  N_29
REMARK    8  A    between atoms: N_29  and  C_30
REMARK    9  A    between atoms: N_29  and  C_31
REMARK                            x       y       z     vdW  Elec       q    Type
REMARK                         _______ _______ _______ _____ _____    ______ ____
ROOT
ATOM      1  C   UNL     1      -4.185  -5.503  -3.188  0.00  0.00    +0.141 C 
ENDROOT
BRANCH   1  13
ATOM      2  C   UNL     1       0.024   1.508  -0.007  0.00  0.00    +0.039 C 
ATOM      3  C   UNL     1       0.027  -0.022  -0.001  0.00  0.00    +0.133 C 
ATOM      4  C   UNL     1      -1.417  -0.537   0.001  0.00  0.00    +0.137 C 
ATOM      5  N   UNL     1      -1.389  -1.995   0.196  0.00  0.00    -0.312 N 
ATOM      6  C   UNL     1      -0.598  -2.529   1.316  0.00  0.00    +0.137 C 
ATOM      7  C   UNL     1       0.806  -1.917   1.250  0.00  0.00    +0.133 C 
ATOM      8  O   UNL     1       0.698  -0.493   1.171  0.00  0.00    -0.371 OA
ATOM      9  C   UNL     1       1.591  -2.301   2.506  0.00  0.00    +0.039 C 
ATOM     10  C   UNL     1      -2.091  -2.844  -0.652  0.00  0.00    +0.099 A 
ATOM     11  C   UNL     1      -2.927  -2.308  -1.627  0.00  0.00    +0.042 A 
ATOM     12  C   UNL     1      -3.619  -3.164  -2.464  0.00  0.00    +0.010 A 
ATOM     13  C   UNL     1      -3.451  -4.533  -2.299  0.00  0.00    -0.014 A 
ATOM     14  C   UNL     1      -2.604  -4.995  -1.311  0.00  0.00    +0.089 A 
ATOM     15  N   UNL     1      -1.953  -4.155  -0.530  0.00  0.00    -0.349 N 
ATOM     16  H   UNL     1      -1.361  -4.507   0.154  0.00  0.00    +0.167 HD
ENDBRANCH   1  13
BRANCH   1  17
ATOM     17  N   UNL     1      -3.369  -5.796  -4.369  0.00  0.00    -0.305 N 
ATOM     18  C   UNL     1      -3.827  -6.645  -5.310  0.00  0.00    +0.280 C 
ATOM     19  O   UNL     1      -4.918  -7.168  -5.179  0.00  0.00    -0.267 OA
ATOM     20  H   UNL     1      -2.500  -5.378  -4.474  0.00  0.00    +0.149 HD
BRANCH  18  21
ATOM     21  C   UNL     1      -3.011  -6.938  -6.493  0.00  0.00    +0.192 A 
ATOM     22  C   UNL     1      -3.355  -7.770  -7.519  0.00  0.00    +0.057 A 
ATOM     23  C   UNL     1      -2.286  -7.753  -8.429  0.00  0.00    +0.072 A 
ATOM     24  C   UNL     1      -1.349  -6.921  -7.925  0.00  0.00    +0.259 A 
ATOM     25  O   UNL     1      -1.791  -6.428  -6.761  0.00  0.00    -0.432 OA
BRANCH  24  26
ATOM     26  S   UNL     1       0.199  -6.542  -8.677  0.00  0.00    +0.094 S 
ATOM     27  O   UNL     1       1.068  -6.127  -7.632  0.00  0.00    -0.150 OA
ATOM     28  O   UNL     1       0.509  -7.630  -9.538  0.00  0.00    -0.150 OA
BRANCH  26  29
ATOM     29  N   UNL     1      -0.039  -5.222  -9.649  0.00  0.00    -0.180 NA
ATOM     30  C   UNL     1       0.141  -3.873  -9.107  0.00  0.00    +0.131 C 
ATOM     31  C   UNL     1      -0.429  -5.404 -11.049  0.00  0.00    +0.131 C 
ENDBRANCH  26  29
ENDBRANCH  24  26
ENDBRANCH  18  21
ENDBRANCH   1  17
TORSDOF 5
