REMARK  Name = ZINC65182473
REMARK  9 active torsions:
REMARK  status: ('A' for Active; 'I' for Inactive)
REMARK    1  A    between atoms: C_1  and  C_2
REMARK    2  A    between atoms: C_2  and  C_3
REMARK    3  A    between atoms: C_6  and  C_33
REMARK    4  A    between atoms: C_11  and  C_13
REMARK    5  A    between atoms: C_16  and  C_19
REMARK    6  A    between atoms: C_19  and  C_20
REMARK    7  A    between atoms: C_20  and  N_21
REMARK    8  A    between atoms: N_21  and  C_22
REMARK    9  A    between atoms: C_23  and  C_25
REMARK                            x       y       z     vdW  Elec       q    Type
REMARK                         _______ _______ _______ _____ _____    ______ ____
ROOT
ATOM      1  C   UNL     1      -1.340  -2.674  -1.254  0.00  0.00    +0.318 C 
ATOM      2  N   UNL     1      -1.796  -4.073  -1.285  0.00  0.00    -0.291 N 
ATOM      3  C   UNL     1      -2.578  -4.212  -2.408  0.00  0.00    +0.139 C 
ATOM      4  N   UNL     1      -2.666  -3.110  -3.060  0.00  0.00    -0.072 NA
ATOM      5  O   UNL     1      -1.925  -2.081  -2.425  0.00  0.00    -0.367 OA
ATOM      6  H   UNL     1      -1.585  -4.764  -0.638  0.00  0.00    +0.151 HD
ENDROOT
BRANCH   1  15
ATOM      7  C   UNL     1      -1.412  -0.526   0.013  0.00  0.00    -0.033 C 
ATOM      8  C   UNL     1      -2.549   0.207   0.022  0.00  0.00    -0.000 A 
ATOM      9  C   UNL     1      -2.800   1.653   0.025  0.00  0.00    +0.013 A 
ATOM     10  C   UNL     1      -4.077   2.097   0.035  0.00  0.00    -0.050 A 
ATOM     11  C   UNL     1      -5.165   1.213   0.043  0.00  0.00    +0.005 A 
ATOM     12  C   UNL     1      -5.014  -0.129   0.041  0.00  0.00    +0.026 A 
ATOM     13  C   UNL     1      -3.714  -0.706   0.030  0.00  0.00    +0.043 A 
ATOM     14  N   UNL     1      -3.313  -1.954   0.026  0.00  0.00    -0.373 N 
ATOM     15  C   UNL     1      -1.847  -1.974   0.009  0.00  0.00    +0.169 C 
ATOM     16  C   UNL     1      -4.338   3.581   0.039  0.00  0.00    +0.044 C 
ATOM     17  H   UNL     1      -3.890  -2.734   0.030  0.00  0.00    +0.160 HD
BRANCH   7  19
ATOM     18  C   UNL     1      -0.019   1.526   0.010  0.00  0.00    +0.008 C 
ATOM     19  C   UNL     1       0.002  -0.004   0.002  0.00  0.00    +0.030 C 
ENDBRANCH   7  19
ENDBRANCH   1  15
BRANCH   3  20
ATOM     20  C   UNL     1      -3.249  -5.497  -2.820  0.00  0.00    +0.094 C 
BRANCH  20  21
ATOM     21  C   UNL     1      -4.031  -5.271  -4.115  0.00  0.00    +0.115 C 
BRANCH  21  22
ATOM     22  N   UNL     1      -4.683  -6.520  -4.516  0.00  0.00    -0.300 N 
ATOM     23  C   UNL     1      -6.035  -6.827  -4.041  0.00  0.00    +0.132 C 
ATOM     24  C   UNL     1      -4.039  -7.388  -5.322  0.00  0.00    +0.252 C 
ATOM     25  O   UNL     1      -2.917  -7.134  -5.716  0.00  0.00    -0.270 OA
BRANCH  24  26
ATOM     26  C   UNL     1      -4.696  -8.646  -5.725  0.00  0.00    +0.107 A 
ATOM     27  C   UNL     1      -5.470  -8.694  -6.890  0.00  0.00    +0.138 A 
ATOM     28  C   UNL     1      -6.081  -9.877  -7.261  0.00  0.00    +0.039 A 
ATOM     29  C   UNL     1      -5.929 -11.011  -6.484  0.00  0.00    +0.006 A 
ATOM     30  C   UNL     1      -5.166 -10.973  -5.332  0.00  0.00    +0.039 A 
ATOM     31  C   UNL     1      -4.543  -9.800  -4.949  0.00  0.00    +0.138 A 
ATOM     32  F   UNL     1      -3.793  -9.766  -3.826  0.00  0.00    -0.205 F 
ATOM     33  F   UNL     1      -5.620  -7.586  -7.649  0.00  0.00    -0.205 F 
ENDBRANCH  24  26
ENDBRANCH  21  22
ENDBRANCH  20  21
ENDBRANCH   3  20
TORSDOF 6
