REMARK  Name = ZINC35917888
REMARK  16 active torsions:
REMARK  status: ('A' for Active; 'I' for Inactive)
REMARK    1  A    between atoms: C_1  and  C_2
REMARK    2  A    between atoms: C_5  and  C_8
REMARK    3  A    between atoms: N_11  and  C_26
REMARK    4  A    between atoms: C_13  and  C_15
REMARK    5  A    between atoms: C_15  and  N_16
REMARK    6  A    between atoms: N_16  and  C_17
REMARK    7  A    between atoms: C_17  and  C_18
REMARK    8  A    between atoms: C_18  and  C_19
REMARK    9  A    between atoms: C_18  and  C_20
REMARK   10  A    between atoms: C_21  and  C_23
REMARK   11  A    between atoms: C_23  and  O_24
REMARK   12  A    between atoms: O_24  and  C_25
REMARK   13  A    between atoms: C_26  and  C_27
REMARK   14  A    between atoms: C_30  and  N_33
REMARK   15  A    between atoms: N_33  and  C_34
REMARK   16  A    between atoms: N_33  and  C_35
REMARK                            x       y       z     vdW  Elec       q    Type
REMARK                         _______ _______ _______ _____ _____    ______ ____
ROOT
ATOM      1  C   UNL     1      -0.015  -3.327   0.387  0.00  0.00    +0.005 C 
ATOM      2  C   UNL     1      -1.153  -3.891   1.265  0.00  0.00    -0.070 C 
ATOM      3  N   UNL     1      -0.732  -5.281   1.577  0.00  0.00    +0.383 N 
ATOM      4  C   UNL     1       0.731  -5.175   1.812  0.00  0.00    -0.073 C 
ATOM      5  C   UNL     1       1.226  -4.172   0.745  0.00  0.00    -0.005 C 
ATOM      6  H   UNL     1      -0.920  -5.891   0.795  0.00  0.00    -0.081 HD
ENDROOT
BRANCH   1  11
ATOM      7  C   UNL     1       0.912   2.238   1.638  0.00  0.00    +0.044 C 
ATOM      8  C   UNL     1       0.671   0.786   1.312  0.00  0.00    -0.050 A 
ATOM      9  C   UNL     1       0.613   0.374  -0.006  0.00  0.00    +0.003 A 
ATOM     10  C   UNL     1       0.392  -0.957  -0.305  0.00  0.00    +0.004 A 
ATOM     11  C   UNL     1       0.228  -1.876   0.714  0.00  0.00    -0.046 A 
ATOM     12  C   UNL     1       0.286  -1.465   2.032  0.00  0.00    +0.004 A 
ATOM     13  C   UNL     1       0.512  -0.134   2.331  0.00  0.00    +0.003 A 
ENDBRANCH   1  11
BRANCH   5  14
ATOM     14  C   UNL     1       2.327  -3.280   1.322  0.00  0.00    +0.110 C 
BRANCH  14  15
ATOM     15  N   UNL     1       3.544  -4.072   1.519  0.00  0.00    -0.299 N 
ATOM     16  C   UNL     1       3.754  -4.705   2.690  0.00  0.00    +0.241 C 
ATOM     17  O   UNL     1       2.971  -4.562   3.605  0.00  0.00    -0.273 OA
BRANCH  15  18
ATOM     18  C   UNL     1       4.532  -4.176   0.442  0.00  0.00    +0.110 C 
BRANCH  18  19
ATOM     19  C   UNL     1       5.475  -2.973   0.498  0.00  0.00    +0.000 C 
ATOM     20  C   UNL     1       6.307  -3.035   1.781  0.00  0.00    +0.009 C 
ATOM     21  C   UNL     1       6.407  -2.998  -0.715  0.00  0.00    +0.009 C 
ENDBRANCH  18  19
ENDBRANCH  15  18
BRANCH  16  22
ATOM     22  C   UNL     1       4.962  -5.590   2.862  0.00  0.00    +0.255 C 
BRANCH  22  23
ATOM     23  O   UNL     1       4.899  -6.239   4.133  0.00  0.00    -0.374 OA
ATOM     24  C   UNL     1       6.003  -7.107   4.398  0.00  0.00    +0.194 C 
ENDBRANCH  22  23
ENDBRANCH  16  22
ENDBRANCH  14  15
ENDBRANCH   5  14
BRANCH   3  25
ATOM     25  C   UNL     1      -1.413  -5.766   2.785  0.00  0.00    -0.043 C 
BRANCH  25  26
ATOM     26  C   UNL     1      -2.889  -5.893   2.513  0.00  0.00    -0.064 A 
ATOM     27  C   UNL     1      -3.728  -4.819   2.743  0.00  0.00    +0.003 A 
ATOM     28  C   UNL     1      -5.082  -4.932   2.495  0.00  0.00    +0.023 A 
ATOM     29  C   UNL     1      -5.601  -6.127   2.012  0.00  0.00    +0.029 A 
ATOM     30  C   UNL     1      -4.755  -7.204   1.782  0.00  0.00    +0.023 A 
ATOM     31  C   UNL     1      -3.401  -7.082   2.027  0.00  0.00    +0.003 A 
BRANCH  29  32
ATOM     32  N   UNL     1      -6.969  -6.245   1.760  0.00  0.00    -0.336 N 
ATOM     33  C   UNL     1      -7.860  -5.108   2.005  0.00  0.00    +0.129 C 
ATOM     34  C   UNL     1      -7.514  -7.506   1.251  0.00  0.00    +0.129 C 
ENDBRANCH  29  32
ENDBRANCH  25  26
ENDBRANCH   3  25
TORSDOF 10
