REMARK  Name = ZINC20478133
REMARK  6 active torsions:
REMARK  status: ('A' for Active; 'I' for Inactive)
REMARK    1  A    between atoms: C_1  and  C_2
REMARK    2  A    between atoms: C_2  and  C_4
REMARK    3  A    between atoms: C_2  and  N_21
REMARK    4  A    between atoms: C_7  and  S_10
REMARK    5  A    between atoms: S_10  and  N_13
REMARK    6  A    between atoms: N_13  and  C_14
REMARK                            x       y       z     vdW  Elec       q    Type
REMARK                         _______ _______ _______ _____ _____    ______ ____
ROOT
ATOM      1  C   UNL     1       6.457  -1.769   0.554  0.00  0.00    -0.062 A 
ATOM      2  C   UNL     1       5.854  -2.960   0.916  0.00  0.00    +0.004 A 
ATOM      3  C   UNL     1       4.598  -3.273   0.433  0.00  0.00    +0.029 A 
ATOM      4  C   UNL     1       3.943  -2.396  -0.411  0.00  0.00    +0.109 A 
ATOM      5  C   UNL     1       4.547  -1.208  -0.777  0.00  0.00    +0.029 A 
ATOM      6  C   UNL     1       5.802  -0.892  -0.291  0.00  0.00    +0.004 A 
ENDROOT
BRANCH   4   7
ATOM      7  S   UNL     1       2.341  -2.795  -1.026  0.00  0.00    +0.072 S 
ATOM      8  O   UNL     1       2.181  -4.198  -0.863  0.00  0.00    -0.150 OA
ATOM      9  O   UNL     1       2.220  -2.156  -2.290  0.00  0.00    -0.150 OA
BRANCH   7  10
ATOM     10  N   UNL     1       1.238  -2.074  -0.024  0.00  0.00    -0.216 N 
ATOM     11  H   UNL     1       0.547  -1.315  -0.421  0.00  0.00    +0.174 HD
BRANCH  10  12
ATOM     12  C   UNL     1       1.183  -2.429   1.326  0.00  0.00    +0.048 A 
ATOM     13  C   UNL     1       1.111  -1.444   2.303  0.00  0.00    +0.025 A 
ATOM     14  C   UNL     1       1.058  -1.798   3.637  0.00  0.00    +0.016 A 
ATOM     15  C   UNL     1       1.077  -3.133   4.000  0.00  0.00    +0.013 A 
ATOM     16  C   UNL     1       1.149  -4.117   3.030  0.00  0.00    +0.016 A 
ATOM     17  C   UNL     1       1.203  -3.768   1.695  0.00  0.00    +0.025 A 
ATOM     18  I   UNL     1       0.997  -3.666   6.025  0.00  0.00    -0.044 I 
ENDBRANCH  10  12
ENDBRANCH   7  10
ENDBRANCH   4   7
BRANCH   1  20
ATOM     19  C   UNL     1       8.876  -1.735   0.010  0.00  0.00    -0.009 C 
ATOM     20  C   UNL     1       7.827  -1.427   1.080  0.00  0.00    -0.047 C 
BRANCH  20  21
ATOM     21  N   UNL     1       7.879   0.001   1.420  0.00  0.00    +0.382 N 
ATOM     22  H   UNL     1       7.125   0.222   2.190  0.00  0.00    -0.089 HD
ATOM     23  H   UNL     1       7.671   0.600   0.521  0.00  0.00    -0.089 HD
ATOM     24  H   UNL     1       8.879   0.250   1.804  0.00  0.00    -0.089 HD
ENDBRANCH  20  21
ENDBRANCH   1  20
TORSDOF 5
