REMARK  Name = ZINC04816288
REMARK  7 active torsions:
REMARK  status: ('A' for Active; 'I' for Inactive)
REMARK    1  A    between atoms: C_1  and  C_2
REMARK    2  A    between atoms: C_8  and  C_10
REMARK    3  A    between atoms: C_10  and  C_12
REMARK    4  A    between atoms: C_10  and  S_13
REMARK    5  A    between atoms: S_13  and  C_14
REMARK    6  A    between atoms: C_17  and  C_20
REMARK    7  A    between atoms: N_18  and  C_19
REMARK                            x       y       z     vdW  Elec       q    Type
REMARK                         _______ _______ _______ _____ _____    ______ ____
ROOT
ATOM      1  C   UNL     1      -3.301   2.861  -0.126  0.00  0.00    +0.192 A 
ATOM      2  N   UNL     1      -2.517   3.860   0.215  0.00  0.00    -0.122 NA
ATOM      3  N   UNL     1      -1.300   3.456   0.306  0.00  0.00    -0.125 NA
ATOM      4  C   UNL     1      -1.231   2.174   0.020  0.00  0.00    +0.200 A 
ATOM      5  N   UNL     1      -2.513   1.754  -0.262  0.00  0.00    -0.303 N 
ATOM      6  C   UNL     1      -2.940   0.403  -0.631  0.00  0.00    +0.153 C 
ENDROOT
BRANCH   4   7
ATOM      7  C   UNL     1      -0.016   1.344   0.009  0.00  0.00    +0.173 A 
ATOM      8  C   UNL     1       1.255   1.821  -0.000  0.00  0.00    +0.061 A 
ATOM      9  C   UNL     1       2.128   0.646  -0.015  0.00  0.00    +0.021 A 
ATOM     10  C   UNL     1       3.512   0.462  -0.029  0.00  0.00    +0.011 A 
ATOM     11  C   UNL     1       4.027  -0.804  -0.041  0.00  0.00    +0.001 A 
ATOM     12  C   UNL     1       3.184  -1.906  -0.038  0.00  0.00    +0.004 A 
ATOM     13  C   UNL     1       1.814  -1.745  -0.025  0.00  0.00    +0.047 A 
ATOM     14  C   UNL     1       1.268  -0.468  -0.013  0.00  0.00    +0.136 A 
ATOM     15  O   UNL     1       0.002  -0.004   0.002  0.00  0.00    -0.452 OA
ENDBRANCH   4   7
BRANCH   1  16
ATOM     16  S   UNL     1      -5.045   2.937  -0.363  0.00  0.00    -0.074 S 
BRANCH  16  17
ATOM     17  C   UNL     1      -5.335   4.688  -0.008  0.00  0.00    +0.137 C 
ATOM     18  C   UNL     1      -4.637   5.545  -1.065  0.00  0.00    +0.029 C 
BRANCH  17  26
ATOM     19  C   UNL     1     -11.390   8.577   1.594  0.00  0.00    +0.066 C 
ATOM     20  C   UNL     1     -10.643   7.422   0.979  0.00  0.00    +0.047 A 
ATOM     21  C   UNL     1     -11.303   6.457   0.293  0.00  0.00    +0.071 A 
ATOM     22  S   UNL     1      -9.943   5.398  -0.181  0.00  0.00    -0.060 S 
ATOM     23  C   UNL     1      -8.671   6.320   0.559  0.00  0.00    +0.165 A 
ATOM     24  N   UNL     1      -9.334   7.324   1.099  0.00  0.00    -0.230 NA
ATOM     25  N   UNL     1      -7.305   6.063   0.582  0.00  0.00    -0.264 N 
ATOM     26  C   UNL     1      -6.816   4.967  -0.032  0.00  0.00    +0.232 C 
ATOM     27  O   UNL     1      -7.567   4.206  -0.604  0.00  0.00    -0.274 OA
ATOM     28  H   UNL     1      -6.704   6.672   1.039  0.00  0.00    +0.157 HD
ENDBRANCH  17  26
ENDBRANCH  16  17
ENDBRANCH   1  16
TORSDOF 4
