REMARK  Name = ZINC48901974
REMARK  7 active torsions:
REMARK  status: ('A' for Active; 'I' for Inactive)
REMARK    1  A    between atoms: C_1  and  C_2
REMARK    2  A    between atoms: C_2  and  C_4
REMARK    3  A    between atoms: C_2  and  C_23
REMARK    4  A    between atoms: C_4  and  N_5
REMARK    5  A    between atoms: C_6  and  C_8
REMARK    6  A    between atoms: N_10  and  C_11
REMARK    7  A    between atoms: C_16  and  N_17
REMARK                            x       y       z     vdW  Elec       q    Type
REMARK                         _______ _______ _______ _____ _____    ______ ____
ROOT
ATOM      1  C   UNL     1      -0.403  -0.057  -4.877  0.00  0.00    +0.303 C 
ATOM      2  O   UNL     1      -1.438   0.565  -4.750  0.00  0.00    -0.265 OA
ATOM      3  N   UNL     1       0.040  -0.385  -6.106  0.00  0.00    -0.276 N 
ATOM      4  H   UNL     1       0.905  -0.810  -6.213  0.00  0.00    +0.155 HD
ENDROOT
BRANCH   3   5
ATOM      5  C   UNL     1      -0.748  -0.111  -7.230  0.00  0.00    +0.055 A 
ATOM      6  C   UNL     1      -2.125   0.001  -7.103  0.00  0.00    +0.025 A 
ATOM      7  C   UNL     1      -2.901   0.271  -8.214  0.00  0.00    +0.002 A 
ATOM      8  C   UNL     1      -2.310   0.430  -9.454  0.00  0.00    +0.002 A 
ATOM      9  C   UNL     1      -0.939   0.320  -9.590  0.00  0.00    +0.025 A 
ATOM     10  C   UNL     1      -0.150   0.055  -8.480  0.00  0.00    +0.051 A 
BRANCH  10  11
ATOM     11  N   UNL     1       1.237  -0.050  -8.614  0.00  0.00    -0.328 N 
ATOM     12  C   UNL     1       1.865  -1.345  -8.912  0.00  0.00    +0.105 C 
ATOM     13  C   UNL     1       2.756  -1.188 -10.147  0.00  0.00    +0.019 C 
ATOM     14  C   UNL     1       3.750  -0.048  -9.913  0.00  0.00    +0.003 C 
ATOM     15  C   UNL     1       2.985   1.261  -9.700  0.00  0.00    +0.019 C 
ATOM     16  C   UNL     1       2.096   1.133  -8.465  0.00  0.00    +0.105 C 
ENDBRANCH  10  11
ENDBRANCH   3   5
BRANCH   1  18
ATOM     17  N   UNL     1      -0.064  -0.131  -2.440  0.00  0.00    -0.307 N 
ATOM     18  C   UNL     1       0.379  -0.458  -3.670  0.00  0.00    +0.299 C 
ATOM     19  O   UNL     1       1.414  -1.080  -3.796  0.00  0.00    -0.265 OA
ATOM     20  H   UNL     1      -0.891   0.366  -2.338  0.00  0.00    +0.149 HD
BRANCH  17  21
ATOM     21  C   UNL     1       0.704  -0.525  -1.256  0.00  0.00    +0.112 C 
BRANCH  21  23
ATOM     22  C   UNL     1      -0.025   1.497   0.019  0.00  0.00    +0.014 C 
ATOM     23  C   UNL     1      -0.013  -0.033   0.004  0.00  0.00    +0.033 C 
BRANCH  23  24
ATOM     24  C   UNL     1       0.709  -0.542   1.224  0.00  0.00    -0.043 A 
ATOM     25  C   UNL     1       2.030  -0.196   1.441  0.00  0.00    +0.004 A 
ATOM     26  C   UNL     1       2.692  -0.663   2.560  0.00  0.00    +0.000 A 
ATOM     27  C   UNL     1       2.034  -1.477   3.464  0.00  0.00    +0.000 A 
ATOM     28  C   UNL     1       0.713  -1.822   3.248  0.00  0.00    +0.000 A 
ATOM     29  C   UNL     1       0.049  -1.352   2.130  0.00  0.00    +0.004 A 
ENDBRANCH  23  24
ENDBRANCH  21  23
ENDBRANCH  17  21
ENDBRANCH   1  18
TORSDOF 6
