REMARK  Name = ZINC04230526
REMARK  4 active torsions:
REMARK  status: ('A' for Active; 'I' for Inactive)
REMARK    1  A    between atoms: C_5  and  C_11
REMARK    2  A    between atoms: C_11  and  C_13
REMARK    3  A    between atoms: C_11  and  N_51
REMARK    4  A    between atoms: N_17  and  C_18
REMARK                            x       y       z     vdW  Elec       q    Type
REMARK                         _______ _______ _______ _____ _____    ______ ____
ROOT
ATOM      1  C   UNL     1      -1.023   3.554   2.635  0.00  0.00    +0.033 C 
ENDROOT
BRANCH   1   6
ATOM      2  C   UNL     1       1.248   1.253   7.845  0.00  0.00    +0.020 A 
ATOM      3  C   UNL     1       0.255   1.716   7.029  0.00  0.00    +0.011 A 
ATOM      4  C   UNL     1       0.604   2.142   5.734  0.00  0.00    +0.001 A 
ATOM      5  C   UNL     1      -0.363   2.630   4.840  0.00  0.00    +0.012 A 
ATOM      6  C   UNL     1       0.015   3.032   3.595  0.00  0.00    -0.053 A 
ATOM      7  C   UNL     1       1.348   2.961   3.194  0.00  0.00    +0.004 A 
ATOM      8  C   UNL     1       2.311   2.499   4.037  0.00  0.00    +0.028 A 
ATOM      9  C   UNL     1       1.961   2.074   5.331  0.00  0.00    +0.071 A 
ATOM     10  N   UNL     1       2.884   1.610   6.178  0.00  0.00    -0.255 NA
ATOM     11  C   UNL     1       2.562   1.213   7.386  0.00  0.00    +0.111 A 
ENDBRANCH   1   6
BRANCH   1  17
ATOM     12  C   UNL     1      -0.735   1.625   1.207  0.00  0.00    -0.067 C 
ATOM     13  C   UNL     1       0.017   1.154  -0.043  0.00  0.00    +0.050 C 
ATOM     14  S   UNL     1      -0.830   1.821  -1.508  0.00  0.00    -0.164 S 
ATOM     15  C   UNL     1      -0.990   3.589  -1.108  0.00  0.00    +0.050 C 
ATOM     16  C   UNL     1      -1.600   3.714   0.293  0.00  0.00    -0.067 C 
ATOM     17  N   UNL     1      -0.676   3.104   1.276  0.00  0.00    +0.390 N 
ATOM     18  H   UNL     1       0.281   3.406   1.060  0.00  0.00    -0.080 HD
ENDBRANCH   1  17
BRANCH   1  19
ATOM     19  C   UNL     1      -2.383   3.049   3.042  0.00  0.00    +0.143 A 
ATOM     20  N   UNL     1      -2.848   1.834   2.878  0.00  0.00    -0.115 NA
ATOM     21  N   UNL     1      -4.044   1.798   3.355  0.00  0.00    -0.023 NA
ATOM     22  N   UNL     1      -4.354   2.958   3.821  0.00  0.00    -0.044 NA
ATOM     23  N   UNL     1      -3.354   3.755   3.651  0.00  0.00    -0.227 N 
BRANCH  23  24
ATOM     24  C   UNL     1      -3.289   5.165   4.044  0.00  0.00    +0.111 C 
ATOM     25  C   UNL     1      -3.532   5.302   5.561  0.00  0.00    +0.027 C 
ATOM     26  C   UNL     1      -4.357   6.607   5.696  0.00  0.00    +0.002 C 
ATOM     27  C   UNL     1      -5.290   6.551   4.462  0.00  0.00    +0.002 C 
ATOM     28  C   UNL     1      -4.406   5.959   3.345  0.00  0.00    +0.027 C 
ENDBRANCH  23  24
ENDBRANCH   1  19
TORSDOF 4
