REMARK  Name = ZINC62184072
REMARK  7 active torsions:
REMARK  status: ('A' for Active; 'I' for Inactive)
REMARK    1  A    between atoms: C_1  and  C_2
REMARK    2  A    between atoms: C_2  and  C_4
REMARK    3  A    between atoms: C_2  and  N_11
REMARK    4  A    between atoms: C_4  and  C_5
REMARK    5  A    between atoms: N_11  and  S_12
REMARK    6  A    between atoms: S_12  and  C_15
REMARK    7  A    between atoms: C_20  and  N_21
REMARK                            x       y       z     vdW  Elec       q    Type
REMARK                         _______ _______ _______ _____ _____    ______ ____
ROOT
ATOM      1  S   UNL     1      -1.999  -1.000   1.388  0.00  0.00    +0.060 S 
ATOM      2  O   UNL     1      -3.262  -1.614   1.171  0.00  0.00    -0.153 OA
ATOM      3  O   UNL     1      -0.897  -1.700   1.949  0.00  0.00    -0.153 OA
ENDROOT
BRANCH   1   4
ATOM      4  C   UNL     1      -2.289   0.396   2.423  0.00  0.00    +0.126 A 
ATOM      5  C   UNL     1      -1.523   0.587   3.557  0.00  0.00    +0.031 A 
ATOM      6  C   UNL     1      -1.749   1.683   4.370  0.00  0.00    +0.017 A 
ATOM      7  C   UNL     1      -2.744   2.591   4.051  0.00  0.00    +0.020 A 
ATOM      8  C   UNL     1      -3.514   2.405   2.919  0.00  0.00    +0.040 A 
ATOM      9  C   UNL     1      -3.284   1.309   2.097  0.00  0.00    +0.052 A 
ATOM     10 BR   UNL     1      -3.050   4.087   5.167  0.00  0.00    -0.050 Br
BRANCH   9  11
ATOM     11  N   UNL     1      -4.057   1.121   0.949  0.00  0.00    -0.356 N 
ATOM     12  H   UNL     1      -3.866   0.381   0.352  0.00  0.00    +0.142 HD
ATOM     13  H   UNL     1      -4.784   1.731   0.748  0.00  0.00    +0.142 HD
ENDBRANCH   9  11
ENDBRANCH   1   4
BRANCH   1  14
ATOM     14  N   UNL     1      -1.495  -0.424  -0.081  0.00  0.00    -0.187 NA
ATOM     15  H   UNL     1      -2.039  -0.567  -0.871  0.00  0.00    +0.148 HD
BRANCH  14  17
ATOM     16  C   UNL     1      -0.503   1.757  -0.575  0.00  0.00    +0.026 C 
ATOM     17  C   UNL     1      -0.227   0.303  -0.187  0.00  0.00    +0.078 C 
BRANCH  17  18
ATOM     18  C   UNL     1       0.649  -0.353  -1.256  0.00  0.00    +0.055 C 
BRANCH  18  19
ATOM     19  C   UNL     1       1.022  -1.745  -0.815  0.00  0.00    -0.046 A 
ATOM     20  C   UNL     1       2.170  -1.950  -0.072  0.00  0.00    +0.004 A 
ATOM     21  C   UNL     1       2.512  -3.227   0.333  0.00  0.00    +0.000 A 
ATOM     22  C   UNL     1       1.707  -4.298  -0.005  0.00  0.00    +0.000 A 
ATOM     23  C   UNL     1       0.560  -4.093  -0.748  0.00  0.00    +0.000 A 
ATOM     24  C   UNL     1       0.215  -2.816  -1.149  0.00  0.00    +0.004 A 
ENDBRANCH  18  19
ENDBRANCH  17  18
ENDBRANCH  14  17
ENDBRANCH   1  14
TORSDOF 6
