REMARK  Name = ZINC52634966
REMARK  8 active torsions:
REMARK  status: ('A' for Active; 'I' for Inactive)
REMARK    1  A    between atoms: C_1  and  C_2
REMARK    2  A    between atoms: C_2  and  C_3
REMARK    3  A    between atoms: C_2  and  C_4
REMARK    4  A    between atoms: C_4  and  C_5
REMARK    5  A    between atoms: C_8  and  O_29
REMARK    6  A    between atoms: C_9  and  C_11
REMARK    7  A    between atoms: C_15  and  C_27
REMARK    8  A    between atoms: C_17  and  C_19
REMARK                            x       y       z     vdW  Elec       q    Type
REMARK                         _______ _______ _______ _____ _____    ______ ____
ROOT
ATOM      1  C   UNL     1      -2.718  -1.548   4.679  0.00  0.00    +0.068 C 
ATOM      2  N   UNL     1      -3.374  -1.170   5.763  0.00  0.00    -0.179 NA
ATOM      3  C   UNL     1      -4.311  -1.921   6.334  0.00  0.00    +0.258 C 
ATOM      4  O   UNL     1      -4.892  -1.538   7.331  0.00  0.00    -0.272 OA
ATOM      5  C   UNL     1      -4.640  -3.264   5.715  0.00  0.00    +0.210 C 
ATOM      6  C   UNL     1      -3.862  -3.654   4.474  0.00  0.00    -0.011 C 
ATOM      7  C   UNL     1      -2.941  -2.770   4.013  0.00  0.00    +0.032 C 
ENDROOT
BRANCH   6   8
ATOM      8  C   UNL     1      -4.100  -4.934   3.793  0.00  0.00    -0.000 A 
ATOM      9  C   UNL     1      -3.624  -6.127   4.351  0.00  0.00    +0.029 A 
ATOM     10  C   UNL     1      -3.852  -7.324   3.705  0.00  0.00    +0.042 A 
ATOM     11  C   UNL     1      -4.550  -7.349   2.508  0.00  0.00    +0.021 A 
ATOM     12  C   UNL     1      -5.023  -6.176   1.950  0.00  0.00    +0.022 A 
ATOM     13  C   UNL     1      -4.809  -4.969   2.586  0.00  0.00    +0.048 A 
ATOM     14 CL   UNL     1      -5.411  -3.498   1.887  0.00  0.00    -0.083 Cl
ATOM     15 CL   UNL     1      -3.263  -8.805   4.395  0.00  0.00    -0.084 Cl
ENDBRANCH   6   8
BRANCH   1  20
ATOM     16  C   UNL     1      -0.030  -0.130   2.478  0.00  0.00    -0.046 A 
ATOM     17  C   UNL     1       0.221   1.083   3.101  0.00  0.00    +0.007 A 
ATOM     18  C   UNL     1      -0.479   1.444   4.235  0.00  0.00    +0.046 A 
ATOM     19  C   UNL     1      -1.441   0.594   4.759  0.00  0.00    +0.126 A 
ATOM     20  C   UNL     1      -1.698  -0.634   4.132  0.00  0.00    +0.040 A 
ATOM     21  C   UNL     1      -0.985  -0.985   2.981  0.00  0.00    +0.017 A 
BRANCH  19  22
ATOM     22  O   UNL     1      -2.129   0.947   5.874  0.00  0.00    -0.506 OA
ATOM     23  H   UNL     1      -2.944   1.436   5.694  0.00  0.00    +0.292 HD
ENDBRANCH  19  22
BRANCH  16  24
ATOM     24  C   UNL     1       0.742  -0.511   1.242  0.00  0.00    +0.038 C 
BRANCH  24  26
ATOM     25  C   UNL     1      -0.019   1.526   0.010  0.00  0.00    +0.007 C 
ATOM     26  C   UNL     1       0.002  -0.004   0.002  0.00  0.00    -0.013 C 
ATOM     27  C   UNL     1       0.718  -0.497  -1.257  0.00  0.00    +0.007 C 
ENDBRANCH  24  26
ENDBRANCH  16  24
ENDBRANCH   1  20
BRANCH   5  28
ATOM     28  C   UNL     1      -6.072  -3.269   5.374  0.00  0.00    +0.080 C 
ATOM     29  N   UNL     1      -7.177  -3.273   5.111  0.00  0.00    -0.195 NA
ENDBRANCH   5  28
TORSDOF 6
