REMARK  Name = ZINC63882395
REMARK  7 active torsions:
REMARK  status: ('A' for Active; 'I' for Inactive)
REMARK    1  A    between atoms: C_1  and  C_2
REMARK    2  A    between atoms: C_2  and  C_4
REMARK    3  A    between atoms: C_2  and  O_30
REMARK    4  A    between atoms: C_4  and  C_5
REMARK    5  A    between atoms: N_8  and  C_11
REMARK    6  A    between atoms: C_11  and  C_12
REMARK    7  A    between atoms: C_18  and  C_20
REMARK                            x       y       z     vdW  Elec       q    Type
REMARK                         _______ _______ _______ _____ _____    ______ ____
ROOT
ATOM      1  C   UNL     1       4.326  -5.111   2.309  0.00  0.00    +0.005 C 
ATOM      2  C   UNL     1       4.159  -5.497   0.838  0.00  0.00    +0.024 C 
ATOM      3  C   UNL     1       5.468  -6.104   0.322  0.00  0.00    +0.108 C 
ATOM      4  N   UNL     1       5.851  -7.218   1.199  0.00  0.00    -0.298 N 
ATOM      5  C   UNL     1       5.952  -6.977   2.645  0.00  0.00    +0.108 C 
ATOM      6  C   UNL     1       4.638  -6.361   3.135  0.00  0.00    +0.024 C 
ATOM      7  C   UNL     1       6.104  -8.439   0.688  0.00  0.00    +0.246 C 
ATOM      8  O   UNL     1       6.320  -9.377   1.431  0.00  0.00    -0.270 OA
ENDROOT
BRANCH   7   9
ATOM      9  C   UNL     1       6.120  -8.638  -0.778  0.00  0.00    +0.035 C 
ATOM     10  C   UNL     1       7.187  -8.195  -1.481  0.00  0.00    +0.017 C 
ATOM     11  C   UNL     1       7.168  -8.315  -2.977  0.00  0.00    +0.159 C 
ATOM     12  C   UNL     1       6.302  -9.508  -3.332  0.00  0.00    -0.018 C 
ATOM     13  C   UNL     1       7.025 -10.230  -4.205  0.00  0.00    +0.025 C 
ATOM     14  C   UNL     1       8.325  -9.683  -4.302  0.00  0.00    +0.106 C 
ATOM     15  N   UNL     1       8.460  -8.602  -3.585  0.00  0.00    -0.279 NA
ATOM     16  C   UNL     1       5.076  -9.773  -2.688  0.00  0.00    +0.007 C 
ATOM     17  C   UNL     1       4.980  -9.314  -1.409  0.00  0.00    +0.013 C 
ENDBRANCH   7   9
BRANCH   1  18
ATOM     18  C   UNL     1       3.032  -4.473   2.818  0.00  0.00    +0.072 C 
BRANCH  18  21
ATOM     19  C   UNL     1       2.811  -0.863   2.479  0.00  0.00    +0.055 C 
ATOM     20  C   UNL     1       3.668  -2.142   2.534  0.00  0.00    +0.086 C 
ATOM     21  N   UNL     1       2.773  -3.231   2.077  0.00  0.00    -0.334 NA
ATOM     22  N   UNL     1       1.417  -2.731   2.344  0.00  0.00    +0.400 N 
ATOM     23  N   UNL     1       1.481  -1.303   1.994  0.00  0.00    -0.345 NA
ATOM     24  H   UNL     1       0.744  -3.207   1.762  0.00  0.00    -0.033 HD
ATOM     25  H   UNL     1       0.742  -0.786   2.446  0.00  0.00    +0.104 HD
ATOM     26  H   UNL     1       1.185  -2.845   3.319  0.00  0.00    -0.033 HD
BRANCH  19  27
ATOM     27  C   UNL     1       3.423   0.145   1.504  0.00  0.00    +0.049 C 
BRANCH  27  29
ATOM     28  C   UNL     1       3.145   2.402   0.469  0.00  0.00    +0.037 C 
ATOM     29  C   UNL     1       2.610   1.441   1.532  0.00  0.00    +0.113 C 
BRANCH  29  30
ATOM     30  O   UNL     1       2.722   2.046   2.821  0.00  0.00    -0.392 OA
ATOM     31  H   UNL     1       3.628   2.273   3.072  0.00  0.00    +0.210 HD
ENDBRANCH  29  30
ENDBRANCH  27  29
ENDBRANCH  19  27
ENDBRANCH  18  21
ENDBRANCH   1  18
TORSDOF 6
