REMARK  Name = ZINC11818961
REMARK  8 active torsions:
REMARK  status: ('A' for Active; 'I' for Inactive)
REMARK    1  A    between atoms: C_1  and  C_2
REMARK    2  A    between atoms: C_7  and  C_8
REMARK    3  A    between atoms: C_7  and  N_62
REMARK    4  A    between atoms: C_11  and  S_20
REMARK    5  A    between atoms: N_12  and  C_13
REMARK    6  A    between atoms: C_13  and  C_14
REMARK    7  A    between atoms: S_20  and  C_23
REMARK    8  A    between atoms: C_23  and  C_24
REMARK                            x       y       z     vdW  Elec       q    Type
REMARK                         _______ _______ _______ _____ _____    ______ ____
ROOT
ATOM      1  C   UNL     1       0.426  -2.769  -3.746  0.00  0.00    +0.023 A 
ATOM      2  C   UNL     1       1.254  -3.234  -4.702  0.00  0.00    +0.133 A 
ATOM      3  N   UNL     1       2.449  -3.464  -4.140  0.00  0.00    -0.220 NA
ATOM      4  C   UNL     1       2.396  -3.154  -2.873  0.00  0.00    +0.251 A 
ATOM      5  N   UNL     1       1.152  -2.713  -2.587  0.00  0.00    -0.315 N 
ENDROOT
BRANCH   4   6
ATOM      6  S   UNL     1       3.727  -3.288  -1.726  0.00  0.00    +0.030 S 
ATOM      7  O   UNL     1       4.889  -2.974  -2.481  0.00  0.00    -0.166 OA
ATOM      8  O   UNL     1       3.339  -2.478  -0.625  0.00  0.00    -0.166 OA
BRANCH   6   9
ATOM      9  C   UNL     1       3.750  -5.035  -1.240  0.00  0.00    +0.179 C 
BRANCH   9  10
ATOM     10  C   UNL     1       4.879  -5.270  -0.235  0.00  0.00    +0.011 C 
ATOM     11  C   UNL     1       6.014  -6.207  -0.654  0.00  0.00    +0.005 C 
ATOM     12  C   UNL     1       4.991  -6.663   0.388  0.00  0.00    +0.005 C 
ENDBRANCH   9  10
ENDBRANCH   6   9
ENDBRANCH   4   6
BRANCH   1  13
ATOM     13  C   UNL     1      -1.020  -2.383  -3.920  0.00  0.00    -0.023 C 
BRANCH  13  20
ATOM     14  C   UNL     1      -4.655  -6.340  -1.973  0.00  0.00    +0.007 C 
ATOM     15  C   UNL     1      -3.844  -5.054  -2.139  0.00  0.00    -0.018 C 
ATOM     16  C   UNL     1      -4.156  -4.425  -3.500  0.00  0.00    -0.016 C 
ATOM     17  C   UNL     1      -3.296  -3.172  -3.686  0.00  0.00    -0.078 C 
ATOM     18  C   UNL     1      -1.542  -4.098  -2.294  0.00  0.00    -0.078 C 
ATOM     19  C   UNL     1      -2.349  -5.378  -2.066  0.00  0.00    -0.016 C 
ATOM     20  N   UNL     1      -1.870  -3.556  -3.630  0.00  0.00    +0.383 N 
ATOM     21  H   UNL     1      -1.692  -4.279  -4.336  0.00  0.00    -0.081 HD
ENDBRANCH  13  20
ENDBRANCH   1  13
BRANCH   5  22
ATOM     22  C   UNL     1       0.668  -2.263  -1.280  0.00  0.00    +0.128 C 
BRANCH  22  23
ATOM     23  C   UNL     1       0.713  -0.735  -1.217  0.00  0.00    +0.009 C 
ATOM     24  C   UNL     1       0.070  -0.260   0.088  0.00  0.00    +0.005 C 
ATOM     25  C   UNL     1       0.115   1.269   0.151  0.00  0.00    +0.000 C 
ATOM     26  C   UNL     1       1.570   1.739   0.097  0.00  0.00    +0.000 C 
ATOM     27  C   UNL     1       2.212   1.263  -1.207  0.00  0.00    +0.000 C 
ATOM     28  C   UNL     1       2.168  -0.265  -1.270  0.00  0.00    +0.005 C 
ENDBRANCH  22  23
ENDBRANCH   5  22
TORSDOF 7
