REMARK  Name = ZINC51847961
REMARK  10 active torsions:
REMARK  status: ('A' for Active; 'I' for Inactive)
REMARK    1  A    between atoms: C_1  and  C_2
REMARK    2  A    between atoms: C_5  and  C_11
REMARK    3  A    between atoms: C_6  and  C_10
REMARK    4  A    between atoms: C_7  and  O_8
REMARK    5  A    between atoms: O_8  and  C_9
REMARK    6  A    between atoms: C_11  and  N_12
REMARK    7  A    between atoms: C_13  and  C_15
REMARK    8  A    between atoms: N_17  and  C_18
REMARK    9  A    between atoms: C_23  and  C_24
REMARK   10  A    between atoms: C_24  and  C_25
REMARK                            x       y       z     vdW  Elec       q    Type
REMARK                         _______ _______ _______ _____ _____    ______ ____
ROOT
ATOM      1  C   UNL     1       3.125  -6.497  -0.310  0.00  0.00    +0.303 C 
ATOM      2  O   UNL     1       4.037  -5.697  -0.267  0.00  0.00    -0.265 OA
ATOM      3  N   UNL     1       3.390  -7.817  -0.377  0.00  0.00    -0.277 N 
ATOM      4  H   UNL     1       2.665  -8.460  -0.330  0.00  0.00    +0.155 HD
ENDROOT
BRANCH   3   5
ATOM      5  C   UNL     1       4.708  -8.260  -0.512  0.00  0.00    +0.037 A 
ATOM      6  C   UNL     1       5.666  -7.430  -1.082  0.00  0.00    +0.023 A 
ATOM      7  C   UNL     1       6.968  -7.871  -1.215  0.00  0.00    +0.002 A 
ATOM      8  C   UNL     1       7.319  -9.137  -0.782  0.00  0.00    +0.000 A 
ATOM      9  C   UNL     1       6.368  -9.965  -0.215  0.00  0.00    +0.006 A 
ATOM     10  C   UNL     1       5.065  -9.528  -0.073  0.00  0.00    -0.017 A 
BRANCH  10  11
ATOM     11  C   UNL     1       4.031 -10.430   0.551  0.00  0.00    +0.132 C 
BRANCH  11  12
ATOM     12  C   UNL     1       3.291 -11.171  -0.532  0.00  0.00    +0.215 C 
ATOM     13  O   UNL     1       3.575 -10.986  -1.696  0.00  0.00    -0.276 OA
ATOM     14  N   UNL     1       2.313 -12.040  -0.206  0.00  0.00    -0.329 N 
ATOM     15  H   UNL     1       2.086 -12.188   0.725  0.00  0.00    +0.145 HD
ATOM     16  H   UNL     1       1.837 -12.517  -0.903  0.00  0.00    +0.145 HD
ENDBRANCH  11  12
ENDBRANCH  10  11
ENDBRANCH   3   5
BRANCH   1  18
ATOM     17  N   UNL     1       1.446  -4.699  -0.223  0.00  0.00    -0.302 N 
ATOM     18  C   UNL     1       1.711  -6.019  -0.289  0.00  0.00    +0.300 C 
ATOM     19  O   UNL     1       0.799  -6.819  -0.332  0.00  0.00    -0.265 OA
ATOM     20  H   UNL     1       2.175  -4.060  -0.188  0.00  0.00    +0.150 HD
BRANCH  17  21
ATOM     21  C   UNL     1       0.059  -4.230  -0.202  0.00  0.00    +0.160 C 
BRANCH  21  26
ATOM     22  C   UNL     1      -0.019   1.504  -0.024  0.00  0.00    +0.049 C 
ATOM     23  C   UNL     1       0.001  -0.003  -0.031  0.00  0.00    +0.010 A 
ATOM     24  C   UNL     1       0.014  -0.697  -1.224  0.00  0.00    +0.118 A 
ATOM     25  N   UNL     1       0.032  -2.016  -1.239  0.00  0.00    -0.258 NA
ATOM     26  C   UNL     1       0.038  -2.725  -0.126  0.00  0.00    +0.065 A 
ATOM     27  C   UNL     1       0.026  -2.106   1.107  0.00  0.00    +0.014 A 
ATOM     28  C   UNL     1       0.012  -0.714   1.166  0.00  0.00    +0.129 A 
ATOM     29  C   UNL     1       0.033  -2.924   2.373  0.00  0.00    +0.049 C 
BRANCH  28  30
ATOM     30  O   UNL     1       0.004  -0.068   2.359  0.00  0.00    -0.494 OA
ATOM     31  C   UNL     1      -1.272   0.223   2.932  0.00  0.00    +0.277 C 
ENDBRANCH  28  30
ENDBRANCH  21  26
ENDBRANCH  17  21
ENDBRANCH   1  18
TORSDOF 7
