REMARK  Name = ZINC67571583
REMARK  4 active torsions:
REMARK  status: ('A' for Active; 'I' for Inactive)
REMARK    1  A    between atoms: C_5  and  C_8
REMARK    2  A    between atoms: C_11  and  C_13
REMARK    3  A    between atoms: C_18  and  C_21
REMARK    4  A    between atoms: C_28  and  C_30
REMARK                            x       y       z     vdW  Elec       q    Type
REMARK                         _______ _______ _______ _____ _____    ______ ____
ROOT
ATOM      1  C   UNL     1       5.426  -0.168  -2.481  0.00  0.00    +0.076 C 
ATOM      2  C   UNL     1       5.995   0.806  -1.448  0.00  0.00    +0.013 C 
ATOM      3  C   UNL     1       6.188   0.081  -0.115  0.00  0.00    +0.001 C 
ATOM      4  C   UNL     1       7.160  -1.085  -0.305  0.00  0.00    +0.013 C 
ATOM      5  C   UNL     1       6.591  -2.060  -1.338  0.00  0.00    +0.076 C 
ATOM      6  C   UNL     1       6.398  -1.335  -2.671  0.00  0.00    +0.025 C 
ENDROOT
BRANCH   1  13
ATOM      7  C   UNL     1       1.142   1.929  -0.880  0.00  0.00    +0.004 C 
ATOM      8  C   UNL     1       2.575   2.381  -1.171  0.00  0.00    +0.019 C 
ATOM      9  C   UNL     1       3.149   1.539  -2.316  0.00  0.00    +0.108 C 
ATOM     10  N   UNL     1       3.024   0.118  -1.966  0.00  0.00    -0.290 N 
ATOM     11  C   UNL     1       1.705  -0.402  -1.581  0.00  0.00    +0.162 C 
ATOM     12  C   UNL     1       1.147   0.461  -0.445  0.00  0.00    +0.032 C 
ATOM     13  C   UNL     1       4.099  -0.694  -1.998  0.00  0.00    +0.219 C 
ATOM     14  O   UNL     1       3.998  -1.848  -1.639  0.00  0.00    -0.275 OA
BRANCH  11  15
ATOM     15  C   UNL     1       1.840  -1.829  -1.116  0.00  0.00    +0.231 C 
ATOM     16  O   UNL     1       2.443  -2.079  -0.093  0.00  0.00    -0.274 OA
ATOM     17  N   UNL     1       1.291  -2.827  -1.835  0.00  0.00    -0.328 N 
ATOM     18  H   UNL     1       0.808  -2.627  -2.653  0.00  0.00    +0.145 HD
ATOM     19  H   UNL     1       1.378  -3.746  -1.536  0.00  0.00    +0.145 HD
ENDBRANCH  11  15
ENDBRANCH   1  13
BRANCH   5  20
ATOM     20  C   UNL     1       7.549  -3.209  -1.525  0.00  0.00    +0.219 C 
ATOM     21  O   UNL     1       8.077  -3.389  -2.602  0.00  0.00    -0.275 OA
ATOM     22  N   UNL     1       7.818  -4.036  -0.496  0.00  0.00    -0.290 N 
ATOM     23  C   UNL     1       7.098  -3.905   0.778  0.00  0.00    +0.108 C 
ATOM     24  C   UNL     1       8.120  -3.778   1.912  0.00  0.00    +0.019 C 
ATOM     25  C   UNL     1       9.088  -4.962   1.856  0.00  0.00    +0.004 C 
ATOM     26  C   UNL     1       9.840  -4.946   0.523  0.00  0.00    +0.032 C 
ATOM     27  C   UNL     1       8.834  -5.090  -0.628  0.00  0.00    +0.162 C 
BRANCH  27  28
ATOM     28  C   UNL     1       9.547  -4.941  -1.948  0.00  0.00    +0.231 C 
ATOM     29  O   UNL     1      10.184  -3.936  -2.182  0.00  0.00    -0.274 OA
ATOM     30  N   UNL     1       9.477  -5.924  -2.866  0.00  0.00    -0.328 N 
ATOM     31  H   UNL     1       8.967  -6.728  -2.679  0.00  0.00    +0.145 HD
ATOM     32  H   UNL     1       9.936  -5.828  -3.716  0.00  0.00    +0.145 HD
ENDBRANCH  27  28
ENDBRANCH   5  20
TORSDOF 4
