REMARK  Name = ZINC40014764
REMARK  4 active torsions:
REMARK  status: ('A' for Active; 'I' for Inactive)
REMARK    1  A    between atoms: C_15  and  C_17
REMARK    2  A    between atoms: C_20  and  O_23
REMARK    3  A    between atoms: O_23  and  C_24
REMARK    4  A    between atoms: C_24  and  C_25
REMARK                            x       y       z     vdW  Elec       q    Type
REMARK                         _______ _______ _______ _____ _____    ______ ____
ROOT
ATOM      1  C   UNL     1      -0.017   1.363   0.009  0.00  0.00    +0.001 A 
ATOM      2  C   UNL     1       1.173   2.078   0.002  0.00  0.00    +0.004 A 
ATOM      3  C   UNL     1       2.387   1.428  -0.016  0.00  0.00    +0.047 A 
ATOM      4  C   UNL     1       2.432   0.034  -0.027  0.00  0.00    +0.139 A 
ATOM      5  C   UNL     1       1.222  -0.679  -0.013  0.00  0.00    +0.064 A 
ATOM      6  C   UNL     1       0.002  -0.004   0.002  0.00  0.00    +0.015 A 
ATOM      7  C   UNL     1       1.261  -2.163  -0.008  0.00  0.00    +0.199 A 
ATOM      8  O   UNL     1       0.272  -2.857  -0.165  0.00  0.00    -0.287 OA
ATOM      9  C   UNL     1       2.604  -2.715   0.203  0.00  0.00    +0.072 A 
ATOM     10  C   UNL     1       3.708  -1.911   0.175  0.00  0.00    +0.199 A 
ATOM     11  O   UNL     1       3.635  -0.584  -0.052  0.00  0.00    -0.450 OA
ATOM     12  C   UNL     1       4.894  -2.746   0.427  0.00  0.00    +0.290 C 
ATOM     13  O   UNL     1       6.037  -2.336   0.473  0.00  0.00    -0.266 OA
ATOM     14  N   UNL     1       4.528  -4.032   0.600  0.00  0.00    -0.222 N 
ATOM     15  C   UNL     1       3.063  -4.110   0.471  0.00  0.00    +0.152 C 
ATOM     16  C   UNL     1       5.382  -5.096   0.856  0.00  0.00    +0.225 A 
ATOM     17  N   UNL     1       4.875  -6.311   0.998  0.00  0.00    -0.222 NA
ATOM     18  C   UNL     1       5.661  -7.347   1.242  0.00  0.00    +0.116 A 
ATOM     19  C   UNL     1       7.029  -7.148   1.349  0.00  0.00    +0.039 A 
ATOM     20  C   UNL     1       7.525  -5.863   1.194  0.00  0.00    +0.116 A 
ATOM     21  N   UNL     1       6.684  -4.872   0.946  0.00  0.00    -0.222 NA
ENDROOT
BRANCH  15  22
ATOM     22  C   UNL     1       2.690  -5.010  -0.679  0.00  0.00    -0.022 A 
ATOM     23  C   UNL     1       3.466  -5.026  -1.823  0.00  0.00    +0.009 A 
ATOM     24  C   UNL     1       3.126  -5.850  -2.878  0.00  0.00    +0.046 A 
ATOM     25  C   UNL     1       2.005  -6.662  -2.789  0.00  0.00    +0.121 A 
ATOM     26  C   UNL     1       1.229  -6.645  -1.640  0.00  0.00    +0.046 A 
ATOM     27  C   UNL     1       1.576  -5.823  -0.585  0.00  0.00    +0.009 A 
BRANCH  25  28
ATOM     28  O   UNL     1       1.668  -7.473  -3.826  0.00  0.00    -0.483 OA
BRANCH  28  29
ATOM     29  C   UNL     1       0.501  -8.282  -3.665  0.00  0.00    +0.324 C 
BRANCH  29  30
ATOM     30  C   UNL     1       0.287  -9.108  -4.907  0.00  0.00    +0.248 C 
ATOM     31  O   UNL     1       1.057  -9.014  -5.839  0.00  0.00    -0.272 OA
ATOM     32  N   UNL     1      -0.761  -9.953  -4.982  0.00  0.00    -0.327 N 
ATOM     33  H   UNL     1      -1.377 -10.028  -4.237  0.00  0.00    +0.145 HD
ATOM     34  H   UNL     1      -0.899 -10.485  -5.781  0.00  0.00    +0.145 HD
ENDBRANCH  29  30
ENDBRANCH  28  29
ENDBRANCH  25  28
ENDBRANCH  15  22
TORSDOF 4
