REMARK  Name = ZINC40314375
REMARK  14 active torsions:
REMARK  status: ('A' for Active; 'I' for Inactive)
REMARK    1  A    between atoms: C_1  and  N_2
REMARK    2  A    between atoms: N_2  and  C_3
REMARK    3  A    between atoms: N_2  and  C_4
REMARK    4  A    between atoms: C_7  and  C_10
REMARK    5  A    between atoms: C_10  and  N_11
REMARK    6  A    between atoms: N_11  and  C_12
REMARK    7  A    between atoms: N_11  and  C_26
REMARK    8  A    between atoms: C_12  and  C_13
REMARK    9  A    between atoms: C_13  and  C_15
REMARK   10  A    between atoms: C_13  and  O_25
REMARK   11  A    between atoms: C_15  and  O_16
REMARK   12  A    between atoms: O_16  and  C_17
REMARK   13  A    between atoms: C_20  and  O_23
REMARK   14  A    between atoms: O_23  and  C_24
REMARK                            x       y       z     vdW  Elec       q    Type
REMARK                         _______ _______ _______ _____ _____    ______ ____
ROOT
ATOM      1  N   UNL     1      -1.274  -2.988  -5.313  0.00  0.00    +0.387 N 
ATOM      2  H   UNL     1      -1.617  -2.042  -5.247  0.00  0.00    -0.081 HD
ENDROOT
BRANCH   1   3
ATOM      3  C   UNL     1      -1.719  -3.753  -4.141  0.00  0.00    -0.045 C 
ATOM      4  C   UNL     1      -1.609  -2.881  -2.879  0.00  0.00    +0.009 C 
ATOM      5  C   UNL     1      -1.763  -3.759  -1.615  0.00  0.00    +0.164 C 
ATOM      6  S   UNL     1      -1.146  -5.396  -2.182  0.00  0.00    -0.033 S 
ATOM      7  O   UNL     1      -2.208  -6.339  -2.116  0.00  0.00    -0.174 OA
ATOM      8  O   UNL     1       0.082  -5.680  -1.527  0.00  0.00    -0.174 OA
ATOM      9  C   UNL     1      -0.807  -4.998  -3.949  0.00  0.00    +0.151 C 
ENDBRANCH   1   3
BRANCH   1  10
ATOM     10  C   UNL     1       0.194  -2.975  -5.361  0.00  0.00    -0.042 C 
BRANCH  10  14
ATOM     11  C   UNL     1       1.704  -0.600  -2.145  0.00  0.00    +0.029 A 
ATOM     12  C   UNL     1       1.679  -1.984  -2.035  0.00  0.00    +0.023 A 
ATOM     13  C   UNL     1       1.190  -2.749  -3.076  0.00  0.00    +0.003 A 
ATOM     14  C   UNL     1       0.726  -2.138  -4.227  0.00  0.00    -0.064 A 
ATOM     15  C   UNL     1       0.750  -0.759  -4.339  0.00  0.00    +0.003 A 
ATOM     16  C   UNL     1       1.232   0.011  -3.300  0.00  0.00    +0.023 A 
BRANCH  11  18
ATOM     17  C   UNL     1       2.218   1.637  -1.208  0.00  0.00    +0.129 C 
ATOM     18  N   UNL     1       2.198   0.176  -1.094  0.00  0.00    -0.336 N 
ATOM     19  C   UNL     1       2.695  -0.470   0.123  0.00  0.00    +0.129 C 
ENDBRANCH  11  18
ENDBRANCH  10  14
ENDBRANCH   1  10
BRANCH   1  20
ATOM     20  C   UNL     1      -1.798  -3.615  -6.534  0.00  0.00    -0.043 C 
BRANCH  20  21
ATOM     21  C   UNL     1      -3.322  -3.481  -6.562  0.00  0.00    +0.135 C 
BRANCH  21  22
ATOM     22  O   UNL     1      -3.678  -2.098  -6.590  0.00  0.00    -0.390 OA
ATOM     23  H   UNL     1      -3.336  -1.619  -7.357  0.00  0.00    +0.210 HD
ENDBRANCH  21  22
BRANCH  21  24
ATOM     24  C   UNL     1      -3.872  -4.175  -7.810  0.00  0.00    +0.258 C 
BRANCH  24  25
ATOM     25  O   UNL     1      -5.300  -4.152  -7.778  0.00  0.00    -0.489 OA
BRANCH  25  26
ATOM     26  C   UNL     1      -5.951  -4.731  -8.822  0.00  0.00    +0.121 A 
ATOM     27  C   UNL     1      -5.228  -5.314  -9.852  0.00  0.00    +0.049 A 
ATOM     28  C   UNL     1      -5.889  -5.902 -10.913  0.00  0.00    +0.049 A 
ATOM     29  C   UNL     1      -7.276  -5.910 -10.947  0.00  0.00    +0.120 A 
ATOM     30  C   UNL     1      -7.999  -5.328  -9.917  0.00  0.00    +0.049 A 
ATOM     31  C   UNL     1      -7.338  -4.744  -8.854  0.00  0.00    +0.049 A 
BRANCH  29  32
ATOM     32  O   UNL     1      -7.927  -6.489 -11.992  0.00  0.00    -0.495 OA
ATOM     33  C   UNL     1      -9.355  -6.461 -11.962  0.00  0.00    +0.277 C 
ENDBRANCH  29  32
ENDBRANCH  25  26
ENDBRANCH  24  25
ENDBRANCH  21  24
ENDBRANCH  20  21
ENDBRANCH   1  20
TORSDOF 11
