REMARK  Name = ZINC14399221
REMARK  5 active torsions:
REMARK  status: ('A' for Active; 'I' for Inactive)
REMARK    1  A    between atoms: C_3  and  N_26
REMARK    2  A    between atoms: C_10  and  N_11
REMARK    3  A    between atoms: C_12  and  C_14
REMARK    4  A    between atoms: C_14  and  C_15
REMARK    5  A    between atoms: C_15  and  N_16
REMARK                            x       y       z     vdW  Elec       q    Type
REMARK                         _______ _______ _______ _____ _____    ______ ____
ROOT
ATOM      1  C   UNL     1       6.540  -1.301  -1.410  0.00  0.00    +0.026 A 
ATOM      2  C   UNL     1       7.779  -1.931  -1.358  0.00  0.00    +0.025 A 
ATOM      3  C   UNL     1       8.474  -2.224  -2.513  0.00  0.00    +0.038 A 
ATOM      4  C   UNL     1       7.918  -1.886  -3.761  0.00  0.00    +0.008 A 
ATOM      5  C   UNL     1       8.579  -2.158  -4.971  0.00  0.00    +0.030 A 
ATOM      6  C   UNL     1       7.977  -1.801  -6.140  0.00  0.00    +0.111 A 
ATOM      7  N   UNL     1       6.792  -1.206  -6.162  0.00  0.00    -0.263 NA
ATOM      8  C   UNL     1       6.119  -0.921  -5.072  0.00  0.00    +0.121 A 
ATOM      9  C   UNL     1       6.652  -1.249  -3.816  0.00  0.00    +0.023 A 
ATOM     10  C   UNL     1       5.967  -0.963  -2.618  0.00  0.00    +0.043 A 
ENDROOT
BRANCH   3  11
ATOM     11  N   UNL     1       9.720  -2.851  -2.444  0.00  0.00    -0.329 N 
ATOM     12  C   UNL     1       9.600  -4.200  -1.876  0.00  0.00    +0.105 C 
ATOM     13  C   UNL     1      10.954  -4.908  -1.950  0.00  0.00    +0.019 C 
ATOM     14  C   UNL     1      11.993  -4.097  -1.171  0.00  0.00    +0.003 C 
ATOM     15  C   UNL     1      12.063  -2.682  -1.752  0.00  0.00    +0.019 C 
ATOM     16  C   UNL     1      10.677  -2.038  -1.683  0.00  0.00    +0.105 C 
ENDBRANCH   3  11
BRANCH  10  17
ATOM     17  N   UNL     1       4.718  -0.336  -2.653  0.00  0.00    -0.285 N 
ATOM     18  C   UNL     1       3.854  -0.496  -1.631  0.00  0.00    +0.219 C 
ATOM     19  O   UNL     1       4.118  -1.262  -0.729  0.00  0.00    -0.275 OA
ATOM     20  H   UNL     1       4.473   0.215  -3.413  0.00  0.00    +0.155 HD
BRANCH  18  21
ATOM     21  C   UNL     1       2.561   0.277  -1.610  0.00  0.00    +0.118 C 
BRANCH  21  22
ATOM     22  C   UNL     1       1.770  -0.086  -0.351  0.00  0.00    +0.135 C 
BRANCH  22  23
ATOM     23  N   UNL     1       0.513   0.665  -0.330  0.00  0.00    -0.298 N 
ATOM     24  C   UNL     1      -0.592   0.129  -0.909  0.00  0.00    +0.203 A 
ATOM     25  N   UNL     1      -1.730   0.770  -0.916  0.00  0.00    -0.230 NA
ATOM     26  C   UNL     1      -1.846   1.966  -0.345  0.00  0.00    +0.115 A 
ATOM     27  C   UNL     1      -0.757   2.601   0.279  0.00  0.00    +0.072 A 
ATOM     28  C   UNL     1       0.477   1.873   0.263  0.00  0.00    +0.262 A 
ATOM     29  O   UNL     1       1.478   2.340   0.778  0.00  0.00    -0.267 OA
ATOM     30  C   UNL     1      -1.051   3.904   0.847  0.00  0.00    +0.023 A 
ATOM     31  C   UNL     1      -2.295   4.399   0.744  0.00  0.00    +0.048 A 
ATOM     32  S   UNL     1      -3.174   3.124  -0.140  0.00  0.00    -0.077 S 
ENDBRANCH  22  23
ENDBRANCH  21  22
ENDBRANCH  18  21
ENDBRANCH  10  17
TORSDOF 5
