REMARK  Name = ZINC05931555
REMARK  7 active torsions:
REMARK  status: ('A' for Active; 'I' for Inactive)
REMARK    1  A    between atoms: C_1  and  C_2
REMARK    2  A    between atoms: C_2  and  C_3
REMARK    3  A    between atoms: N_11  and  C_12
REMARK    4  A    between atoms: C_12  and  C_14
REMARK    5  A    between atoms: C_17  and  S_26
REMARK    6  A    between atoms: N_18  and  C_19
REMARK    7  A    between atoms: S_26  and  C_27
REMARK                            x       y       z     vdW  Elec       q    Type
REMARK                         _______ _______ _______ _____ _____    ______ ____
ROOT
ATOM      1  C   UNL     1      -1.082   3.223  -2.255  0.00  0.00    +0.288 C 
ATOM      2  O   UNL     1      -1.632   3.967  -3.050  0.00  0.00    -0.266 OA
ENDROOT
BRANCH   1  11
ATOM      3  C   UNL     1       3.026   4.018  -7.946  0.00  0.00    -0.046 A 
ATOM      4  C   UNL     1       3.890   3.166  -7.279  0.00  0.00    +0.006 A 
ATOM      5  C   UNL     1       3.578   2.663  -6.038  0.00  0.00    +0.027 A 
ATOM      6  C   UNL     1       2.368   2.999  -5.406  0.00  0.00    +0.055 A 
ATOM      7  C   UNL     1       1.515   3.864  -6.108  0.00  0.00    +0.039 A 
ATOM      8  C   UNL     1       1.828   4.367  -7.349  0.00  0.00    +0.020 A 
ATOM      9  S   UNL     1       0.127   4.049  -5.015  0.00  0.00    -0.052 S 
ATOM     10  C   UNL     1       0.711   2.998  -3.695  0.00  0.00    +0.164 A 
ATOM     11  N   UNL     1       0.120   2.703  -2.544  0.00  0.00    -0.151 NA
ATOM     12  N   UNL     1       1.921   2.580  -4.166  0.00  0.00    -0.335 N 
ATOM     13  H   UNL     1       2.469   1.985  -3.631  0.00  0.00    +0.168 HD
BRANCH   3  15
ATOM     14  C   UNL     1       4.148   5.876  -9.146  0.00  0.00    +0.009 C 
ATOM     15  C   UNL     1       3.386   4.558  -9.306  0.00  0.00    +0.032 C 
ENDBRANCH   3  15
ENDBRANCH   1  11
BRANCH   1  16
ATOM     16  C   UNL     1      -1.735   2.896  -0.983  0.00  0.00    +0.131 A 
ATOM     17  C   UNL     1      -2.952   3.342  -0.550  0.00  0.00    +0.145 A 
ATOM     18  N   UNL     1      -3.181   2.823   0.656  0.00  0.00    -0.229 NA
ATOM     19  C   UNL     1      -2.169   2.059   1.014  0.00  0.00    +0.174 A 
ATOM     20  N   UNL     1      -1.240   2.069   0.019  0.00  0.00    -0.283 N 
BRANCH  20  21
ATOM     21  C   UNL     1      -0.017   1.384   0.010  0.00  0.00    +0.049 A 
ATOM     22  C   UNL     1       1.177   2.093   0.002  0.00  0.00    +0.029 A 
ATOM     23  C   UNL     1       2.381   1.416  -0.013  0.00  0.00    +0.040 A 
ATOM     24  C   UNL     1       2.398   0.031  -0.020  0.00  0.00    +0.124 A 
ATOM     25  C   UNL     1       1.208  -0.677  -0.013  0.00  0.00    +0.040 A 
ATOM     26  C   UNL     1       0.002  -0.004   0.002  0.00  0.00    +0.029 A 
ATOM     27  F   UNL     1       3.576  -0.629  -0.035  0.00  0.00    -0.205 F 
ENDBRANCH  20  21
BRANCH  19  28
ATOM     28  S   UNL     1      -2.040   1.169   2.529  0.00  0.00    -0.091 S 
ATOM     29  C   UNL     1      -3.608   1.638   3.303  0.00  0.00    +0.093 C 
ENDBRANCH  19  28
ENDBRANCH   1  16
TORSDOF 5
