REMARK  Name = ZINC67548389
REMARK  6 active torsions:
REMARK  status: ('A' for Active; 'I' for Inactive)
REMARK    1  A    between atoms: C_6  and  C_11
REMARK    2  A    between atoms: C_11  and  C_13
REMARK    3  A    between atoms: C_11  and  O_30
REMARK    4  A    between atoms: C_13  and  N_14
REMARK    5  A    between atoms: N_17  and  C_18
REMARK    6  A    between atoms: C_20  and  C_26
REMARK                            x       y       z     vdW  Elec       q    Type
REMARK                         _______ _______ _______ _____ _____    ______ ____
ROOT
ATOM      1  N   UNL     1       6.743  -3.605  -1.550  0.00  0.00    -0.296 N 
ATOM      2  C   UNL     1       7.286  -4.017  -2.713  0.00  0.00    +0.304 C 
ATOM      3  O   UNL     1       6.791  -3.675  -3.770  0.00  0.00    -0.253 OA
ATOM      4  N   UNL     1       8.377  -4.808  -2.704  0.00  0.00    -0.265 N 
ATOM      5  H   UNL     1       7.138  -3.877  -0.707  0.00  0.00    +0.150 HD
ATOM      6  H   UNL     1       8.816  -5.020  -1.866  0.00  0.00    +0.157 HD
ENDROOT
BRANCH   4   7
ATOM      7  C   UNL     1       8.878  -5.324  -3.908  0.00  0.00    +0.100 A 
ATOM      8  C   UNL     1      10.164  -5.057  -4.293  0.00  0.00    +0.042 A 
ATOM      9  C   UNL     1      10.640  -5.586  -5.501  0.00  0.00    +0.073 A 
ATOM     10  C   UNL     1       9.832  -6.350  -6.271  0.00  0.00    +0.098 A 
ATOM     11  N   UNL     1       8.554  -6.616  -5.890  0.00  0.00    -0.327 N 
ATOM     12  H   UNL     1       7.990  -7.166  -6.456  0.00  0.00    +0.168 HD
ATOM     13  C   UNL     1       8.065  -6.130  -4.734  0.00  0.00    +0.270 A 
ATOM     14  O   UNL     1       6.918  -6.381  -4.402  0.00  0.00    -0.266 OA
BRANCH   9  15
ATOM     15  C   UNL     1      12.053  -5.302  -5.942  0.00  0.00    +0.419 C 
ATOM     16  F   UNL     1      12.294  -5.932  -7.168  0.00  0.00    -0.166 F 
ATOM     17  F   UNL     1      12.229  -3.921  -6.085  0.00  0.00    -0.166 F 
ATOM     18  F   UNL     1      12.947  -5.789  -4.984  0.00  0.00    -0.166 F 
ENDBRANCH   9  15
ENDBRANCH   4   7
BRANCH   1  19
ATOM     19  C   UNL     1       5.557  -2.745  -1.559  0.00  0.00    +0.141 C 
BRANCH  19  20
ATOM     20  C   UNL     1       5.147  -2.425  -0.120  0.00  0.00    +0.162 C 
BRANCH  20  26
ATOM     21  C   UNL     1       0.669   2.227  -0.077  0.00  0.00    +0.001 A 
ATOM     22  C   UNL     1       1.934   2.804   0.018  0.00  0.00    +0.001 A 
ATOM     23  C   UNL     1       3.056   2.035   0.029  0.00  0.00    +0.008 A 
ATOM     24  C   UNL     1       2.941   0.636  -0.056  0.00  0.00    -0.018 A 
ATOM     25  C   UNL     1       4.077  -0.191  -0.046  0.00  0.00    +0.014 A 
ATOM     26  C   UNL     1       3.927  -1.541  -0.130  0.00  0.00    -0.017 A 
ATOM     27  C   UNL     1       2.662  -2.118  -0.225  0.00  0.00    +0.007 A 
ATOM     28  C   UNL     1       1.540  -1.348  -0.236  0.00  0.00    +0.009 A 
ATOM     29  C   UNL     1       1.655   0.050  -0.152  0.00  0.00    -0.018 A 
ATOM     30  C   UNL     1       0.519   0.877  -0.161  0.00  0.00    +0.008 A 
ENDBRANCH  20  26
BRANCH  20  31
ATOM     31  O   UNL     1       4.850  -3.640   0.572  0.00  0.00    -0.386 OA
ATOM     32  H   UNL     1       4.130  -4.151   0.177  0.00  0.00    +0.210 HD
ENDBRANCH  20  31
ENDBRANCH  19  20
ENDBRANCH   1  19
TORSDOF 6
