REMARK  Name = ZINC36806149
REMARK  10 active torsions:
REMARK  status: ('A' for Active; 'I' for Inactive)
REMARK    1  A    between atoms: C_1  and  C_2
REMARK    2  A    between atoms: C_4  and  C_20
REMARK    3  A    between atoms: C_5  and  C_19
REMARK    4  A    between atoms: N_6  and  C_7
REMARK    5  A    between atoms: C_7  and  C_8
REMARK    6  A    between atoms: C_20  and  C_22
REMARK    7  A    between atoms: C_22  and  N_23
REMARK    8  A    between atoms: C_26  and  C_30
REMARK    9  A    between atoms: C_26  and  C_31
REMARK   10  A    between atoms: C_34  and  C_37
REMARK                            x       y       z     vdW  Elec       q    Type
REMARK                         _______ _______ _______ _____ _____    ______ ____
ROOT
ATOM      1  C   UNL     1       0.043  -3.379  -1.448  0.00  0.00    +0.183 C 
ATOM      2  O   UNL     1       0.060  -4.471  -0.920  0.00  0.00    -0.290 OA
ENDROOT
BRANCH   1   6
ATOM      3  C   UNL     1      -0.018   1.503   0.010  0.00  0.00    +0.063 C 
ATOM      4  C   UNL     1       0.002  -0.004   0.002  0.00  0.00    +0.017 A 
ATOM      5  C   UNL     1       0.008  -0.777  -1.097  0.00  0.00    +0.034 A 
ATOM      6  C   UNL     1       0.030  -2.167  -0.625  0.00  0.00    +0.040 A 
ATOM      7  C   UNL     1       0.035  -2.098   0.755  0.00  0.00    +0.027 A 
ATOM      8  N   UNL     1       0.023  -0.801   1.110  0.00  0.00    -0.344 N 
ATOM      9  C   UNL     1       0.056  -3.273   1.700  0.00  0.00    +0.064 C 
BRANCH   8  10
ATOM     10  C   UNL     1       0.029  -0.312   2.491  0.00  0.00    +0.169 C 
BRANCH  10  11
ATOM     11  C   UNL     1      -1.411  -0.163   2.985  0.00  0.00    +0.230 C 
ATOM     12  C   UNL     1      -1.411   0.243   4.465  0.00  0.00    +0.275 C 
ATOM     13  O   UNL     1      -2.771   0.387   4.890  0.00  0.00    -0.485 OA
ATOM     14  C   UNL     1      -3.597   1.090   4.068  0.00  0.00    +0.162 A 
ATOM     15  C   UNL     1      -4.798   1.576   4.564  0.00  0.00    +0.049 A 
ATOM     16  C   UNL     1      -5.649   2.289   3.741  0.00  0.00    +0.004 A 
ATOM     17  C   UNL     1      -5.306   2.519   2.421  0.00  0.00    +0.004 A 
ATOM     18  C   UNL     1      -4.111   2.038   1.921  0.00  0.00    +0.049 A 
ATOM     19  C   UNL     1      -3.251   1.323   2.743  0.00  0.00    +0.163 A 
ATOM     20  O   UNL     1      -2.074   0.863   2.238  0.00  0.00    -0.480 OA
ENDBRANCH  10  11
ENDBRANCH   8  10
ENDBRANCH   1   6
BRANCH   1  21
ATOM     21  C   UNL     1       0.035  -3.269  -2.951  0.00  0.00    +0.197 C 
BRANCH  21  22
ATOM     22  N   UNL     1       0.052  -4.611  -3.539  0.00  0.00    -0.216 N 
ATOM     23  C   UNL     1       1.175  -5.291  -3.842  0.00  0.00    +0.251 C 
ATOM     24  O   UNL     1       2.319  -4.922  -3.687  0.00  0.00    -0.272 OA
ATOM     25  C   UNL     1       0.710  -6.613  -4.419  0.00  0.00    +0.135 C 
ATOM     26  N   UNL     1      -0.759  -6.516  -4.368  0.00  0.00    -0.281 N 
ATOM     27  C   UNL     1      -1.047  -5.314  -3.836  0.00  0.00    +0.310 C 
ATOM     28  O   UNL     1      -2.178  -4.912  -3.648  0.00  0.00    -0.252 OA
ATOM     29  C   UNL     1       1.202  -7.778  -3.558  0.00  0.00    +0.047 C 
ATOM     30  H   UNL     1      -1.395  -7.188  -4.659  0.00  0.00    +0.152 HD
BRANCH  25  31
ATOM     31  C   UNL     1       1.183  -6.767  -5.841  0.00  0.00    -0.015 A 
ATOM     32  C   UNL     1       2.368  -6.175  -6.241  0.00  0.00    +0.007 A 
ATOM     33  C   UNL     1       2.806  -6.312  -7.542  0.00  0.00    +0.019 A 
ATOM     34  C   UNL     1       2.051  -7.051  -8.456  0.00  0.00    +0.052 A 
ATOM     35  C   UNL     1       0.856  -7.646  -8.045  0.00  0.00    +0.019 A 
ATOM     36  C   UNL     1       0.432  -7.505  -6.740  0.00  0.00    +0.007 A 
BRANCH  34  37
ATOM     37  C   UNL     1       2.500  -7.196  -9.808  0.00  0.00    +0.099 C 
ATOM     38  N   UNL     1       2.856  -7.312 -10.880  0.00  0.00    -0.191 NA
ENDBRANCH  34  37
ENDBRANCH  25  31
ENDBRANCH  21  22
ENDBRANCH   1  21
TORSDOF 7
