REMARK  Name = ZINC39691299
REMARK  7 active torsions:
REMARK  status: ('A' for Active; 'I' for Inactive)
REMARK    1  A    between atoms: C_10  and  C_11
REMARK    2  A    between atoms: C_11  and  C_12
REMARK    3  A    between atoms: N_14  and  C_15
REMARK    4  A    between atoms: C_15  and  C_16
REMARK    5  A    between atoms: C_16  and  N_17
REMARK    6  A    between atoms: C_18  and  C_20
REMARK    7  A    between atoms: C_31  and  C_33
REMARK                            x       y       z     vdW  Elec       q    Type
REMARK                         _______ _______ _______ _____ _____    ______ ____
ROOT
ATOM      1  N   UNL     1       9.510   3.993   3.055  0.00  0.00    -0.314 N 
ATOM      2  C   UNL     1      10.056   3.191   3.990  0.00  0.00    +0.218 C 
ATOM      3  O   UNL     1      10.398   2.064   3.699  0.00  0.00    -0.275 OA
ATOM      4  H   UNL     1       9.237   4.894   3.288  0.00  0.00    +0.149 HD
ENDROOT
BRANCH   2   5
ATOM      5  C   UNL     1      10.243   3.694   5.399  0.00  0.00    +0.100 C 
ATOM      6  C   UNL     1      10.216   2.516   6.399  0.00  0.00    +0.121 C 
ATOM      7  N   UNL     1      11.642   2.165   6.601  0.00  0.00    -0.296 N 
ATOM      8  C   UNL     1      12.341   3.471   6.641  0.00  0.00    +0.115 C 
ATOM      9  C   UNL     1      11.638   4.320   5.563  0.00  0.00    -0.004 C 
ATOM     10  C   UNL     1      12.409   4.246   4.249  0.00  0.00    -0.010 C 
ATOM     11  C   UNL     1      13.770   4.926   4.422  0.00  0.00    -0.082 C 
ATOM     12  N   UNL     1      13.573   6.325   4.819  0.00  0.00    +0.379 N 
ATOM     13  C   UNL     1      12.913   6.386   6.129  0.00  0.00    -0.082 C 
ATOM     14  C   UNL     1      11.516   5.768   6.028  0.00  0.00    -0.010 C 
ATOM     15  C   UNL     1      12.180   0.935   6.723  0.00  0.00    +0.248 C 
ATOM     16  O   UNL     1      13.362   0.812   6.982  0.00  0.00    -0.270 OA
ATOM     17  H   UNL     1      14.469   6.787   4.873  0.00  0.00    -0.086 HD
ATOM     18  H   UNL     1      12.999   6.790   4.132  0.00  0.00    -0.086 HD
BRANCH  15  19
ATOM     19  C   UNL     1      11.335  -0.263   6.541  0.00  0.00    +0.055 A 
ATOM     20  C   UNL     1      10.006  -0.255   6.968  0.00  0.00    +0.014 A 
ATOM     21  C   UNL     1       9.222  -1.376   6.794  0.00  0.00    +0.001 A 
ATOM     22  C   UNL     1       9.750  -2.509   6.199  0.00  0.00    +0.001 A 
ATOM     23  C   UNL     1      11.066  -2.525   5.774  0.00  0.00    +0.021 A 
ATOM     24  C   UNL     1      11.861  -1.407   5.935  0.00  0.00    +0.053 A 
ATOM     25 CL   UNL     1      13.510  -1.426   5.394  0.00  0.00    -0.083 Cl
ENDBRANCH  15  19
ENDBRANCH   2   5
BRANCH   1  26
ATOM     26  C   UNL     1       9.329   3.504   1.686  0.00  0.00    +0.123 C 
BRANCH  26  27
ATOM     27  C   UNL     1       8.694   4.603   0.832  0.00  0.00    +0.123 C 
BRANCH  27  30
ATOM     28  C   UNL     1       7.967   4.916  -1.472  0.00  0.00    +0.217 C 
ATOM     29  O   UNL     1       7.625   6.043  -1.181  0.00  0.00    -0.275 OA
ATOM     30  N   UNL     1       8.513   4.114  -0.537  0.00  0.00    -0.314 N 
ATOM     31  H   UNL     1       8.786   3.213  -0.770  0.00  0.00    +0.149 HD
BRANCH  28  32
ATOM     32  C   UNL     1       7.780   4.413  -2.881  0.00  0.00    +0.131 C 
BRANCH  32  42
ATOM     33  C   UNL     1       9.509   8.434  -5.534  0.00  0.00    +0.001 A 
ATOM     34  C   UNL     1      10.105   7.441  -4.758  0.00  0.00    +0.001 A 
ATOM     35  C   UNL     1       9.357   6.475  -4.160  0.00  0.00    +0.009 A 
ATOM     36  C   UNL     1       7.961   6.476  -4.324  0.00  0.00    -0.014 A 
ATOM     37  C   UNL     1       7.354   7.486  -5.113  0.00  0.00    -0.018 A 
ATOM     38  C   UNL     1       8.161   8.467  -5.715  0.00  0.00    +0.008 A 
ATOM     39  C   UNL     1       5.959   7.487  -5.277  0.00  0.00    +0.008 A 
ATOM     40  C   UNL     1       5.210   6.521  -4.678  0.00  0.00    +0.001 A 
ATOM     41  C   UNL     1       5.806   5.528  -3.903  0.00  0.00    +0.005 A 
ATOM     42  C   UNL     1       7.155   5.495  -3.722  0.00  0.00    -0.031 A 
ENDBRANCH  32  42
ENDBRANCH  28  32
ENDBRANCH  27  30
ENDBRANCH  26  27
ENDBRANCH   1  26
TORSDOF 7
