REMARK  Name = ZINC16183284
REMARK  6 active torsions:
REMARK  status: ('A' for Active; 'I' for Inactive)
REMARK    1  A    between atoms: C_4  and  C_7
REMARK    2  A    between atoms: C_8  and  C_9
REMARK    3  A    between atoms: C_8  and  N_21
REMARK    4  A    between atoms: N_11  and  C_12
REMARK    5  A    between atoms: C_15  and  N_18
REMARK    6  A    between atoms: C_22  and  C_24
REMARK                            x       y       z     vdW  Elec       q    Type
REMARK                         _______ _______ _______ _____ _____    ______ ____
ROOT
ATOM      1  C   UNL     1       1.512  -4.915  -0.007  0.00  0.00    +0.036 C 
ATOM      2  C   UNL     1       2.646  -4.258  -0.347  0.00  0.00    +0.097 C 
ENDROOT
BRANCH   1   6
ATOM      3  C   UNL     1      -2.250  -2.998  -0.402  0.00  0.00    +0.000 A 
ATOM      4  C   UNL     1      -2.139  -4.355  -0.652  0.00  0.00    +0.001 A 
ATOM      5  C   UNL     1      -0.920  -4.986  -0.526  0.00  0.00    +0.008 A 
ATOM      6  C   UNL     1       0.207  -4.250  -0.144  0.00  0.00    -0.023 A 
ATOM      7  C   UNL     1       0.086  -2.881   0.112  0.00  0.00    +0.008 A 
ATOM      8  C   UNL     1      -1.140  -2.264  -0.025  0.00  0.00    +0.001 A 
ENDBRANCH   1   6
BRANCH   2   9
ATOM      9  C   UNL     1       2.565  -2.950  -1.012  0.00  0.00    +0.262 C 
ATOM     10  O   UNL     1       2.713  -1.929  -0.367  0.00  0.00    -0.268 OA
ATOM     11  N   UNL     1       2.327  -2.881  -2.337  0.00  0.00    -0.280 N 
ATOM     12  H   UNL     1       2.154  -3.692  -2.841  0.00  0.00    +0.155 HD
BRANCH  11  13
ATOM     13  C   UNL     1       2.329  -1.642  -2.985  0.00  0.00    +0.034 A 
ATOM     14  C   UNL     1       2.814  -1.535  -4.282  0.00  0.00    +0.025 A 
ATOM     15  C   UNL     1       2.814  -0.310  -4.918  0.00  0.00    +0.034 A 
ATOM     16  C   UNL     1       2.332   0.810  -4.266  0.00  0.00    +0.126 A 
ATOM     17  C   UNL     1       1.849   0.707  -2.974  0.00  0.00    +0.034 A 
ATOM     18  C   UNL     1       1.846  -0.515  -2.332  0.00  0.00    +0.025 A 
BRANCH  16  19
ATOM     19  N   UNL     1       2.334   2.122  -4.951  0.00  0.00    +0.056 N 
ATOM     20  O   UNL     1       2.760   2.214  -6.089  0.00  0.00    -0.126 OA
ATOM     21  O   UNL     1       1.910   3.110  -4.378  0.00  0.00    -0.126 OA
ENDBRANCH  16  19
ENDBRANCH  11  13
ENDBRANCH   2   9
BRANCH   2  22
ATOM     22  N   UNL     1       3.892  -4.823  -0.065  0.00  0.00    -0.275 N 
ATOM     23  C   UNL     1       5.018  -4.116  -0.286  0.00  0.00    +0.284 C 
ATOM     24  O   UNL     1       4.947  -2.954  -0.643  0.00  0.00    -0.266 OA
ATOM     25  H   UNL     1       3.947  -5.724   0.291  0.00  0.00    +0.155 HD
BRANCH  23  26
ATOM     26  C   UNL     1       6.328  -4.746  -0.098  0.00  0.00    +0.191 A 
ATOM     27  C   UNL     1       7.541  -4.148  -0.291  0.00  0.00    +0.056 A 
ATOM     28  C   UNL     1       8.517  -5.111   0.005  0.00  0.00    +0.058 A 
ATOM     29  C   UNL     1       7.865  -6.244   0.356  0.00  0.00    +0.171 A 
ATOM     30  O   UNL     1       6.546  -6.019   0.293  0.00  0.00    -0.444 OA
ATOM     31 BR   UNL     1       8.682  -7.875   0.854  0.00  0.00    -0.008 Br
ENDBRANCH  23  26
ENDBRANCH   2  22
TORSDOF 6
