REMARK  Name = ZINC06589098
REMARK  7 active torsions:
REMARK  status: ('A' for Active; 'I' for Inactive)
REMARK    1  A    between atoms: C_1  and  N_2
REMARK    2  A    between atoms: C_9  and  C_17
REMARK    3  A    between atoms: C_10  and  C_11
REMARK    4  A    between atoms: C_17  and  C_19
REMARK    5  A    between atoms: C_19  and  N_45
REMARK    6  A    between atoms: C_20  and  C_21
REMARK    7  A    between atoms: C_20  and  N_45
REMARK                            x       y       z     vdW  Elec       q    Type
REMARK                         _______ _______ _______ _____ _____    ______ ____
ROOT
ATOM      1  C   UNL     1      -0.374   1.346   8.595  0.00  0.00    +0.149 C 
ATOM      2  N   UNL     1      -0.091   1.149   7.171  0.00  0.00    -0.342 N 
ATOM      3  C   UNL     1       0.971   0.419   6.674  0.00  0.00    +0.050 A 
ATOM      4  C   UNL     1       2.002  -0.286   7.288  0.00  0.00    +0.026 A 
ATOM      5  C   UNL     1       2.945  -0.934   6.521  0.00  0.00    +0.002 A 
ATOM      6  C   UNL     1       2.880  -0.893   5.136  0.00  0.00    +0.001 A 
ATOM      7  C   UNL     1       1.868  -0.199   4.509  0.00  0.00    +0.011 A 
ATOM      8  C   UNL     1       0.907   0.461   5.272  0.00  0.00    +0.011 A 
ATOM      9  C   UNL     1      -0.277   1.274   4.938  0.00  0.00    +0.049 A 
ATOM     10  C   UNL     1      -0.834   1.664   6.154  0.00  0.00    +0.060 A 
ENDROOT
BRANCH  10  11
ATOM     11  C   UNL     1      -2.040   2.500   6.313  0.00  0.00    -0.001 A 
ATOM     12  C   UNL     1      -2.201   3.653   5.541  0.00  0.00    +0.010 A 
ATOM     13  C   UNL     1      -3.334   4.426   5.691  0.00  0.00    +0.001 A 
ATOM     14  C   UNL     1      -4.303   4.069   6.612  0.00  0.00    +0.000 A 
ATOM     15  C   UNL     1      -4.146   2.932   7.385  0.00  0.00    +0.001 A 
ATOM     16  C   UNL     1      -3.022   2.146   7.241  0.00  0.00    +0.010 A 
ENDBRANCH  10  11
BRANCH   9  17
ATOM     17  C   UNL     1      -0.749   1.596   3.646  0.00  0.00    +0.149 C 
ATOM     18  O   UNL     1      -1.744   2.279   3.515  0.00  0.00    -0.294 OA
BRANCH  17  19
ATOM     19  C   UNL     1      -0.016   1.091   2.429  0.00  0.00    -0.001 C 
BRANCH  19  20
ATOM     20  N   UNL     1      -0.709   1.566   1.217  0.00  0.00    +0.389 N 
ATOM     21  H   UNL     1      -0.723   2.592   1.214  0.00  0.00    -0.085 HD
ATOM     22  H   UNL     1      -1.672   1.210   1.216  0.00  0.00    -0.085 HD
BRANCH  20  23
ATOM     23  C   UNL     1      -0.013   1.086   0.008  0.00  0.00    -0.006 C 
BRANCH  23  24
ATOM     24  C   UNL     1      -0.742   1.585  -1.213  0.00  0.00    +0.088 A 
ATOM     25  C   UNL     1      -0.504   2.745  -1.851  0.00  0.00    +0.042 A 
ATOM     26  C   UNL     1      -1.411   2.810  -2.934  0.00  0.00    +0.041 A 
ATOM     27  C   UNL     1      -2.148   1.685  -2.893  0.00  0.00    +0.195 A 
ATOM     28  O   UNL     1      -1.734   0.945  -1.851  0.00  0.00    -0.470 OA
ENDBRANCH  23  24
ENDBRANCH  20  23
ENDBRANCH  19  20
ENDBRANCH  17  19
ENDBRANCH   9  17
TORSDOF 6
