REMARK  Name = ZINC66629940
REMARK  11 active torsions:
REMARK  status: ('A' for Active; 'I' for Inactive)
REMARK    1  A    between atoms: C_1  and  C_2
REMARK    2  A    between atoms: N_7  and  C_9
REMARK    3  A    between atoms: C_9  and  C_10
REMARK    4  A    between atoms: C_9  and  C_11
REMARK    5  A    between atoms: C_9  and  C_12
REMARK    6  A    between atoms: C_12  and  N_13
REMARK    7  A    between atoms: C_14  and  C_16
REMARK    8  A    between atoms: C_16  and  C_17
REMARK    9  A    between atoms: C_17  and  C_19
REMARK   10  A    between atoms: C_17  and  N_20
REMARK   11  A    between atoms: C_21  and  C_23
REMARK                            x       y       z     vdW  Elec       q    Type
REMARK                         _______ _______ _______ _____ _____    ______ ____
ROOT
ATOM      1  N   UNL     1       2.234  -4.377   1.177  0.00  0.00    -0.317 N 
ATOM      2  C   UNL     1       2.304  -5.671   0.808  0.00  0.00    +0.215 C 
ATOM      3  O   UNL     1       1.697  -6.514   1.434  0.00  0.00    -0.276 OA
ATOM      4  H   UNL     1       2.720  -3.702   0.677  0.00  0.00    +0.149 HD
ENDROOT
BRANCH   1   5
ATOM      5  C   UNL     1       1.423  -3.988   2.334  0.00  0.00    +0.092 C 
BRANCH   5   6
ATOM      6  C   UNL     1       1.615  -2.496   2.613  0.00  0.00    -0.055 C 
ATOM      7  C   UNL     1       0.834  -2.107   3.870  0.00  0.00    -0.008 C 
ATOM      8  C   UNL     1       1.102  -1.684   1.423  0.00  0.00    -0.008 C 
BRANCH   6  14
ATOM      9  C   UNL     1       4.901   1.012   3.548  0.00  0.00    +0.005 C 
ATOM     10  C   UNL     1       4.715  -0.476   3.242  0.00  0.00    -0.031 C 
ATOM     11  C   UNL     1       5.305  -1.310   4.384  0.00  0.00    -0.001 C 
ATOM     12  C   UNL     1       5.046  -2.793   4.107  0.00  0.00    -0.018 C 
ATOM     13  C   UNL     1       3.541  -3.020   3.941  0.00  0.00    -0.078 C 
ATOM     14  N   UNL     1       3.043  -2.216   2.818  0.00  0.00    +0.384 N 
ATOM     15  C   UNL     1       3.224  -0.788   3.107  0.00  0.00    -0.075 C 
ATOM     16  H   UNL     1       3.554  -2.455   1.981  0.00  0.00    -0.081 HD
ENDBRANCH   6  14
ENDBRANCH   5   6
ENDBRANCH   1   5
BRANCH   2  17
ATOM     17  C   UNL     1       3.138  -6.071  -0.382  0.00  0.00    +0.117 C 
BRANCH  17  18
ATOM     18  C   UNL     1       3.046  -7.585  -0.583  0.00  0.00    +0.079 C 
ATOM     19  C   UNL     1       3.790  -7.975  -1.862  0.00  0.00    +0.028 C 
BRANCH  18  20
ATOM     20  N   UNL     1       3.654  -8.267   0.562  0.00  0.00    -0.312 N 
ATOM     21  C   UNL     1       3.274  -9.521   0.878  0.00  0.00    +0.216 C 
ATOM     22  O   UNL     1       2.430 -10.085   0.215  0.00  0.00    -0.276 OA
ATOM     23  H   UNL     1       4.329  -7.816   1.094  0.00  0.00    +0.149 HD
BRANCH  21  24
ATOM     24  C   UNL     1       3.898 -10.223   2.057  0.00  0.00    +0.075 C 
ATOM     25  C   UNL     1       5.409 -10.338   1.841  0.00  0.00    +0.013 C 
ATOM     26  C   UNL     1       6.042 -11.050   3.037  0.00  0.00    +0.001 C 
ATOM     27  C   UNL     1       5.439 -12.450   3.175  0.00  0.00    +0.000 C 
ATOM     28  C   UNL     1       3.929 -12.335   3.391  0.00  0.00    +0.001 C 
ATOM     29  C   UNL     1       3.295 -11.622   2.195  0.00  0.00    +0.013 C 
ENDBRANCH  21  24
ENDBRANCH  18  20
ENDBRANCH  17  18
ENDBRANCH   2  17
TORSDOF 7
