REMARK  Name = ZINC42524346
REMARK  4 active torsions:
REMARK  status: ('A' for Active; 'I' for Inactive)
REMARK    1  A    between atoms: C_4  and  S_7
REMARK    2  A    between atoms: S_7  and  N_10
REMARK    3  A    between atoms: C_14  and  C_16
REMARK    4  A    between atoms: C_16  and  C_17
REMARK                            x       y       z     vdW  Elec       q    Type
REMARK                         _______ _______ _______ _____ _____    ______ ____
ROOT
ATOM      1  S   UNL     1       1.626  -2.659   0.048  0.00  0.00    +0.068 S 
ATOM      2  O   UNL     1       1.379  -3.116   1.370  0.00  0.00    -0.152 OA
ATOM      3  O   UNL     1       1.168  -3.362  -1.099  0.00  0.00    -0.152 OA
ENDROOT
BRANCH   1   7
ATOM      4  C   UNL     1      -0.639   0.707  -0.094  0.00  0.00    +0.025 A 
ATOM      5  C   UNL     1       0.373   1.592  -0.269  0.00  0.00    +0.048 A 
ATOM      6  S   UNL     1       1.802   0.521  -0.284  0.00  0.00    -0.076 S 
ATOM      7  C   UNL     1       0.954  -1.033  -0.056  0.00  0.00    +0.157 A 
ATOM      8  C   UNL     1      -0.341  -0.639   0.015  0.00  0.00    +0.051 A 
ATOM      9 BR   UNL     1      -1.720  -1.910   0.260  0.00  0.00    -0.048 Br
ENDBRANCH   1   7
BRANCH   1  10
ATOM     10  N   UNL     1       3.269  -2.520  -0.107  0.00  0.00    -0.173 NA
ATOM     11  C   UNL     1       4.009  -2.441  -1.379  0.00  0.00    +0.110 C 
ATOM     12  C   UNL     1       5.435  -2.941  -1.041  0.00  0.00    +0.019 C 
ATOM     13  C   UNL     1       5.641  -2.356   0.382  0.00  0.00    +0.022 C 
ATOM     14  C   UNL     1       4.231  -2.450   1.003  0.00  0.00    +0.091 C 
BRANCH  14  15
ATOM     15  C   UNL     1       3.952  -1.210   1.855  0.00  0.00    +0.145 C 
BRANCH  15  16
ATOM     16  C   UNL     1       4.851  -1.219   3.064  0.00  0.00    +0.358 C 
ATOM     17  O   UNL     1       5.576  -2.176   3.278  0.00  0.00    -0.246 OA
ATOM     18  O   UNL     1       4.854  -0.270   3.829  0.00  0.00    -0.246 OA
ENDBRANCH  15  16
ENDBRANCH  14  15
ENDBRANCH   1  10
TORSDOF 4
