REMARK  Name = ZINC66717382
REMARK  8 active torsions:
REMARK  status: ('A' for Active; 'I' for Inactive)
REMARK    1  A    between atoms: C_1  and  C_2
REMARK    2  A    between atoms: C_5  and  C_9
REMARK    3  A    between atoms: C_6  and  C_8
REMARK    4  A    between atoms: C_9  and  C_10
REMARK    5  A    between atoms: C_10  and  C_12
REMARK    6  A    between atoms: C_10  and  N_13
REMARK    7  A    between atoms: N_16  and  N_17
REMARK    8  A    between atoms: C_18  and  C_20
REMARK                            x       y       z     vdW  Elec       q    Type
REMARK                         _______ _______ _______ _____ _____    ______ ____
ROOT
ATOM      1  N   UNL     1      -2.143  -4.420  -1.074  0.00  0.00    -0.295 N 
ATOM      2  C   UNL     1      -3.484  -4.311  -0.997  0.00  0.00    +0.316 C 
ATOM      3  O   UNL     1      -4.053  -4.532   0.055  0.00  0.00    -0.251 OA
ATOM      4  N   UNL     1      -4.196  -3.958  -2.086  0.00  0.00    -0.218 N 
ATOM      5  H   UNL     1      -1.690  -4.245  -1.914  0.00  0.00    +0.151 HD
ATOM      6  H   UNL     1      -5.161  -3.879  -2.030  0.00  0.00    +0.174 HD
ENDROOT
BRANCH   4   7
ATOM      7  N   UNL     1      -3.541  -3.704  -3.298  0.00  0.00    -0.228 N 
ATOM      8  C   UNL     1      -4.252  -3.350  -4.387  0.00  0.00    +0.281 C 
ATOM      9  O   UNL     1      -5.462  -3.252  -4.317  0.00  0.00    -0.267 OA
ATOM     10  H   UNL     1      -2.576  -3.783  -3.354  0.00  0.00    +0.173 HD
BRANCH   8  11
ATOM     11  C   UNL     1      -3.562  -3.083  -5.665  0.00  0.00    +0.155 A 
ATOM     12  C   UNL     1      -4.330  -2.691  -6.857  0.00  0.00    +0.020 A 
ATOM     13  C   UNL     1      -5.713  -2.553  -6.851  0.00  0.00    +0.011 A 
ATOM     14  C   UNL     1      -6.362  -2.182  -8.010  0.00  0.00    +0.001 A 
ATOM     15  C   UNL     1      -5.650  -1.946  -9.179  0.00  0.00    +0.001 A 
ATOM     16  C   UNL     1      -4.278  -2.076  -9.207  0.00  0.00    +0.014 A 
ATOM     17  C   UNL     1      -3.605  -2.450  -8.048  0.00  0.00    +0.050 A 
ATOM     18  C   UNL     1      -2.146  -2.612  -7.989  0.00  0.00    +0.272 A 
ATOM     19  O   UNL     1      -1.457  -2.421  -8.975  0.00  0.00    -0.266 OA
ATOM     20  N   UNL     1      -1.586  -2.978  -6.817  0.00  0.00    -0.242 N 
ATOM     21  H   UNL     1      -0.623  -3.085  -6.782  0.00  0.00    +0.192 HD
ATOM     22  N   UNL     1      -2.258  -3.187  -5.748  0.00  0.00    -0.166 NA
ENDBRANCH   8  11
ENDBRANCH   4   7
BRANCH   1  23
ATOM     23  C   UNL     1      -1.370  -4.804   0.109  0.00  0.00    +0.076 C 
ATOM     24  C   UNL     1      -1.341  -6.330   0.226  0.00  0.00    +0.028 C 
BRANCH  23  25
ATOM     25  C   UNL     1       0.059  -4.275  -0.021  0.00  0.00    +0.057 C 
BRANCH  25  30
ATOM     26  C   UNL     1      -0.018   1.503   0.010  0.00  0.00    +0.044 C 
ATOM     27  C   UNL     1       0.002  -0.004   0.002  0.00  0.00    -0.050 A 
ATOM     28  C   UNL     1       0.006  -0.689  -1.199  0.00  0.00    +0.003 A 
ATOM     29  C   UNL     1       0.025  -2.071  -1.207  0.00  0.00    +0.004 A 
ATOM     30  C   UNL     1       0.040  -2.768  -0.013  0.00  0.00    -0.043 A 
ATOM     31  C   UNL     1       0.037  -2.084   1.188  0.00  0.00    -0.047 A 
ATOM     32  C   UNL     1       0.023  -0.702   1.195  0.00  0.00    +0.007 A 
ATOM     33  C   UNL     1       0.054  -2.845   2.489  0.00  0.00    +0.044 C 
ENDBRANCH  25  30
ENDBRANCH  23  25
ENDBRANCH   1  23
TORSDOF 5
