REMARK  Name = ZINC64348436
REMARK  8 active torsions:
REMARK  status: ('A' for Active; 'I' for Inactive)
REMARK    1  A    between atoms: C_1  and  C_2
REMARK    2  A    between atoms: C_2  and  C_3
REMARK    3  A    between atoms: C_2  and  C_4
REMARK    4  A    between atoms: C_7  and  C_10
REMARK    5  A    between atoms: N_28  and  C_31
REMARK    6  A    between atoms: C_31  and  C_32
REMARK    7  A    between atoms: C_35  and  O_38
REMARK    8  A    between atoms: O_38  and  C_39
REMARK                            x       y       z     vdW  Elec       q    Type
REMARK                         _______ _______ _______ _____ _____    ______ ____
ROOT
ATOM      1  C   UNL     1      -5.419  -2.005   0.043  0.00  0.00    +0.135 C 
ATOM      2  C   UNL     1      -6.294  -1.163  -0.895  0.00  0.00    +0.131 C 
ATOM      3  C   UNL     1      -7.560  -1.964  -1.169  0.00  0.00    -0.034 C 
ATOM      4  C   UNL     1      -8.578  -1.197  -0.792  0.00  0.00    -0.001 A 
ATOM      5  C   UNL     1     -10.034  -1.399  -0.866  0.00  0.00    +0.010 A 
ATOM      6  C   UNL     1     -10.804  -0.396  -0.366  0.00  0.00    +0.001 A 
ATOM      7  C   UNL     1     -10.277   0.773   0.192  0.00  0.00    +0.002 A 
ATOM      8  C   UNL     1      -8.952   1.045   0.294  0.00  0.00    +0.026 A 
ATOM      9  C   UNL     1      -8.041   0.066  -0.201  0.00  0.00    +0.043 A 
ATOM     10  N   UNL     1      -6.731   0.075  -0.243  0.00  0.00    -0.375 N 
ATOM     11  C   UNL     1      -7.543  -3.377  -1.702  0.00  0.00    +0.065 C 
ATOM     12  C   UNL     1      -6.070  -3.820  -1.722  0.00  0.00    +0.169 C 
ATOM     13  N   UNL     1      -5.445  -3.386  -0.454  0.00  0.00    -0.264 N 
ATOM     14  C   UNL     1      -4.947  -4.484   0.130  0.00  0.00    +0.313 C 
ATOM     15  O   UNL     1      -4.268  -4.466   1.138  0.00  0.00    -0.252 OA
ATOM     16  N   UNL     1      -5.284  -5.603  -0.525  0.00  0.00    -0.220 N 
ATOM     17  C   UNL     1      -5.987  -5.330  -1.674  0.00  0.00    +0.244 C 
ATOM     18  O   UNL     1      -6.450  -6.115  -2.474  0.00  0.00    -0.273 OA
ATOM     19  H   UNL     1      -6.150   0.772   0.097  0.00  0.00    +0.160 HD
ENDROOT
BRANCH   1  23
ATOM     20  C   UNL     1      -1.412  -0.526   0.013  0.00  0.00    -0.045 A 
ATOM     21  C   UNL     1      -2.259  -0.204   1.056  0.00  0.00    +0.004 A 
ATOM     22  C   UNL     1      -3.556  -0.683   1.066  0.00  0.00    +0.006 A 
ATOM     23  C   UNL     1      -4.006  -1.482   0.032  0.00  0.00    -0.025 A 
ATOM     24  C   UNL     1      -3.159  -1.803  -1.012  0.00  0.00    +0.006 A 
ATOM     25  C   UNL     1      -1.863  -1.321  -1.024  0.00  0.00    +0.004 A 
BRANCH  20  27
ATOM     26  C   UNL     1      -0.019   1.526   0.010  0.00  0.00    +0.012 C 
ATOM     27  C   UNL     1       0.002  -0.004   0.002  0.00  0.00    +0.013 C 
ATOM     28  C   UNL     1       0.742  -0.511   1.242  0.00  0.00    +0.012 C 
ENDBRANCH  20  27
ENDBRANCH   1  23
BRANCH  16  29
ATOM     29  C   UNL     1      -4.934  -6.954  -0.081  0.00  0.00    +0.153 C 
BRANCH  29  30
ATOM     30  C   UNL     1      -6.024  -7.487   0.813  0.00  0.00    -0.029 A 
ATOM     31  C   UNL     1      -5.968  -7.267   2.177  0.00  0.00    +0.009 A 
ATOM     32  C   UNL     1      -6.966  -7.756   2.998  0.00  0.00    +0.046 A 
ATOM     33  C   UNL     1      -8.025  -8.466   2.453  0.00  0.00    +0.120 A 
ATOM     34  C   UNL     1      -8.079  -8.685   1.084  0.00  0.00    +0.046 A 
ATOM     35  C   UNL     1      -7.082  -8.191   0.267  0.00  0.00    +0.009 A 
BRANCH  33  36
ATOM     36  O   UNL     1      -9.008  -8.948   3.259  0.00  0.00    -0.495 OA
ATOM     37  C   UNL     1     -10.068  -9.671   2.628  0.00  0.00    +0.277 C 
ENDBRANCH  33  36
ENDBRANCH  29  30
ENDBRANCH  16  29
TORSDOF 5
