REMARK  Name = ZINC51597427
REMARK  4 active torsions:
REMARK  status: ('A' for Active; 'I' for Inactive)
REMARK    1  A    between atoms: C_1  and  C_2
REMARK    2  A    between atoms: C_5  and  C_19
REMARK    3  A    between atoms: C_6  and  N_8
REMARK    4  A    between atoms: C_19  and  N_21
REMARK                            x       y       z     vdW  Elec       q    Type
REMARK                         _______ _______ _______ _____ _____    ______ ____
ROOT
ATOM      1  C   UNL     1       0.197  -2.732  -2.556  0.00  0.00    +0.044 C 
ATOM      2  C   UNL     1       0.106  -2.030  -1.226  0.00  0.00    -0.049 A 
ATOM      3  C   UNL     1       0.001  -0.649  -1.182  0.00  0.00    +0.004 A 
ATOM      4  C   UNL     1      -0.083   0.005   0.028  0.00  0.00    +0.012 A 
ATOM      5  C   UNL     1      -0.064  -0.727   1.218  0.00  0.00    +0.024 A 
ATOM      6  C   UNL     1       0.042  -2.126   1.170  0.00  0.00    +0.040 A 
ATOM      7  C   UNL     1       0.121  -2.767  -0.059  0.00  0.00    +0.027 A 
ENDROOT
BRANCH   6   8
ATOM      8  N   UNL     1       0.062  -2.865   2.347  0.00  0.00    -0.322 N 
ATOM      9  C   UNL     1       1.310  -3.143   3.095  0.00  0.00    +0.133 C 
ATOM     10  C   UNL     1       1.409  -4.626   3.449  0.00  0.00    +0.179 C 
ATOM     11  O   UNL     1       0.167  -5.139   3.965  0.00  0.00    -0.373 OA
ATOM     12  C   UNL     1      -0.882  -4.959   3.039  0.00  0.00    +0.139 C 
ATOM     13  C   UNL     1      -1.143  -3.423   2.945  0.00  0.00    +0.102 C 
ATOM     14  C   UNL     1      -2.434  -3.342   2.141  0.00  0.00    +0.025 C 
ATOM     15  C   UNL     1      -3.211  -4.638   2.486  0.00  0.00    +0.004 C 
ATOM     16  C   UNL     1      -2.271  -5.485   3.400  0.00  0.00    +0.033 C 
ENDBRANCH   6   8
BRANCH   5  17
ATOM     17  C   UNL     1      -0.154  -0.034   2.515  0.00  0.00    +0.079 C 
ATOM     18  S   UNL     1      -0.291  -0.940   3.961  0.00  0.00    -0.035 S 
BRANCH  17  19
ATOM     19  N   UNL     1      -0.127   1.312   2.563  0.00  0.00    -0.352 N 
ATOM     20  H   UNL     1      -0.049   1.825   1.743  0.00  0.00    +0.143 HD
ATOM     21  H   UNL     1      -0.186   1.768   3.417  0.00  0.00    +0.143 HD
ENDBRANCH  17  19
ENDBRANCH   5  17
TORSDOF 3
