REMARK  Name = ZINC33730250
REMARK  15 active torsions:
REMARK  status: ('A' for Active; 'I' for Inactive)
REMARK    1  A    between atoms: C_1  and  C_2
REMARK    2  A    between atoms: C_2  and  C_4
REMARK    3  A    between atoms: C_2  and  N_19
REMARK    4  A    between atoms: N_14  and  C_15
REMARK    5  A    between atoms: C_15  and  C_16
REMARK    6  A    between atoms: C_16  and  O_17
REMARK    7  A    between atoms: O_17  and  C_18
REMARK    8  A    between atoms: N_19  and  C_20
REMARK    9  A    between atoms: C_20  and  C_21
REMARK   10  A    between atoms: C_21  and  C_22
REMARK   11  A    between atoms: C_22  and  C_23
REMARK   12  A    between atoms: C_23  and  C_24
REMARK   13  A    between atoms: C_24  and  C_25
REMARK   14  A    between atoms: C_25  and  N_26
REMARK   15  A    between atoms: C_27  and  C_29
REMARK                            x       y       z     vdW  Elec       q    Type
REMARK                         _______ _______ _______ _____ _____    ______ ____
ROOT
ATOM      1  N   UNL     1       0.868   2.935  -0.433  0.00  0.00    -0.288 N 
ATOM      2  C   UNL     1       1.242   3.365   0.788  0.00  0.00    +0.247 C 
ATOM      3  O   UNL     1       0.694   4.329   1.288  0.00  0.00    -0.270 OA
ENDROOT
BRANCH   2   4
ATOM      4  C   UNL     1       2.317   2.665   1.521  0.00  0.00    +0.038 A 
ATOM      5  C   UNL     1       2.352   1.259   1.535  0.00  0.00    +0.013 A 
ATOM      6  C   UNL     1       3.332   0.594   2.196  0.00  0.00    +0.009 A 
ATOM      7  C   UNL     1       4.325   1.310   2.890  0.00  0.00    -0.018 A 
ATOM      8  C   UNL     1       5.346   0.643   3.587  0.00  0.00    +0.008 A 
ATOM      9  C   UNL     1       6.293   1.363   4.249  0.00  0.00    +0.001 A 
ATOM     10  C   UNL     1       6.267   2.756   4.247  0.00  0.00    +0.001 A 
ATOM     11  C   UNL     1       5.294   3.438   3.584  0.00  0.00    +0.008 A 
ATOM     12  C   UNL     1       4.298   2.728   2.888  0.00  0.00    -0.017 A 
ATOM     13  C   UNL     1       3.280   3.399   2.194  0.00  0.00    +0.021 A 
ENDBRANCH   2   4
BRANCH   1  15
ATOM     14  C   UNL     1      -0.041   0.735   0.128  0.00  0.00    +0.036 C 
ATOM     15  C   UNL     1       0.936   1.509  -0.760  0.00  0.00    +0.139 C 
BRANCH  15  16
ATOM     16  C   UNL     1       2.337   1.005  -0.523  0.00  0.00    +0.133 A 
ATOM     17  N   UNL     1       3.265   1.872  -0.256  0.00  0.00    -0.232 NA
ATOM     18  C   UNL     1       4.549   1.493  -0.031  0.00  0.00    +0.078 A 
ATOM     19  C   UNL     1       5.548   2.424   0.257  0.00  0.00    +0.028 A 
ATOM     20  C   UNL     1       6.837   1.995   0.478  0.00  0.00    +0.002 A 
ATOM     21  C   UNL     1       7.157   0.645   0.418  0.00  0.00    +0.001 A 
ATOM     22  C   UNL     1       6.189  -0.293   0.136  0.00  0.00    +0.015 A 
ATOM     23  C   UNL     1       4.878   0.121  -0.092  0.00  0.00    +0.065 A 
ATOM     24  C   UNL     1       3.802  -0.835  -0.397  0.00  0.00    +0.262 A 
ATOM     25  O   UNL     1       4.019  -2.030  -0.464  0.00  0.00    -0.267 OA
ATOM     26  N   UNL     1       2.561  -0.333  -0.596  0.00  0.00    -0.292 N 
BRANCH  26  27
ATOM     27  C   UNL     1       1.451  -1.240  -0.898  0.00  0.00    +0.154 C 
BRANCH  27  28
ATOM     28  C   UNL     1       1.352  -1.438  -2.411  0.00  0.00    +0.181 C 
BRANCH  28  29
ATOM     29  O   UNL     1       2.524  -2.106  -2.882  0.00  0.00    -0.381 OA
ATOM     30  C   UNL     1       2.533  -2.341  -4.292  0.00  0.00    +0.194 C 
ENDBRANCH  28  29
ENDBRANCH  27  28
ENDBRANCH  26  27
ENDBRANCH  15  16
ENDBRANCH   1  15
BRANCH   1  31
ATOM     31  C   UNL     1       0.394   3.894  -1.434  0.00  0.00    +0.109 C 
BRANCH  31  32
ATOM     32  C   UNL     1      -1.101   4.147  -1.230  0.00  0.00    +0.019 C 
BRANCH  32  33
ATOM     33  C   UNL     1      -1.596   5.149  -2.275  0.00  0.00    +0.001 C 
BRANCH  33  34
ATOM     34  C   UNL     1      -3.091   5.402  -2.071  0.00  0.00    -0.002 C 
BRANCH  34  35
ATOM     35  C   UNL     1      -3.586   6.404  -3.117  0.00  0.00    -0.020 C 
BRANCH  35  36
ATOM     36  C   UNL     1      -5.081   6.657  -2.913  0.00  0.00    -0.086 C 
BRANCH  36  37
ATOM     37  N   UNL     1      -5.556   7.619  -3.917  0.00  0.00    +0.378 N 
ATOM     38  H   UNL     1      -6.631   7.800  -3.770  0.00  0.00    -0.090 HD
ATOM     39  H   UNL     1      -5.387   7.210  -4.924  0.00  0.00    -0.090 HD
ATOM     40  H   UNL     1      -5.006   8.565  -3.807  0.00  0.00    -0.090 HD
ENDBRANCH  36  37
ENDBRANCH  35  36
ENDBRANCH  34  35
ENDBRANCH  33  34
ENDBRANCH  32  33
ENDBRANCH  31  32
ENDBRANCH   1  31
TORSDOF 13
