REMARK  Name = ZINC33028291
REMARK  8 active torsions:
REMARK  status: ('A' for Active; 'I' for Inactive)
REMARK    1  A    between atoms: C_1  and  C_2
REMARK    2  A    between atoms: N_4  and  C_5
REMARK    3  A    between atoms: C_5  and  C_7
REMARK    4  A    between atoms: C_5  and  C_18
REMARK    5  A    between atoms: C_7  and  C_8
REMARK    6  A    between atoms: N_20  and  N_21
REMARK    7  A    between atoms: C_22  and  C_24
REMARK    8  A    between atoms: C_26  and  C_34
REMARK                            x       y       z     vdW  Elec       q    Type
REMARK                         _______ _______ _______ _____ _____    ______ ____
ROOT
ATOM      1  C   UNL     1      -1.417  -0.499  -0.107  0.00  0.00    +0.250 C 
ATOM      2  O   UNL     1      -2.006  -0.875   0.884  0.00  0.00    -0.272 OA
ATOM      3  N   UNL     1      -2.023  -0.547  -1.310  0.00  0.00    -0.233 N 
ATOM      4  H   UNL     1      -1.489  -0.206  -2.209  0.00  0.00    +0.173 HD
ENDROOT
BRANCH   3   5
ATOM      5  N   UNL     1      -3.334  -1.032  -1.415  0.00  0.00    -0.230 N 
ATOM      6  C   UNL     1      -3.940  -1.080  -2.618  0.00  0.00    +0.261 C 
ATOM      7  O   UNL     1      -3.350  -0.703  -3.611  0.00  0.00    -0.269 OA
ATOM      8  H   UNL     1      -3.868  -1.372  -0.516  0.00  0.00    +0.173 HD
BRANCH   6   9
ATOM      9  C   UNL     1      -5.324  -1.591  -2.729  0.00  0.00    +0.049 A 
ATOM     10  C   UNL     1      -5.980  -2.135  -1.636  0.00  0.00    +0.042 A 
ATOM     11  C   UNL     1      -7.297  -2.604  -1.786  0.00  0.00    +0.079 A 
ATOM     12  N   UNL     1      -7.934  -2.555  -2.940  0.00  0.00    -0.246 NA
ATOM     13  C   UNL     1      -7.375  -2.053  -4.042  0.00  0.00    +0.072 A 
ATOM     14  C   UNL     1      -6.051  -1.548  -3.998  0.00  0.00    +0.013 A 
ATOM     15  C   UNL     1      -5.468  -1.023  -5.157  0.00  0.00    +0.011 A 
ATOM     16  C   UNL     1      -6.180  -1.001  -6.319  0.00  0.00    +0.001 A 
ATOM     17  C   UNL     1      -7.481  -1.496  -6.368  0.00  0.00    +0.002 A 
ATOM     18  C   UNL     1      -8.078  -2.014  -5.260  0.00  0.00    +0.028 A 
BRANCH  11  19
ATOM     19  C   UNL     1      -7.988  -3.176  -0.615  0.00  0.00    +0.038 A 
ATOM     20  C   UNL     1      -9.257  -3.688  -0.524  0.00  0.00    +0.017 A 
ATOM     21  C   UNL     1      -9.688  -4.176   0.687  0.00  0.00    +0.008 A 
ATOM     22  C   UNL     1      -8.852  -4.125   1.758  0.00  0.00    +0.046 A 
ATOM     23  S   UNL     1      -7.392  -3.374   1.057  0.00  0.00    -0.095 S 
ENDBRANCH  11  19
ENDBRANCH   6   9
ENDBRANCH   3   5
BRANCH   1  24
ATOM     24  C   UNL     1      -0.008   0.022   0.006  0.00  0.00    +0.165 C 
BRANCH  24  28
ATOM     25  C   UNL     1       0.639  -0.614   3.725  0.00  0.00    +0.109 C 
ATOM     26  C   UNL     1       0.026  -0.127   2.438  0.00  0.00    +0.211 C 
ATOM     27  O   UNL     1      -0.975   0.558   2.464  0.00  0.00    -0.276 OA
ATOM     28  N   UNL     1       0.589  -0.452   1.258  0.00  0.00    -0.304 N 
ATOM     29  H   UNL     1       1.496  -1.073   1.234  0.00  0.00    +0.149 HD
ENDBRANCH  24  28
BRANCH  24  30
ATOM     30  C   UNL     1      -0.027   1.552  -0.003  0.00  0.00    +0.069 C 
BRANCH  30  31
ATOM     31  C   UNL     1       1.387   2.072  -0.013  0.00  0.00    -0.020 A 
ATOM     32  C   UNL     1       2.108   2.447   1.055  0.00  0.00    +0.087 A 
ATOM     33  N   UNL     1       3.350   2.862   0.658  0.00  0.00    -0.360 N 
ATOM     34  H   UNL     1       4.082   3.201   1.405  0.00  0.00    +0.165 HD
ATOM     35  C   UNL     1       3.459   2.768  -0.712  0.00  0.00    +0.047 A 
ATOM     36  C   UNL     1       2.234   2.269  -1.192  0.00  0.00    +0.003 A 
ATOM     37  C   UNL     1       2.053   2.068  -2.562  0.00  0.00    +0.010 A 
ATOM     38  C   UNL     1       3.068   2.358  -3.430  0.00  0.00    +0.001 A 
ATOM     39  C   UNL     1       4.278   2.851  -2.961  0.00  0.00    +0.002 A 
ATOM     40  C   UNL     1       4.478   3.056  -1.613  0.00  0.00    +0.026 A 
ENDBRANCH  30  31
ENDBRANCH  24  30
ENDBRANCH   1  24
TORSDOF 7
