REMARK  Name = ZINC35671687
REMARK  8 active torsions:
REMARK  status: ('A' for Active; 'I' for Inactive)
REMARK    1  A    between atoms: C_1  and  C_2
REMARK    2  A    between atoms: C_5  and  N_8
REMARK    3  A    between atoms: C_10  and  C_34
REMARK    4  A    between atoms: C_14  and  C_16
REMARK    5  A    between atoms: C_16  and  N_17
REMARK    6  A    between atoms: N_17  and  C_18
REMARK    7  A    between atoms: C_18  and  C_19
REMARK    8  A    between atoms: C_25  and  C_27
REMARK                            x       y       z     vdW  Elec       q    Type
REMARK                         _______ _______ _______ _____ _____    ______ ____
ROOT
ATOM      1  N   UNL     1      -0.114  -4.543  -0.084  0.00  0.00    -0.287 N 
ATOM      2  C   UNL     1      -0.936  -5.428  -0.739  0.00  0.00    +0.122 A 
ATOM      3  C   UNL     1      -0.523  -6.674  -0.396  0.00  0.00    +0.091 A 
ATOM      4  N   UNL     1       0.524  -6.550   0.448  0.00  0.00    -0.214 NA
ATOM      5  C   UNL     1       0.779  -5.279   0.636  0.00  0.00    +0.207 A 
ATOM      6  N   UNL     1       1.790  -4.767   1.438  0.00  0.00    -0.254 N 
ATOM      7  C   UNL     1       2.613  -5.603   2.102  0.00  0.00    +0.237 C 
ATOM      8  O   UNL     1       2.470  -6.803   1.999  0.00  0.00    -0.274 OA
ATOM      9  H   UNL     1       1.905  -3.807   1.520  0.00  0.00    +0.158 HD
ENDROOT
BRANCH   1  14
ATOM     10  C   UNL     1      -0.378   1.121  -0.345  0.00  0.00    +0.044 C 
ATOM     11  C   UNL     1      -0.308  -0.383  -0.276  0.00  0.00    -0.050 A 
ATOM     12  C   UNL     1      -0.304  -1.128  -1.441  0.00  0.00    +0.005 A 
ATOM     13  C   UNL     1      -0.240  -2.506  -1.381  0.00  0.00    +0.026 A 
ATOM     14  C   UNL     1      -0.179  -3.144  -0.149  0.00  0.00    +0.049 A 
ATOM     15  C   UNL     1      -0.183  -2.393   1.019  0.00  0.00    +0.026 A 
ATOM     16  C   UNL     1      -0.242  -1.015   0.952  0.00  0.00    +0.005 A 
ENDBRANCH   1  14
BRANCH   3  17
ATOM     17  C   UNL     1      -1.118  -7.949  -0.864  0.00  0.00    +0.002 A 
ATOM     18  C   UNL     1      -2.200  -7.935  -1.744  0.00  0.00    +0.010 A 
ATOM     19  C   UNL     1      -2.749  -9.125  -2.176  0.00  0.00    +0.001 A 
ATOM     20  C   UNL     1      -2.230 -10.329  -1.739  0.00  0.00    +0.000 A 
ATOM     21  C   UNL     1      -1.157 -10.350  -0.865  0.00  0.00    +0.001 A 
ATOM     22  C   UNL     1      -0.595  -9.166  -0.431  0.00  0.00    +0.010 A 
ENDBRANCH   3  17
BRANCH   7  23
ATOM     23  C   UNL     1       3.710  -5.046   2.973  0.00  0.00    +0.204 C 
BRANCH  23  24
ATOM     24  N   UNL     1       4.458  -6.150   3.580  0.00  0.00    -0.286 N 
ATOM     25  C   UNL     1       4.074  -6.649   4.772  0.00  0.00    +0.249 C 
ATOM     26  O   UNL     1       4.742  -7.508   5.315  0.00  0.00    -0.270 OA
BRANCH  25  27
ATOM     27  C   UNL     1       2.841  -6.153   5.418  0.00  0.00    +0.055 A 
ATOM     28  C   UNL     1       2.707  -4.797   5.725  0.00  0.00    +0.014 A 
ATOM     29  C   UNL     1       1.554  -4.341   6.328  0.00  0.00    +0.001 A 
ATOM     30  C   UNL     1       0.530  -5.222   6.629  0.00  0.00    +0.001 A 
ATOM     31  C   UNL     1       0.656  -6.566   6.329  0.00  0.00    +0.021 A 
ATOM     32  C   UNL     1       1.803  -7.037   5.720  0.00  0.00    +0.053 A 
ATOM     33 CL   UNL     1       1.956  -8.723   5.336  0.00  0.00    -0.083 Cl
ENDBRANCH  25  27
BRANCH  24  34
ATOM     34  C   UNL     1       5.624  -6.711   2.892  0.00  0.00    +0.140 C 
BRANCH  34  35
ATOM     35  C   UNL     1       6.862  -5.875   3.223  0.00  0.00    +0.136 C 
ATOM     36  C   UNL     1       8.070  -6.385   2.409  0.00  0.00    +0.035 C 
ATOM     37  C   UNL     1       9.230  -6.277   3.437  0.00  0.00    +0.031 C 
ATOM     38  C   UNL     1       8.485  -6.609   4.755  0.00  0.00    +0.160 C 
ATOM     39  O   UNL     1       7.184  -6.013   4.612  0.00  0.00    -0.375 OA
ENDBRANCH  34  35
ENDBRANCH  24  34
ENDBRANCH  23  24
ENDBRANCH   7  23
TORSDOF 7
