REMARK  Name = ZINC36384661
REMARK  6 active torsions:
REMARK  status: ('A' for Active; 'I' for Inactive)
REMARK    1  A    between atoms: C_10  and  C_14
REMARK    2  A    between atoms: C_14  and  N_15
REMARK    3  A    between atoms: N_18  and  C_21
REMARK    4  A    between atoms: C_21  and  N_23
REMARK    5  A    between atoms: N_23  and  C_24
REMARK    6  A    between atoms: C_24  and  C_25
REMARK                            x       y       z     vdW  Elec       q    Type
REMARK                         _______ _______ _______ _____ _____    ______ ____
ROOT
ATOM      1  N   UNL     1      -0.022  -6.550   2.833  0.00  0.00    +0.386 N 
ATOM      2  C   UNL     1      -1.373  -6.032   3.086  0.00  0.00    -0.059 C 
ATOM      3  C   UNL     1      -2.395  -6.877   2.318  0.00  0.00    +0.088 C 
ATOM      4  N   UNL     1      -2.207  -8.287   2.690  0.00  0.00    -0.316 N 
ATOM      5  C   UNL     1      -0.848  -8.847   2.622  0.00  0.00    +0.088 C 
ATOM      6  C   UNL     1       0.101  -7.909   3.375  0.00  0.00    -0.059 C 
ATOM      7  H   UNL     1       0.147  -6.569   1.839  0.00  0.00    -0.081 HD
ENDROOT
BRANCH   4   8
ATOM      8  C   UNL     1      -3.250  -9.046   3.081  0.00  0.00    +0.133 C 
ATOM      9  S   UNL     1      -4.796  -8.339   3.280  0.00  0.00    -0.019 S 
BRANCH   8  10
ATOM     10  N   UNL     1      -3.075 -10.362   3.316  0.00  0.00    -0.324 N 
ATOM     11  H   UNL     1      -2.187 -10.748   3.274  0.00  0.00    +0.148 HD
BRANCH  10  12
ATOM     12  C   UNL     1      -4.228 -11.208   3.635  0.00  0.00    +0.134 C 
BRANCH  12  13
ATOM     13  C   UNL     1      -3.759 -12.647   3.856  0.00  0.00    +0.135 C 
ATOM     14  C   UNL     1      -4.968 -13.567   4.160  0.00  0.00    +0.035 C 
ATOM     15  C   UNL     1      -4.412 -14.945   3.709  0.00  0.00    +0.031 C 
ATOM     16  C   UNL     1      -3.514 -14.560   2.513  0.00  0.00    +0.160 C 
ATOM     17  O   UNL     1      -3.179 -13.173   2.651  0.00  0.00    -0.375 OA
ENDBRANCH  12  13
ENDBRANCH  10  12
ENDBRANCH   8  10
ENDBRANCH   4   8
BRANCH   1  18
ATOM     18  C   UNL     1       0.965  -5.675   3.479  0.00  0.00    -0.003 C 
BRANCH  18  28
ATOM     19  C   UNL     1      -0.023   1.520  -0.011  0.00  0.00    +0.005 C 
ATOM     20  C   UNL     1       1.409   2.061  -0.020  0.00  0.00    +0.005 C 
ATOM     21  C   UNL     1       2.053   1.771   1.344  0.00  0.00    +0.043 C 
ATOM     22  C   UNL     1       1.788   0.340   1.698  0.00  0.00    -0.004 A 
ATOM     23  C   UNL     1       0.889  -0.494   1.126  0.00  0.00    -0.023 A 
ATOM     24  C   UNL     1       0.828  -1.844   1.656  0.00  0.00    +0.075 A 
ATOM     25  C   UNL     1      -0.062  -2.943   1.211  0.00  0.00    +0.282 A 
ATOM     26  O   UNL     1      -0.869  -2.800   0.306  0.00  0.00    -0.265 OA
ATOM     27  N   UNL     1       0.077  -4.114   1.870  0.00  0.00    -0.197 NA
ATOM     28  C   UNL     1       0.923  -4.312   2.838  0.00  0.00    +0.095 A 
ATOM     29  N   UNL     1       1.770  -3.359   3.304  0.00  0.00    -0.339 N 
ATOM     30  C   UNL     1       1.712  -2.140   2.709  0.00  0.00    +0.092 A 
ATOM     31  S   UNL     1       2.584  -0.629   2.955  0.00  0.00    -0.075 S 
ATOM     32  C   UNL     1      -0.001  -0.009  -0.015  0.00  0.00    +0.037 C 
ATOM     33  H   UNL     1       2.389  -3.541   4.028  0.00  0.00    +0.167 HD
ENDBRANCH  18  28
ENDBRANCH   1  18
TORSDOF 6
