REMARK  Name = ZINC37042350
REMARK  8 active torsions:
REMARK  status: ('A' for Active; 'I' for Inactive)
REMARK    1  A    between atoms: C_1  and  C_2
REMARK    2  A    between atoms: C_2  and  C_4
REMARK    3  A    between atoms: C_2  and  N_14
REMARK    4  A    between atoms: C_15  and  C_17
REMARK    5  A    between atoms: C_17  and  C_19
REMARK    6  A    between atoms: C_17  and  N_22
REMARK    7  A    between atoms: C_19  and  C_20
REMARK    8  A    between atoms: C_19  and  C_21
REMARK                            x       y       z     vdW  Elec       q    Type
REMARK                         _______ _______ _______ _____ _____    ______ ____
ROOT
ATOM      1  C   UNL     1      -0.019   1.526   0.010  0.00  0.00    +0.036 C 
ATOM      2  C   UNL     1       0.002  -0.004   0.002  0.00  0.00    +0.138 C 
ENDROOT
BRANCH   2   3
ATOM      3  C   UNL     1       0.731  -0.503   1.223  0.00  0.00    +0.154 A 
ATOM      4  N   UNL     1       2.023  -0.484   1.417  0.00  0.00    -0.132 NA
ATOM      5  N   UNL     1       2.296  -0.982   2.573  0.00  0.00    -0.134 NA
ATOM      6  C   UNL     1       1.191  -1.337   3.166  0.00  0.00    +0.134 A 
ATOM      7  N   UNL     1       0.171  -1.050   2.325  0.00  0.00    -0.313 N 
ATOM      8  C   UNL     1      -1.251  -1.302   2.562  0.00  0.00    +0.125 C 
ATOM      9  C   UNL     1      -1.528  -1.268   4.068  0.00  0.00    +0.022 C 
ATOM     10  C   UNL     1      -1.339  -2.665   4.658  0.00  0.00    +0.002 C 
ATOM     11  C   UNL     1       0.098  -3.138   4.462  0.00  0.00    +0.008 C 
ATOM     12  C   UNL     1       1.048  -1.946   4.537  0.00  0.00    +0.076 C 
ENDBRANCH   2   3
BRANCH   2  13
ATOM     13  N   UNL     1       0.688  -0.476  -1.203  0.00  0.00    -0.307 N 
ATOM     14  C   UNL     1       0.006  -0.608  -2.358  0.00  0.00    +0.199 C 
ATOM     15  O   UNL     1      -1.175  -0.336  -2.400  0.00  0.00    -0.278 OA
ATOM     16  H   UNL     1       1.632  -0.695  -1.170  0.00  0.00    +0.149 HD
BRANCH  14  17
ATOM     17  C   UNL     1       0.712  -1.094  -3.598  0.00  0.00    +0.015 C 
BRANCH  17  18
ATOM     18  N   UNL     1      -0.064  -0.710  -4.785  0.00  0.00    +0.386 N 
ATOM     19  H   UNL     1      -0.982  -1.125  -4.736  0.00  0.00    -0.089 HD
ATOM     20  H   UNL     1      -0.150   0.295  -4.820  0.00  0.00    -0.089 HD
ATOM     21  H   UNL     1       0.409  -1.035  -5.616  0.00  0.00    -0.089 HD
ENDBRANCH  17  18
BRANCH  17  22
ATOM     22  C   UNL     1       0.843  -2.618  -3.547  0.00  0.00    -0.023 C 
ATOM     23  C   UNL     1      -0.549  -3.251  -3.598  0.00  0.00    +0.006 C 
ATOM     24  C   UNL     1       1.667  -3.100  -4.742  0.00  0.00    +0.006 C 
ENDBRANCH  17  22
ENDBRANCH  14  17
ENDBRANCH   2  13
TORSDOF 5
