REMARK  Name = ZINC17221852
REMARK  5 active torsions:
REMARK  status: ('A' for Active; 'I' for Inactive)
REMARK    1  A    between atoms: C_6  and  C_7
REMARK    2  A    between atoms: N_12  and  N_13
REMARK    3  A    between atoms: C_16  and  C_19
REMARK    4  A    between atoms: C_22  and  O_26
REMARK    5  A    between atoms: C_23  and  O_25
REMARK                            x       y       z     vdW  Elec       q    Type
REMARK                         _______ _______ _______ _____ _____    ______ ____
ROOT
ATOM      1  C   UNL     1      -1.264  -0.761   0.010  0.00  0.00    +0.020 C 
ATOM      2  C   UNL     1      -2.429  -0.114   0.126  0.00  0.00    +0.011 C 
ATOM      3  C   UNL     1      -2.689   1.377   0.151  0.00  0.00    +0.146 C 
ATOM      4  N   UNL     1      -4.082   1.734   0.290  0.00  0.00    -0.319 N 
ATOM      5  C   UNL     1      -5.015   0.716   0.383  0.00  0.00    +0.150 C 
ATOM      6  N   UNL     1      -6.304   0.835   0.512  0.00  0.00    -0.287 N 
ATOM      7  S   UNL     1      -4.072  -0.789   0.282  0.00  0.00    -0.058 S 
ATOM      8  H   UNL     1      -4.357   2.664   0.317  0.00  0.00    +0.148 HD
ATOM      9  H   UNL     1      -6.709   1.716   0.551  0.00  0.00    +0.186 HD
ENDROOT
BRANCH   1  15
ATOM     10  C   UNL     1       1.223  -0.683   0.047  0.00  0.00    +0.012 A 
ATOM     11  C   UNL     1       2.406   0.026   0.049  0.00  0.00    +0.050 A 
ATOM     12  C   UNL     1       2.389   1.412   0.019  0.00  0.00    +0.166 A 
ATOM     13  C   UNL     1       1.175   2.096  -0.015  0.00  0.00    +0.167 A 
ATOM     14  C   UNL     1      -0.015   1.391  -0.017  0.00  0.00    +0.057 A 
ATOM     15  C   UNL     1       0.003  -0.005   0.013  0.00  0.00    -0.021 A 
ATOM     16  O   UNL     1       1.429   3.437  -0.041  0.00  0.00    -0.453 OA
ATOM     17  C   UNL     1       2.796   3.577   0.389  0.00  0.00    +0.466 C 
ATOM     18  O   UNL     1       3.404   2.327   0.013  0.00  0.00    -0.453 OA
ENDBRANCH   1  15
BRANCH   6  19
ATOM     19  N   UNL     1      -7.108  -0.310   0.593  0.00  0.00    -0.236 N 
ATOM     20  C   UNL     1      -8.477  -0.184   0.729  0.00  0.00    +0.177 A 
ATOM     21  N   UNL     1      -9.398  -1.128   0.827  0.00  0.00    -0.224 NA
ATOM     22  C   UNL     1     -10.686  -0.820   0.954  0.00  0.00    +0.080 A 
ATOM     23  C   UNL     1     -11.061   0.493   0.983  0.00  0.00    +0.077 A 
ATOM     24  S   UNL     1      -9.472   1.298   0.827  0.00  0.00    -0.059 S 
ATOM     25  H   UNL     1      -6.704  -1.190   0.553  0.00  0.00    +0.174 HD
BRANCH  22  26
ATOM     26  C   UNL     1     -11.705  -1.892   1.062  0.00  0.00    +0.005 A 
ATOM     27  C   UNL     1     -13.054  -1.563   1.188  0.00  0.00    +0.014 A 
ATOM     28  C   UNL     1     -14.002  -2.562   1.289  0.00  0.00    +0.050 A 
ATOM     29  C   UNL     1     -13.615  -3.893   1.264  0.00  0.00    +0.158 A 
ATOM     30  C   UNL     1     -12.270  -4.228   1.138  0.00  0.00    +0.159 A 
ATOM     31  C   UNL     1     -11.317  -3.231   1.031  0.00  0.00    +0.059 A 
BRANCH  30  32
ATOM     32  O   UNL     1     -11.893  -5.534   1.114  0.00  0.00    -0.503 OA
ATOM     33  H   UNL     1     -11.869  -5.920   0.228  0.00  0.00    +0.292 HD
ENDBRANCH  30  32
BRANCH  29  34
ATOM     34  O   UNL     1     -14.552  -4.874   1.364  0.00  0.00    -0.503 OA
ATOM     35  H   UNL     1     -14.908  -5.166   0.514  0.00  0.00    +0.292 HD
ENDBRANCH  29  34
ENDBRANCH  22  26
ENDBRANCH   6  19
TORSDOF 5
