REMARK  Name = ZINC12167594
REMARK  6 active torsions:
REMARK  status: ('A' for Active; 'I' for Inactive)
REMARK    1  A    between atoms: C_2  and  C_27
REMARK    2  A    between atoms: C_8  and  C_11
REMARK    3  A    between atoms: C_11  and  N_12
REMARK    4  A    between atoms: C_13  and  C_15
REMARK    5  A    between atoms: C_15  and  N_68
REMARK    6  A    between atoms: C_29  and  C_33
REMARK                            x       y       z     vdW  Elec       q    Type
REMARK                         _______ _______ _______ _____ _____    ______ ____
ROOT
ATOM      1  C   UNL     1      -6.085   8.625  -3.440  0.00  0.00    +0.016 A 
ATOM      2  C   UNL     1      -6.731   8.511  -4.671  0.00  0.00    -0.013 A 
ATOM      3  C   UNL     1      -6.865   7.257  -5.263  0.00  0.00    +0.050 A 
ATOM      4  C   UNL     1      -6.360   6.137  -4.638  0.00  0.00    +0.166 A 
ATOM      5  C   UNL     1      -5.710   6.249  -3.408  0.00  0.00    +0.159 A 
ATOM      6  C   UNL     1      -5.587   7.503  -2.821  0.00  0.00    +0.001 A 
ATOM      7  C   UNL     1      -4.858   7.308  -1.505  0.00  0.00    +0.085 C 
ATOM      8  C   UNL     1      -4.976   5.780  -1.297  0.00  0.00    +0.195 C 
ATOM      9  O   UNL     1      -5.131   5.283  -2.637  0.00  0.00    -0.484 OA
ATOM     10  F   UNL     1      -6.495   4.925  -5.218  0.00  0.00    -0.202 F 
ENDROOT
BRANCH   2  11
ATOM     11  C   UNL     1      -7.272   9.717  -5.345  0.00  0.00    +0.001 A 
ATOM     12  C   UNL     1      -7.919   9.609  -6.576  0.00  0.00    +0.024 A 
ATOM     13  C   UNL     1      -8.411  10.777  -7.169  0.00  0.00    +0.055 A 
ATOM     14  C   UNL     1      -8.236  11.995  -6.510  0.00  0.00    +0.123 A 
ATOM     15  N   UNL     1      -7.619  12.052  -5.348  0.00  0.00    -0.262 NA
ATOM     16  C   UNL     1      -7.146  10.974  -4.754  0.00  0.00    +0.119 A 
BRANCH  13  17
ATOM     17  C   UNL     1      -9.105  10.721  -8.473  0.00  0.00    +0.243 C 
ATOM     18  O   UNL     1      -9.253   9.656  -9.038  0.00  0.00    -0.270 OA
ATOM     19  N   UNL     1      -9.575  11.853  -9.034  0.00  0.00    -0.325 N 
ATOM     20  H   UNL     1      -9.457  12.704  -8.583  0.00  0.00    +0.145 HD
ATOM     21  H   UNL     1     -10.030  11.817  -9.890  0.00  0.00    +0.145 HD
ENDBRANCH  13  17
ENDBRANCH   2  11
BRANCH   8  22
ATOM     22  C   UNL     1      -3.706   5.220  -0.655  0.00  0.00    +0.149 C 
BRANCH  22  23
ATOM     23  N   UNL     1      -3.824   3.765  -0.526  0.00  0.00    -0.313 N 
ATOM     24  C   UNL     1      -2.816   3.053   0.017  0.00  0.00    +0.203 C 
ATOM     25  O   UNL     1      -1.851   3.623   0.479  0.00  0.00    -0.277 OA
ATOM     26  H   UNL     1      -4.627   3.315  -0.831  0.00  0.00    +0.149 HD
BRANCH  24  27
ATOM     27  C   UNL     1      -2.890   1.548   0.049  0.00  0.00    +0.013 C 
ATOM     28  C   UNL     1      -3.354   1.031  -1.314  0.00  0.00    -0.003 C 
ATOM     29  C   UNL     1      -2.361   1.470  -2.392  0.00  0.00    -0.001 C 
ATOM     30  C   UNL     1      -0.978   0.899  -2.074  0.00  0.00    -0.000 C 
ATOM     31  C   UNL     1      -0.513   1.416  -0.711  0.00  0.00    -0.001 C 
ATOM     32  C   UNL     1      -1.506   0.977   0.367  0.00  0.00    -0.003 C 
BRANCH  27  38
ATOM     33  C   UNL     1      -5.192   1.628   0.792  0.00  0.00    -0.077 C 
ATOM     34  C   UNL     1      -6.183   1.051   1.806  0.00  0.00    -0.019 C 
ATOM     35  C   UNL     1      -5.758   1.464   3.218  0.00  0.00    -0.004 C 
ATOM     36  C   UNL     1      -4.332   0.971   3.479  0.00  0.00    -0.019 C 
ATOM     37  C   UNL     1      -3.396   1.550   2.416  0.00  0.00    -0.077 C 
ATOM     38  N   UNL     1      -3.844   1.096   1.083  0.00  0.00    +0.389 N 
ATOM     39  H   UNL     1      -3.882   0.070   1.076  0.00  0.00    -0.080 HD
ENDBRANCH  27  38
ENDBRANCH  24  27
ENDBRANCH  22  23
ENDBRANCH   8  22
TORSDOF 6
