REMARK  Name = ZINC18323560
REMARK  3 active torsions:
REMARK  status: ('A' for Active; 'I' for Inactive)
REMARK    1  A    between atoms: C_4  and  C_7
REMARK    2  A    between atoms: C_12  and  C_22
REMARK    3  A    between atoms: C_27  and  N_28
REMARK                            x       y       z     vdW  Elec       q    Type
REMARK                         _______ _______ _______ _____ _____    ______ ____
ROOT
ATOM      1  C   UNL     1      -2.909   2.733   3.478  0.00  0.00    +0.032 C 
ATOM      2  C   UNL     1      -3.377   1.292   3.673  0.00  0.00    +0.059 C 
ATOM      3  C   UNL     1      -3.401   0.571   2.336  0.00  0.00    +0.017 C 
ATOM      4  C   UNL     1      -2.502   0.872   1.385  0.00  0.00    +0.036 C 
ATOM      5  C   UNL     1      -2.387   0.211   0.032  0.00  0.00    +0.138 C 
ATOM      6  N   UNL     1      -3.507  -0.639  -0.313  0.00  0.00    -0.331 N 
ATOM      7  C   UNL     1      -3.789  -1.793   0.411  0.00  0.00    +0.049 A 
ATOM      8  C   UNL     1      -3.634  -3.053  -0.145  0.00  0.00    +0.025 A 
ATOM      9  C   UNL     1      -3.821  -4.173   0.647  0.00  0.00    +0.002 A 
ATOM     10  C   UNL     1      -4.160  -4.039   1.981  0.00  0.00    +0.002 A 
ATOM     11  C   UNL     1      -4.336  -2.781   2.534  0.00  0.00    +0.025 A 
ATOM     12  C   UNL     1      -4.167  -1.661   1.739  0.00  0.00    +0.052 A 
ATOM     13  N   UNL     1      -4.370  -0.372   2.218  0.00  0.00    -0.316 N 
ATOM     14  C   UNL     1      -1.548   1.894   1.604  0.00  0.00    +0.163 C 
ATOM     15  O   UNL     1      -0.738   2.136   0.731  0.00  0.00    -0.292 OA
ATOM     16  C   UNL     1      -1.500   2.688   2.874  0.00  0.00    +0.088 C 
ATOM     17  H   UNL     1      -4.071  -0.402  -1.065  0.00  0.00    +0.147 HD
ATOM     18  H   UNL     1      -5.270  -0.130   2.489  0.00  0.00    +0.152 HD
ENDROOT
BRANCH   1  22
ATOM     19  C   UNL     1      -2.807   4.745   7.244  0.00  0.00    +0.000 A 
ATOM     20  C   UNL     1      -3.617   5.220   6.229  0.00  0.00    +0.000 A 
ATOM     21  C   UNL     1      -3.649   4.569   5.010  0.00  0.00    +0.004 A 
ATOM     22  C   UNL     1      -2.873   3.443   4.806  0.00  0.00    -0.044 A 
ATOM     23  C   UNL     1      -2.068   2.966   5.824  0.00  0.00    +0.004 A 
ATOM     24  C   UNL     1      -2.031   3.620   7.041  0.00  0.00    +0.000 A 
ENDBRANCH   1  22
BRANCH   5  25
ATOM     25  C   UNL     1      -1.131  -0.622   0.012  0.00  0.00    +0.007 A 
ATOM     26  C   UNL     1      -0.517  -0.976   1.200  0.00  0.00    +0.008 A 
ATOM     27  C   UNL     1       0.634  -1.740   1.181  0.00  0.00    +0.000 A 
ATOM     28  C   UNL     1       1.173  -2.151  -0.024  0.00  0.00    +0.002 A 
ATOM     29  C   UNL     1       0.557  -1.801  -1.211  0.00  0.00    +0.033 A 
ATOM     30  C   UNL     1      -0.593  -1.032  -1.193  0.00  0.00    +0.131 A 
BRANCH  30  31
ATOM     31  N   UNL     1      -1.250  -0.654  -2.464  0.00  0.00    +0.057 N 
ATOM     32  O   UNL     1      -0.724  -0.931  -3.527  0.00  0.00    -0.126 OA
ATOM     33  O   UNL     1      -2.318  -0.069  -2.447  0.00  0.00    -0.126 OA
ENDBRANCH  30  31
ENDBRANCH   5  25
TORSDOF 3
