REMARK  Name = ZINC66892303
REMARK  4 active torsions:
REMARK  status: ('A' for Active; 'I' for Inactive)
REMARK    1  A    between atoms: N_4  and  C_16
REMARK    2  A    between atoms: C_5  and  C_8
REMARK    3  A    between atoms: C_16  and  C_17
REMARK    4  A    between atoms: N_19  and  C_20
REMARK                            x       y       z     vdW  Elec       q    Type
REMARK                         _______ _______ _______ _____ _____    ______ ____
ROOT
ATOM      1  C   UNL     1       0.219   1.406  -0.220  0.00  0.00    -0.003 C 
ATOM      2  C   UNL     1       1.612   1.996   0.015  0.00  0.00    -0.019 C 
ATOM      3  C   UNL     1       2.120   1.562   1.391  0.00  0.00    -0.077 C 
ATOM      4  N   UNL     1       2.191   0.097   1.450  0.00  0.00    +0.393 N 
ATOM      5  C   UNL     1       0.847  -0.474   1.298  0.00  0.00    +0.020 C 
ATOM      6  C   UNL     1       0.291  -0.118  -0.082  0.00  0.00    -0.006 C 
ATOM      7  H   UNL     1       2.785  -0.240   0.707  0.00  0.00    -0.080 HD
ENDROOT
BRANCH   5   8
ATOM      8  C   UNL     1       0.920  -1.973   1.437  0.00  0.00    +0.202 C 
ATOM      9  O   UNL     1       1.935  -2.562   1.129  0.00  0.00    -0.277 OA
ATOM     10  N   UNL     1      -0.142  -2.658   1.904  0.00  0.00    -0.298 N 
ATOM     11  C   UNL     1      -1.421  -1.983   2.173  0.00  0.00    +0.136 C 
ATOM     12  C   UNL     1      -2.539  -2.770   1.480  0.00  0.00    +0.179 C 
ATOM     13  O   UNL     1      -2.454  -4.144   1.863  0.00  0.00    -0.377 OA
ATOM     14  C   UNL     1      -1.241  -4.789   1.467  0.00  0.00    +0.179 C 
ATOM     15  C   UNL     1      -0.059  -4.106   2.154  0.00  0.00    +0.136 C 
ENDBRANCH   5   8
BRANCH   4  16
ATOM     16  C   UNL     1       2.752  -0.313   2.745  0.00  0.00    +0.020 C 
BRANCH  16  17
ATOM     17  C   UNL     1       4.193   0.119   2.827  0.00  0.00    +0.197 C 
ATOM     18  O   UNL     1       4.703   0.710   1.899  0.00  0.00    -0.278 OA
ATOM     19  N   UNL     1       4.915  -0.151   3.933  0.00  0.00    -0.314 N 
ATOM     20  H   UNL     1       4.508  -0.624   4.675  0.00  0.00    +0.149 HD
BRANCH  19  21
ATOM     21  C   UNL     1       6.317   0.269   4.013  0.00  0.00    +0.073 C 
ATOM     22  C   UNL     1       7.204  -0.788   3.351  0.00  0.00    +0.027 C 
ATOM     23  C   UNL     1       8.667  -0.348   3.432  0.00  0.00    +0.067 C 
ATOM     24  C   UNL     1       9.069  -0.183   4.898  0.00  0.00    +0.170 C 
ATOM     25  C   UNL     1       8.181   0.869   5.564  0.00  0.00    +0.067 C 
ATOM     26  C   UNL     1       6.718   0.427   5.481  0.00  0.00    +0.027 C 
ATOM     27  O   UNL     1       8.915  -1.439   5.579  0.00  0.00    -0.346 OA
ATOM     28  C   UNL     1      10.231  -2.042   5.546  0.00  0.00    +0.191 C 
ATOM     29  C   UNL     1      11.148  -0.803   5.706  0.00  0.00    +0.191 C 
ATOM     30  O   UNL     1      10.441   0.222   4.980  0.00  0.00    -0.346 OA
ENDBRANCH  19  21
ENDBRANCH  16  17
ENDBRANCH   4  16
TORSDOF 4
