REMARK  Name = ZINC14532217
REMARK  15 active torsions:
REMARK  status: ('A' for Active; 'I' for Inactive)
REMARK    1  A    between atoms: C_1  and  C_2
REMARK    2  A    between atoms: C_2  and  C_4
REMARK    3  A    between atoms: C_2  and  N_9
REMARK    4  A    between atoms: C_4  and  C_5
REMARK    5  A    between atoms: C_5  and  C_6
REMARK    6  A    between atoms: C_6  and  C_8
REMARK    7  A    between atoms: N_17  and  C_26
REMARK    8  A    between atoms: N_20  and  C_21
REMARK    9  A    between atoms: C_21  and  C_22
REMARK   10  A    between atoms: C_22  and  C_23
REMARK   11  A    between atoms: C_23  and  C_24
REMARK   12  A    between atoms: C_23  and  C_25
REMARK   13  A    between atoms: C_26  and  C_27
REMARK   14  A    between atoms: C_31  and  O_33
REMARK   15  A    between atoms: O_33  and  C_34
REMARK                            x       y       z     vdW  Elec       q    Type
REMARK                         _______ _______ _______ _____ _____    ______ ____
ROOT
ATOM      1  N   UNL     1      -1.426  -0.654   0.039  0.00  0.00    +0.382 N 
ATOM      2  C   UNL     1      -1.325  -2.118   0.079  0.00  0.00    -0.076 C 
ATOM      3  C   UNL     1      -2.728  -2.729   0.045  0.00  0.00    +0.017 C 
ATOM      4  C   UNL     1      -3.442  -2.283  -1.228  0.00  0.00    +0.112 C 
ATOM      5  C   UNL     1      -3.463  -0.760  -1.319  0.00  0.00    +0.017 C 
ATOM      6  C   UNL     1      -2.030  -0.228  -1.230  0.00  0.00    -0.076 C 
ATOM      7  C   UNL     1      -4.848  -2.835  -1.267  0.00  0.00    +0.247 C 
ATOM      8  O   UNL     1      -5.743  -2.622  -0.478  0.00  0.00    -0.273 OA
ATOM      9  N   UNL     1      -4.897  -3.615  -2.367  0.00  0.00    -0.220 N 
ATOM     10  C   UNL     1      -3.725  -3.627  -3.016  0.00  0.00    +0.312 C 
ATOM     11  O   UNL     1      -3.523  -4.257  -4.035  0.00  0.00    -0.252 OA
ATOM     12  N   UNL     1      -2.796  -2.862  -2.412  0.00  0.00    -0.271 N 
ATOM     13  H   UNL     1      -2.001  -0.338   0.806  0.00  0.00    -0.081 HD
ENDROOT
BRANCH   1  15
ATOM     14  C   UNL     1       0.744  -0.430  -1.074  0.00  0.00    -0.013 C 
ATOM     15  C   UNL     1      -0.085  -0.068   0.161  0.00  0.00    -0.071 C 
BRANCH  15  16
ATOM     16  C   UNL     1      -0.200   1.454   0.270  0.00  0.00    -0.011 C 
BRANCH  16  17
ATOM     17  C   UNL     1      -0.930   1.818   1.564  0.00  0.00    +0.028 C 
BRANCH  17  18
ATOM     18  C   UNL     1      -1.132   3.310   1.624  0.00  0.00    -0.080 C 
ATOM     19  C   UNL     1      -2.258   3.836   1.209  0.00  0.00    +0.007 C 
ATOM     20  C   UNL     1      -0.039   4.199   2.160  0.00  0.00    +0.038 C 
ENDBRANCH  17  18
ENDBRANCH  16  17
ENDBRANCH  15  16
ENDBRANCH   1  15
BRANCH  12  21
ATOM     21  C   UNL     1      -1.414  -2.649  -2.850  0.00  0.00    +0.110 C 
BRANCH  21  22
ATOM     22  C   UNL     1      -0.632  -3.958  -2.727  0.00  0.00    +0.022 C 
BRANCH  22  23
ATOM     23  C   UNL     1       0.837  -3.709  -3.072  0.00  0.00    -0.016 C 
ATOM     24  C   UNL     1       1.642  -4.987  -2.829  0.00  0.00    +0.007 C 
ATOM     25  C   UNL     1       0.954  -3.305  -4.543  0.00  0.00    +0.007 C 
ENDBRANCH  22  23
ENDBRANCH  21  22
ENDBRANCH  12  21
BRANCH   9  26
ATOM     26  C   UNL     1      -6.084  -4.357  -2.798  0.00  0.00    +0.153 C 
BRANCH  26  27
ATOM     27  C   UNL     1      -6.909  -3.495  -3.719  0.00  0.00    -0.026 A 
ATOM     28  C   UNL     1      -7.890  -2.671  -3.199  0.00  0.00    +0.005 A 
ATOM     29  C   UNL     1      -8.648  -1.880  -4.041  0.00  0.00    +0.004 A 
ATOM     30  C   UNL     1      -8.428  -1.910  -5.404  0.00  0.00    +0.045 A 
ATOM     31  C   UNL     1      -7.444  -2.736  -5.928  0.00  0.00    +0.120 A 
ATOM     32  C   UNL     1      -6.680  -3.525  -5.081  0.00  0.00    +0.050 A 
BRANCH  31  33
ATOM     33  O   UNL     1      -7.225  -2.767  -7.269  0.00  0.00    -0.495 OA
ATOM     34  C   UNL     1      -8.045  -1.924  -8.081  0.00  0.00    +0.277 C 
ENDBRANCH  31  33
ENDBRANCH  26  27
ENDBRANCH   9  26
TORSDOF 10
