REMARK  Name = ZINC29630291
REMARK  5 active torsions:
REMARK  status: ('A' for Active; 'I' for Inactive)
REMARK    1  A    between atoms: C_2  and  N_23
REMARK    2  A    between atoms: C_4  and  C_11
REMARK    3  A    between atoms: C_12  and  C_13
REMARK    4  A    between atoms: N_15  and  C_16
REMARK    5  A    between atoms: C_16  and  C_17
REMARK                            x       y       z     vdW  Elec       q    Type
REMARK                         _______ _______ _______ _____ _____    ______ ____
ROOT
ATOM      1  C   UNL     1      -0.017   1.378   0.010  0.00  0.00    +0.042 A 
ATOM      2  C   UNL     1       1.167   2.098   0.002  0.00  0.00    +0.127 A 
ATOM      3  C   UNL     1       2.379   1.442  -0.013  0.00  0.00    +0.044 A 
ATOM      4  C   UNL     1       2.414   0.044  -0.022  0.00  0.00    +0.019 A 
ATOM      5  C   UNL     1       1.210  -0.680  -0.016  0.00  0.00    +0.136 A 
ATOM      6  C   UNL     1       0.002  -0.004   0.002  0.00  0.00    +0.023 A 
ATOM      7  C   UNL     1      -1.299  -0.767   0.019  0.00  0.00    +0.202 C 
ATOM      8  O   UNL     1      -1.056  -2.124  -0.364  0.00  0.00    -0.339 OA
ATOM      9  C   UNL     1       0.042  -2.718   0.340  0.00  0.00    +0.395 C 
ATOM     10  O   UNL     1       1.244  -2.037  -0.032  0.00  0.00    -0.465 OA
ENDROOT
BRANCH   2  11
ATOM     11  N   UNL     1       1.130   3.577   0.010  0.00  0.00    +0.056 N 
ATOM     12  O   UNL     1       0.068   4.155   0.023  0.00  0.00    -0.126 OA
ATOM     13  O   UNL     1       2.162   4.208   0.004  0.00  0.00    -0.126 OA
ENDBRANCH   2  11
BRANCH   4  14
ATOM     14  C   UNL     1       3.702  -0.663  -0.039  0.00  0.00    +0.016 C 
ATOM     15  C   UNL     1       4.856   0.037  -0.045  0.00  0.00    +0.068 C 
BRANCH  15  16
ATOM     16  C   UNL     1       6.138  -0.667  -0.061  0.00  0.00    +0.237 C 
ATOM     17  O   UNL     1       6.164  -1.884  -0.069  0.00  0.00    -0.271 OA
ATOM     18  N   UNL     1       7.290   0.032  -0.067  0.00  0.00    -0.309 N 
ATOM     19  H   UNL     1       7.269   1.002  -0.061  0.00  0.00    +0.149 HD
BRANCH  18  20
ATOM     20  C   UNL     1       8.575  -0.673  -0.083  0.00  0.00    +0.136 C 
BRANCH  20  21
ATOM     21  C   UNL     1       9.716   0.346  -0.087  0.00  0.00    +0.135 C 
ATOM     22  C   UNL     1      11.084  -0.379  -0.140  0.00  0.00    +0.035 C 
ATOM     23  C   UNL     1      11.978   0.723  -0.771  0.00  0.00    +0.031 C 
ATOM     24  C   UNL     1      10.997   1.429  -1.732  0.00  0.00    +0.160 C 
ATOM     25  O   UNL     1       9.666   1.145  -1.280  0.00  0.00    -0.375 OA
ENDBRANCH  20  21
ENDBRANCH  18  20
ENDBRANCH  15  16
ENDBRANCH   4  14
TORSDOF 5
